MODEL 1
REMARK VINA RESULT:      -8.0      0.000      0.000
REMARK  Name = 
REMARK  11 active torsions:
REMARK  status: ('A' for Active; 'I' for Inactive)
REMARK    1  A    between atoms: C_1  and  C_2
REMARK    2  A    between atoms: C_2  and  C_3
REMARK    3  A    between atoms: N_7  and  C_8
REMARK    4  A    between atoms: C_8  and  C_9
REMARK    5  A    between atoms: C_9  and  C_10
REMARK    6  A    between atoms: C_9  and  N_28
REMARK    7  A    between atoms: C_10  and  S_11
REMARK    8  A    between atoms: S_11  and  C_14
REMARK    9  A    between atoms: C_17  and  C_18
REMARK   10  A    between atoms: C_21  and  C_22
REMARK   11  A    between atoms: N_28  and  O_29
REMARK                            x       y       z     vdW  Elec       q    Type
REMARK                         _______ _______ _______ _____ _____    ______ ____
ROOT
ATOM      1  C   UNL     1       4.323   6.381  18.638  0.00  0.00    +0.000 C 
ENDROOT
BRANCH   1   2
ATOM      2  S   UNL     1       2.961   7.096  17.764  0.00  0.00    +0.000 S 
ATOM      3  O   UNL     1       3.456   7.860  16.620  0.00  0.00    +0.000 OA
ATOM      4  O   UNL     1       1.987   6.048  17.560  0.00  0.00    +0.000 OA
BRANCH   2   5
ATOM      5  C   UNL     1       2.181   8.270  18.835  0.00  0.00    +0.000 A 
ATOM      6  C   UNL     1       1.790   9.513  18.335  0.00  0.00    +0.000 A 
ATOM      7  C   UNL     1       1.092  10.390  19.157  0.00  0.00    +0.000 A 
ATOM      8  C   UNL     1       0.757  10.038  20.474  0.00  0.00    +0.000 A 
ATOM      9  C   UNL     1       1.142   8.767  20.936  0.00  0.00    +0.000 A 
ATOM     10  C   UNL     1       1.857   7.886  20.129  0.00  0.00    +0.000 A 
BRANCH   8  11
ATOM     11  C   UNL     1       0.029  10.972  21.348  0.00  0.00    +0.000 A 
ATOM     12  C   UNL     1      -0.743  10.513  22.430  0.00  0.00    +0.000 A 
ATOM     13  C   UNL     1      -1.461  11.402  23.229  0.00  0.00    +0.000 A 
ATOM     14  C   UNL     1      -1.396  12.773  22.975  0.00  0.00    +0.000 A 
ATOM     15  C   UNL     1      -0.621  13.253  21.918  0.00  0.00    +0.000 A 
ATOM     16  C   UNL     1       0.073  12.357  21.109  0.00  0.00    +0.000 A 
BRANCH  14  17
ATOM     17  C   UNL     1      -2.136  13.689  23.785  0.00  0.00    +0.000 C 
ATOM     18  N   UNL     1      -2.735  14.435  24.436  0.00  0.00    +0.000 NA
ENDBRANCH  14  17
ENDBRANCH   8  11
ENDBRANCH   2   5
ENDBRANCH   1   2
BRANCH   1  19
ATOM     19  C   UNL     1       5.315   5.518  17.843  0.00  0.00    +0.000 C 
BRANCH  19  20
ATOM     20  N   UNL     1       6.687   5.591  18.403  0.00  0.00    +0.000 N 
ATOM     21  C   UNL     1       7.545   6.640  18.099  0.00  0.00    +0.000 C 
ATOM     22  O   UNL     1       7.390   7.455  17.201  0.00  0.00    +0.000 OA
BRANCH  20  23
ATOM     23  O   UNL     1       6.748   5.356  19.807  0.00  0.00    +0.000 OA
ATOM     24  H   UNL     1       7.614   4.890  19.899  0.00  0.00    +0.000 HD
ENDBRANCH  20  23
ENDBRANCH  19  20
BRANCH  19  25
ATOM     25  C   UNL     1       4.883   4.029  17.623  0.00  0.00    +0.000 C 
BRANCH  25  32
ATOM     26  C   UNL     1       0.562   1.892  18.918  0.00  0.00    +0.000 C 
ATOM     27  C   UNL     1       1.776   2.713  19.315  0.00  0.00    +0.000 C 
ATOM     28  C   UNL     1       1.309   3.875  20.199  0.00  0.00    +0.000 C 
ATOM     29  N   UNL     1       2.898   2.094  19.979  0.00  0.00    +0.000 N 
ATOM     30  C   UNL     1       4.073   2.746  19.616  0.00  0.00    +0.000 C 
ATOM     31  O   UNL     1       5.140   2.648  20.226  0.00  0.00    +0.000 OA
ATOM     32  N   UNL     1       3.831   3.477  18.472  0.00  0.00    +0.000 N 
ATOM     33  C   UNL     1       2.583   3.110  18.071  0.00  0.00    +0.000 C 
ATOM     34  O   UNL     1       2.182   3.079  16.917  0.00  0.00    +0.000 OA
ATOM     35  H   UNL     1       2.851   1.645  20.890  0.00  0.00    +0.000 HD
ENDBRANCH  25  32
ENDBRANCH  19  25
ENDBRANCH   1  19
TORSDOF 9
ENDMDL
MODEL 2
REMARK VINA RESULT:      -7.9      1.624      4.118
REMARK  Name = 
REMARK  11 active torsions:
REMARK  status: ('A' for Active; 'I' for Inactive)
REMARK    1  A    between atoms: C_1  and  C_2
REMARK    2  A    between atoms: C_2  and  C_3
REMARK    3  A    between atoms: N_7  and  C_8
REMARK    4  A    between atoms: C_8  and  C_9
REMARK    5  A    between atoms: C_9  and  C_10
REMARK    6  A    between atoms: C_9  and  N_28
REMARK    7  A    between atoms: C_10  and  S_11
REMARK    8  A    between atoms: S_11  and  C_14
REMARK    9  A    between atoms: C_17  and  C_18
REMARK   10  A    between atoms: C_21  and  C_22
REMARK   11  A    between atoms: N_28  and  O_29
REMARK                            x       y       z     vdW  Elec       q    Type
REMARK                         _______ _______ _______ _____ _____    ______ ____
ROOT
ATOM      1  C   UNL     1       2.257   5.304  18.055  0.00  0.00    +0.000 C 
ENDROOT
BRANCH   1   2
ATOM      2  S   UNL     1       3.122   6.777  18.519  0.00  0.00    +0.000 S 
ATOM      3  O   UNL     1       4.109   6.464  19.551  0.00  0.00    +0.000 OA
ATOM      4  O   UNL     1       3.541   7.428  17.299  0.00  0.00    +0.000 OA
BRANCH   2   5
ATOM      5  C   UNL     1       1.959   7.878  19.273  0.00  0.00    +0.000 A 
ATOM      6  C   UNL     1       1.567   7.674  20.596  0.00  0.00    +0.000 A 
ATOM      7  C   UNL     1       0.729   8.598  21.210  0.00  0.00    +0.000 A 
ATOM      8  C   UNL     1       0.289   9.742  20.527  0.00  0.00    +0.000 A 
ATOM      9  C   UNL     1       0.727   9.932  19.205  0.00  0.00    +0.000 A 
ATOM     10  C   UNL     1       1.551   9.005  18.572  0.00  0.00    +0.000 A 
BRANCH   8  11
ATOM     11  C   UNL     1      -0.608  10.714  21.174  0.00  0.00    +0.000 A 
ATOM     12  C   UNL     1      -1.293  11.689  20.428  0.00  0.00    +0.000 A 
ATOM     13  C   UNL     1      -2.110  12.630  21.053  0.00  0.00    +0.000 A 
ATOM     14  C   UNL     1      -2.278  12.594  22.438  0.00  0.00    +0.000 A 
ATOM     15  C   UNL     1      -1.623  11.624  23.197  0.00  0.00    +0.000 A 
ATOM     16  C   UNL     1      -0.789  10.703  22.569  0.00  0.00    +0.000 A 
BRANCH  14  17
ATOM     17  C   UNL     1      -3.108  13.561  23.086  0.00  0.00    +0.000 C 
ATOM     18  N   UNL     1      -3.776  14.344  23.615  0.00  0.00    +0.000 NA
ENDBRANCH  14  17
ENDBRANCH   8  11
ENDBRANCH   2   5
ENDBRANCH   1   2
BRANCH   1  19
ATOM     19  C   UNL     1       2.969   3.958  18.258  0.00  0.00    +0.000 C 
BRANCH  19  20
ATOM     20  N   UNL     1       2.007   2.851  18.486  0.00  0.00    +0.000 N 
ATOM     21  C   UNL     1       1.819   2.297  19.746  0.00  0.00    +0.000 C 
ATOM     22  O   UNL     1       2.544   2.462  20.717  0.00  0.00    +0.000 OA
BRANCH  20  23
ATOM     23  O   UNL     1       0.728   3.069  17.897  0.00  0.00    +0.000 OA
ATOM     24  H   UNL     1       0.695   2.359  17.212  0.00  0.00    +0.000 HD
ENDBRANCH  20  23
ENDBRANCH  19  20
BRANCH  19  25
ATOM     25  C   UNL     1       4.005   3.573  17.148  0.00  0.00    +0.000 C 
BRANCH  25  32
ATOM     26  C   UNL     1       8.403   5.143  18.910  0.00  0.00    +0.000 C 
ATOM     27  C   UNL     1       7.318   5.239  17.852  0.00  0.00    +0.000 C 
ATOM     28  C   UNL     1       7.067   6.720  17.547  0.00  0.00    +0.000 C 
ATOM     29  N   UNL     1       7.462   4.559  16.587  0.00  0.00    +0.000 N 
ATOM     30  C   UNL     1       6.208   4.174  16.120  0.00  0.00    +0.000 C 
ATOM     31  O   UNL     1       5.972   3.844  14.955  0.00  0.00    +0.000 OA
ATOM     32  N   UNL     1       5.320   4.208  17.173  0.00  0.00    +0.000 N 
ATOM     33  C   UNL     1       6.083   4.431  18.278  0.00  0.00    +0.000 C 
ATOM     34  O   UNL     1       5.841   4.036  19.408  0.00  0.00    +0.000 OA
ATOM     35  H   UNL     1       8.197   4.751  15.911  0.00  0.00    +0.000 HD
ENDBRANCH  25  32
ENDBRANCH  19  25
ENDBRANCH   1  19
TORSDOF 9
ENDMDL
MODEL 3
REMARK VINA RESULT:      -7.7      2.522      4.727
REMARK  Name = 
REMARK  11 active torsions:
REMARK  status: ('A' for Active; 'I' for Inactive)
REMARK    1  A    between atoms: C_1  and  C_2
REMARK    2  A    between atoms: C_2  and  C_3
REMARK    3  A    between atoms: N_7  and  C_8
REMARK    4  A    between atoms: C_8  and  C_9
REMARK    5  A    between atoms: C_9  and  C_10
REMARK    6  A    between atoms: C_9  and  N_28
REMARK    7  A    between atoms: C_10  and  S_11
REMARK    8  A    between atoms: S_11  and  C_14
REMARK    9  A    between atoms: C_17  and  C_18
REMARK   10  A    between atoms: C_21  and  C_22
REMARK   11  A    between atoms: N_28  and  O_29
REMARK                            x       y       z     vdW  Elec       q    Type
REMARK                         _______ _______ _______ _____ _____    ______ ____
ROOT
ATOM      1  C   UNL     1       2.101   4.252  18.490  0.00  0.00    +0.000 C 
ENDROOT
BRANCH   1   2
ATOM      2  S   UNL     1       1.801   4.965  20.081  0.00  0.00    +0.000 S 
ATOM      3  O   UNL     1       0.480   4.562  20.560  0.00  0.00    +0.000 OA
ATOM      4  O   UNL     1       2.968   4.705  20.893  0.00  0.00    +0.000 OA
BRANCH   2   5
ATOM      5  C   UNL     1       1.736   6.723  19.888  0.00  0.00    +0.000 A 
ATOM      6  C   UNL     1       2.145   7.305  18.688  0.00  0.00    +0.000 A 
ATOM      7  C   UNL     1       2.000   8.676  18.510  0.00  0.00    +0.000 A 
ATOM      8  C   UNL     1       1.429   9.480  19.508  0.00  0.00    +0.000 A 
ATOM      9  C   UNL     1       1.000   8.856  20.693  0.00  0.00    +0.000 A 
ATOM     10  C   UNL     1       1.157   7.487  20.892  0.00  0.00    +0.000 A 
BRANCH   8  11
ATOM     11  C   UNL     1       1.286  10.933  19.324  0.00  0.00    +0.000 A 
ATOM     12  C   UNL     1       2.040  11.628  18.361  0.00  0.00    +0.000 A 
ATOM     13  C   UNL     1       1.927  13.010  18.220  0.00  0.00    +0.000 A 
ATOM     14  C   UNL     1       1.033  13.720  19.024  0.00  0.00    +0.000 A 
ATOM     15  C   UNL     1       0.261  13.050  19.973  0.00  0.00    +0.000 A 
ATOM     16  C   UNL     1       0.398  11.672  20.126  0.00  0.00    +0.000 A 
BRANCH  14  17
ATOM     17  C   UNL     1       0.918  15.139  18.889  0.00  0.00    +0.000 C 
ATOM     18  N   UNL     1       0.831  16.287  18.780  0.00  0.00    +0.000 NA
ENDBRANCH  14  17
ENDBRANCH   8  11
ENDBRANCH   2   5
ENDBRANCH   1   2
BRANCH   1  19
ATOM     19  C   UNL     1       3.498   3.675  18.212  0.00  0.00    +0.000 C 
BRANCH  19  20
ATOM     20  N   UNL     1       3.487   2.192  18.166  0.00  0.00    +0.000 N 
ATOM     21  C   UNL     1       4.060   1.427  19.173  0.00  0.00    +0.000 C 
ATOM     22  O   UNL     1       4.814   1.838  20.045  0.00  0.00    +0.000 OA
BRANCH  20  23
ATOM     23  O   UNL     1       2.214   1.635  17.850  0.00  0.00    +0.000 OA
ATOM     24  H   UNL     1       2.464   0.781  17.424  0.00  0.00    +0.000 HD
ENDBRANCH  20  23
ENDBRANCH  19  20
BRANCH  19  25
ATOM     25  C   UNL     1       4.229   4.265  16.958  0.00  0.00    +0.000 C 
BRANCH  25  32
ATOM     26  C   UNL     1       8.267   6.090  19.256  0.00  0.00    +0.000 C 
ATOM     27  C   UNL     1       7.456   5.933  17.981  0.00  0.00    +0.000 C 
ATOM     28  C   UNL     1       7.430   7.281  17.252  0.00  0.00    +0.000 C 
ATOM     29  N   UNL     1       7.806   4.926  17.007  0.00  0.00    +0.000 N 
ATOM     30  C   UNL     1       6.654   4.476  16.368  0.00  0.00    +0.000 C 
ATOM     31  O   UNL     1       6.648   3.848  15.306  0.00  0.00    +0.000 OA
ATOM     32  N   UNL     1       5.563   4.831  17.133  0.00  0.00    +0.000 N 
ATOM     33  C   UNL     1       6.083   5.320  18.292  0.00  0.00    +0.000 C 
ATOM     34  O   UNL     1       5.559   5.260  19.394  0.00  0.00    +0.000 OA
ATOM     35  H   UNL     1       8.687   4.897  16.500  0.00  0.00    +0.000 HD
ENDBRANCH  25  32
ENDBRANCH  19  25
ENDBRANCH   1  19
TORSDOF 9
ENDMDL
MODEL 4
REMARK VINA RESULT:      -7.7      0.448      1.269
REMARK  Name = 
REMARK  11 active torsions:
REMARK  status: ('A' for Active; 'I' for Inactive)
REMARK    1  A    between atoms: C_1  and  C_2
REMARK    2  A    between atoms: C_2  and  C_3
REMARK    3  A    between atoms: N_7  and  C_8
REMARK    4  A    between atoms: C_8  and  C_9
REMARK    5  A    between atoms: C_9  and  C_10
REMARK    6  A    between atoms: C_9  and  N_28
REMARK    7  A    between atoms: C_10  and  S_11
REMARK    8  A    between atoms: S_11  and  C_14
REMARK    9  A    between atoms: C_17  and  C_18
REMARK   10  A    between atoms: C_21  and  C_22
REMARK   11  A    between atoms: N_28  and  O_29
REMARK                            x       y       z     vdW  Elec       q    Type
REMARK                         _______ _______ _______ _____ _____    ______ ____
ROOT
ATOM      1  C   UNL     1       4.367   6.056  18.858  0.00  0.00    +0.000 C 
ENDROOT
BRANCH   1   2
ATOM      2  S   UNL     1       3.136   6.787  17.817  0.00  0.00    +0.000 S 
ATOM      3  O   UNL     1       3.782   7.580  16.773  0.00  0.00    +0.000 OA
ATOM      4  O   UNL     1       2.209   5.740  17.453  0.00  0.00    +0.000 OA
BRANCH   2   5
ATOM      5  C   UNL     1       2.205   7.931  18.795  0.00  0.00    +0.000 A 
ATOM      6  C   UNL     1       1.956   7.654  20.139  0.00  0.00    +0.000 A 
ATOM      7  C   UNL     1       1.309   8.601  20.923  0.00  0.00    +0.000 A 
ATOM      8  C   UNL     1       0.920   9.840  20.390  0.00  0.00    +0.000 A 
ATOM      9  C   UNL     1       1.212  10.098  19.039  0.00  0.00    +0.000 A 
ATOM     10  C   UNL     1       1.843   9.151  18.238  0.00  0.00    +0.000 A 
BRANCH   8  11
ATOM     11  C   UNL     1       0.223  10.838  21.217  0.00  0.00    +0.000 A 
ATOM     12  C   UNL     1       0.381  12.217  20.991  0.00  0.00    +0.000 A 
ATOM     13  C   UNL     1      -0.252  13.156  21.805  0.00  0.00    +0.000 A 
ATOM     14  C   UNL     1      -1.079  12.730  22.845  0.00  0.00    +0.000 A 
ATOM     15  C   UNL     1      -1.265  11.367  23.076  0.00  0.00    +0.000 A 
ATOM     16  C   UNL     1      -0.610  10.434  22.276  0.00  0.00    +0.000 A 
BRANCH  14  17
ATOM     17  C   UNL     1      -1.724  13.687  23.687  0.00  0.00    +0.000 C 
ATOM     18  N   UNL     1      -2.251  14.464  24.364  0.00  0.00    +0.000 NA
ENDBRANCH  14  17
ENDBRANCH   8  11
ENDBRANCH   2   5
ENDBRANCH   1   2
BRANCH   1  19
ATOM     19  C   UNL     1       5.388   5.109  18.209  0.00  0.00    +0.000 C 
BRANCH  19  20
ATOM     20  N   UNL     1       6.781   5.450  18.588  0.00  0.00    +0.000 N 
ATOM     21  C   UNL     1       7.441   6.541  18.037  0.00  0.00    +0.000 C 
ATOM     22  O   UNL     1       7.082   7.174  17.053  0.00  0.00    +0.000 OA
BRANCH  20  23
ATOM     23  O   UNL     1       7.010   5.453  19.994  0.00  0.00    +0.000 OA
ATOM     24  H   UNL     1       7.097   4.489  20.190  0.00  0.00    +0.000 HD
ENDBRANCH  20  23
ENDBRANCH  19  20
BRANCH  19  25
ATOM     25  C   UNL     1       5.113   3.581  18.419  0.00  0.00    +0.000 C 
BRANCH  25  32
ATOM     26  C   UNL     1       0.410   1.980  18.895  0.00  0.00    +0.000 C 
ATOM     27  C   UNL     1       1.613   2.677  19.504  0.00  0.00    +0.000 C 
ATOM     28  C   UNL     1       1.125   3.915  20.265  0.00  0.00    +0.000 C 
ATOM     29  N   UNL     1       2.511   1.963  20.380  0.00  0.00    +0.000 N 
ATOM     30  C   UNL     1       3.801   2.469  20.238  0.00  0.00    +0.000 C 
ATOM     31  O   UNL     1       4.715   2.277  21.044  0.00  0.00    +0.000 OA
ATOM     32  N   UNL     1       3.864   3.179  19.059  0.00  0.00    +0.000 N 
ATOM     33  C   UNL     1       2.681   2.937  18.431  0.00  0.00    +0.000 C 
ATOM     34  O   UNL     1       2.504   2.907  17.223  0.00  0.00    +0.000 OA
ATOM     35  H   UNL     1       2.242   1.556  21.272  0.00  0.00    +0.000 HD
ENDBRANCH  25  32
ENDBRANCH  19  25
ENDBRANCH   1  19
TORSDOF 9
ENDMDL
MODEL 5
REMARK VINA RESULT:      -7.7      2.669      4.793
REMARK  Name = 
REMARK  11 active torsions:
REMARK  status: ('A' for Active; 'I' for Inactive)
REMARK    1  A    between atoms: C_1  and  C_2
REMARK    2  A    between atoms: C_2  and  C_3
REMARK    3  A    between atoms: N_7  and  C_8
REMARK    4  A    between atoms: C_8  and  C_9
REMARK    5  A    between atoms: C_9  and  C_10
REMARK    6  A    between atoms: C_9  and  N_28
REMARK    7  A    between atoms: C_10  and  S_11
REMARK    8  A    between atoms: S_11  and  C_14
REMARK    9  A    between atoms: C_17  and  C_18
REMARK   10  A    between atoms: C_21  and  C_22
REMARK   11  A    between atoms: N_28  and  O_29
REMARK                            x       y       z     vdW  Elec       q    Type
REMARK                         _______ _______ _______ _____ _____    ______ ____
ROOT
ATOM      1  C   UNL     1       2.512   5.149  17.997  0.00  0.00    +0.000 C 
ENDROOT
BRANCH   1   2
ATOM      2  S   UNL     1       2.369   5.854  19.615  0.00  0.00    +0.000 S 
ATOM      3  O   UNL     1       1.309   5.173  20.356  0.00  0.00    +0.000 OA
ATOM      4  O   UNL     1       3.701   5.924  20.169  0.00  0.00    +0.000 OA
BRANCH   2   5
ATOM      5  C   UNL     1       1.838   7.532  19.434  0.00  0.00    +0.000 A 
ATOM      6  C   UNL     1       1.309   8.215  20.530  0.00  0.00    +0.000 A 
ATOM      7  C   UNL     1       0.985   9.561  20.403  0.00  0.00    +0.000 A 
ATOM      8  C   UNL     1       1.200  10.248  19.199  0.00  0.00    +0.000 A 
ATOM      9  C   UNL     1       1.761   9.537  18.124  0.00  0.00    +0.000 A 
ATOM     10  C   UNL     1       2.073   8.184  18.231  0.00  0.00    +0.000 A 
BRANCH   8  11
ATOM     11  C   UNL     1       0.845  11.670  19.062  0.00  0.00    +0.000 A 
ATOM     12  C   UNL     1      -0.495  12.086  18.962  0.00  0.00    +0.000 A 
ATOM     13  C   UNL     1      -0.819  13.431  18.794  0.00  0.00    +0.000 A 
ATOM     14  C   UNL     1       0.194  14.391  18.750  0.00  0.00    +0.000 A 
ATOM     15  C   UNL     1       1.529  14.004  18.866  0.00  0.00    +0.000 A 
ATOM     16  C   UNL     1       1.847  12.656  19.008  0.00  0.00    +0.000 A 
BRANCH  14  17
ATOM     17  C   UNL     1      -0.132  15.771  18.570  0.00  0.00    +0.000 C 
ATOM     18  N   UNL     1      -0.396  16.889  18.430  0.00  0.00    +0.000 NA
ENDBRANCH  14  17
ENDBRANCH   8  11
ENDBRANCH   2   5
ENDBRANCH   1   2
BRANCH   1  19
ATOM     19  C   UNL     1       3.343   3.866  17.843  0.00  0.00    +0.000 C 
BRANCH  19  20
ATOM     20  N   UNL     1       2.486   2.662  17.712  0.00  0.00    +0.000 N 
ATOM     21  C   UNL     1       2.827   1.456  18.309  0.00  0.00    +0.000 C 
ATOM     22  O   UNL     1       3.920   1.172  18.779  0.00  0.00    +0.000 OA
BRANCH  20  23
ATOM     23  O   UNL     1       1.105   2.909  17.960  0.00  0.00    +0.000 OA
ATOM     24  H   UNL     1       1.142   3.688  18.566  0.00  0.00    +0.000 HD
ENDBRANCH  20  23
ENDBRANCH  19  20
BRANCH  19  25
ATOM     25  C   UNL     1       4.427   3.902  16.712  0.00  0.00    +0.000 C 
BRANCH  25  32
ATOM     26  C   UNL     1       8.259   6.461  18.630  0.00  0.00    +0.000 C 
ATOM     27  C   UNL     1       7.146   6.363  17.602  0.00  0.00    +0.000 C 
ATOM     28  C   UNL     1       6.465   7.732  17.492  0.00  0.00    +0.000 C 
ATOM     29  N   UNL     1       7.424   5.914  16.258  0.00  0.00    +0.000 N 
ATOM     30  C   UNL     1       6.315   5.239  15.754  0.00  0.00    +0.000 C 
ATOM     31  O   UNL     1       6.132   4.999  14.558  0.00  0.00    +0.000 OA
ATOM     32  N   UNL     1       5.503   4.884  16.810  0.00  0.00    +0.000 N 
ATOM     33  C   UNL     1       6.218   5.185  17.928  0.00  0.00    +0.000 C 
ATOM     34  O   UNL     1       6.151   4.602  19.000  0.00  0.00    +0.000 OA
ATOM     35  H   UNL     1       8.041   6.393  15.607  0.00  0.00    +0.000 HD
ENDBRANCH  25  32
ENDBRANCH  19  25
ENDBRANCH   1  19
TORSDOF 9
ENDMDL
MODEL 6
REMARK VINA RESULT:      -7.6      2.117      4.213
REMARK  Name = 
REMARK  11 active torsions:
REMARK  status: ('A' for Active; 'I' for Inactive)
REMARK    1  A    between atoms: C_1  and  C_2
REMARK    2  A    between atoms: C_2  and  C_3
REMARK    3  A    between atoms: N_7  and  C_8
REMARK    4  A    between atoms: C_8  and  C_9
REMARK    5  A    between atoms: C_9  and  C_10
REMARK    6  A    between atoms: C_9  and  N_28
REMARK    7  A    between atoms: C_10  and  S_11
REMARK    8  A    between atoms: S_11  and  C_14
REMARK    9  A    between atoms: C_17  and  C_18
REMARK   10  A    between atoms: C_21  and  C_22
REMARK   11  A    between atoms: N_28  and  O_29
REMARK                            x       y       z     vdW  Elec       q    Type
REMARK                         _______ _______ _______ _____ _____    ______ ____
ROOT
ATOM      1  C   UNL     1       2.359   5.427  17.823  0.00  0.00    +0.000 C 
ENDROOT
BRANCH   1   2
ATOM      2  S   UNL     1       3.256   6.846  18.384  0.00  0.00    +0.000 S 
ATOM      3  O   UNL     1       3.965   6.523  19.620  0.00  0.00    +0.000 OA
ATOM      4  O   UNL     1       3.989   7.364  17.251  0.00  0.00    +0.000 OA
BRANCH   2   5
ATOM      5  C   UNL     1       2.082   8.101  18.807  0.00  0.00    +0.000 A 
ATOM      6  C   UNL     1       1.523   8.895  17.806  0.00  0.00    +0.000 A 
ATOM      7  C   UNL     1       0.532   9.812  18.135  0.00  0.00    +0.000 A 
ATOM      8  C   UNL     1       0.069   9.937  19.454  0.00  0.00    +0.000 A 
ATOM      9  C   UNL     1       0.633   9.100  20.433  0.00  0.00    +0.000 A 
ATOM     10  C   UNL     1       1.641   8.191  20.121  0.00  0.00    +0.000 A 
BRANCH   8  11
ATOM     11  C   UNL     1      -0.973  10.915  19.805  0.00  0.00    +0.000 A 
ATOM     12  C   UNL     1      -1.007  11.529  21.069  0.00  0.00    +0.000 A 
ATOM     13  C   UNL     1      -2.020  12.426  21.406  0.00  0.00    +0.000 A 
ATOM     14  C   UNL     1      -3.004  12.746  20.470  0.00  0.00    +0.000 A 
ATOM     15  C   UNL     1      -2.980  12.164  19.202  0.00  0.00    +0.000 A 
ATOM     16  C   UNL     1      -1.980  11.250  18.881  0.00  0.00    +0.000 A 
BRANCH  14  17
ATOM     17  C   UNL     1      -4.050  13.659  20.811  0.00  0.00    +0.000 C 
ATOM     18  N   UNL     1      -4.895  14.398  21.094  0.00  0.00    +0.000 NA
ENDBRANCH  14  17
ENDBRANCH   8  11
ENDBRANCH   2   5
ENDBRANCH   1   2
BRANCH   1  19
ATOM     19  C   UNL     1       2.979   4.043  18.065  0.00  0.00    +0.000 C 
BRANCH  19  20
ATOM     20  N   UNL     1       1.944   2.988  18.200  0.00  0.00    +0.000 N 
ATOM     21  C   UNL     1       1.790   2.263  19.375  0.00  0.00    +0.000 C 
ATOM     22  O   UNL     1       2.586   2.224  20.302  0.00  0.00    +0.000 OA
BRANCH  20  23
ATOM     23  O   UNL     1       0.653   3.387  17.748  0.00  0.00    +0.000 OA
ATOM     24  H   UNL     1       0.467   2.719  17.044  0.00  0.00    +0.000 HD
ENDBRANCH  20  23
ENDBRANCH  19  20
BRANCH  19  25
ATOM     25  C   UNL     1       4.081   3.612  17.039  0.00  0.00    +0.000 C 
BRANCH  25  32
ATOM     26  C   UNL     1       8.386   5.142  19.048  0.00  0.00    +0.000 C 
ATOM     27  C   UNL     1       7.370   5.238  17.924  0.00  0.00    +0.000 C 
ATOM     28  C   UNL     1       7.162   6.717  17.581  0.00  0.00    +0.000 C 
ATOM     29  N   UNL     1       7.582   4.536  16.680  0.00  0.00    +0.000 N 
ATOM     30  C   UNL     1       6.353   4.163  16.141  0.00  0.00    +0.000 C 
ATOM     31  O   UNL     1       6.184   3.818  14.969  0.00  0.00    +0.000 OA
ATOM     32  N   UNL     1       5.402   4.226  17.137  0.00  0.00    +0.000 N 
ATOM     33  C   UNL     1       6.099   4.455  18.283  0.00  0.00    +0.000 C 
ATOM     34  O   UNL     1       5.780   4.082  19.402  0.00  0.00    +0.000 OA
ATOM     35  H   UNL     1       8.360   4.706  16.048  0.00  0.00    +0.000 HD
ENDBRANCH  25  32
ENDBRANCH  19  25
ENDBRANCH   1  19
TORSDOF 9
ENDMDL
MODEL 7
REMARK VINA RESULT:      -7.5      4.066     10.098
REMARK  Name = 
REMARK  11 active torsions:
REMARK  status: ('A' for Active; 'I' for Inactive)
REMARK    1  A    between atoms: C_1  and  C_2
REMARK    2  A    between atoms: C_2  and  C_3
REMARK    3  A    between atoms: N_7  and  C_8
REMARK    4  A    between atoms: C_8  and  C_9
REMARK    5  A    between atoms: C_9  and  C_10
REMARK    6  A    between atoms: C_9  and  N_28
REMARK    7  A    between atoms: C_10  and  S_11
REMARK    8  A    between atoms: S_11  and  C_14
REMARK    9  A    between atoms: C_17  and  C_18
REMARK   10  A    between atoms: C_21  and  C_22
REMARK   11  A    between atoms: N_28  and  O_29
REMARK                            x       y       z     vdW  Elec       q    Type
REMARK                         _______ _______ _______ _____ _____    ______ ____
ROOT
ATOM      1  C   UNL     1      -0.569  10.439  20.694  0.00  0.00    +0.000 C 
ENDROOT
BRANCH   1   2
ATOM      2  S   UNL     1       0.218   9.103  21.548  0.00  0.00    +0.000 S 
ATOM      3  O   UNL     1       1.064   9.631  22.616  0.00  0.00    +0.000 OA
ATOM      4  O   UNL     1      -0.806   8.132  21.858  0.00  0.00    +0.000 OA
BRANCH   2   5
ATOM      5  C   UNL     1       1.310   8.298  20.411  0.00  0.00    +0.000 A 
ATOM      6  C   UNL     1       1.793   7.021  20.699  0.00  0.00    +0.000 A 
ATOM      7  C   UNL     1       2.572   6.358  19.757  0.00  0.00    +0.000 A 
ATOM      8  C   UNL     1       2.862   6.943  18.515  0.00  0.00    +0.000 A 
ATOM      9  C   UNL     1       2.335   8.219  18.247  0.00  0.00    +0.000 A 
ATOM     10  C   UNL     1       1.569   8.902  19.188  0.00  0.00    +0.000 A 
BRANCH   8  11
ATOM     11  C   UNL     1       3.697   6.246  17.523  0.00  0.00    +0.000 A 
ATOM     12  C   UNL     1       4.510   6.954  16.620  0.00  0.00    +0.000 A 
ATOM     13  C   UNL     1       5.266   6.287  15.659  0.00  0.00    +0.000 A 
ATOM     14  C   UNL     1       5.245   4.892  15.602  0.00  0.00    +0.000 A 
ATOM     15  C   UNL     1       4.461   4.168  16.499  0.00  0.00    +0.000 A 
ATOM     16  C   UNL     1       3.687   4.842  17.441  0.00  0.00    +0.000 A 
BRANCH  14  17
ATOM     17  C   UNL     1       6.013   4.202  14.613  0.00  0.00    +0.000 C 
ATOM     18  N   UNL     1       6.638   3.641  13.817  0.00  0.00    +0.000 NA
ENDBRANCH  14  17
ENDBRANCH   8  11
ENDBRANCH   2   5
ENDBRANCH   1   2
BRANCH   1  19
ATOM     19  C   UNL     1       0.140  11.802  20.683  0.00  0.00    +0.000 C 
BRANCH  19  20
ATOM     20  N   UNL     1       0.199  12.385  19.319  0.00  0.00    +0.000 N 
ATOM     21  C   UNL     1       1.393  12.833  18.770  0.00  0.00    +0.000 C 
ATOM     22  O   UNL     1       2.436  13.026  19.380  0.00  0.00    +0.000 OA
BRANCH  20  23
ATOM     23  O   UNL     1      -0.486  11.616  18.335  0.00  0.00    +0.000 OA
ATOM     24  H   UNL     1       0.247  11.079  17.948  0.00  0.00    +0.000 HD
ENDBRANCH  20  23
ENDBRANCH  19  20
BRANCH  19  25
ATOM     25  C   UNL     1      -0.405  12.850  21.712  0.00  0.00    +0.000 C 
BRANCH  25  32
ATOM     26  C   UNL     1      -5.222  13.053  23.004  0.00  0.00    +0.000 C 
ATOM     27  C   UNL     1      -4.152  13.243  21.943  0.00  0.00    +0.000 C 
ATOM     28  C   UNL     1      -4.672  12.671  20.620  0.00  0.00    +0.000 C 
ATOM     29  N   UNL     1      -3.619  14.555  21.663  0.00  0.00    +0.000 N 
ATOM     30  C   UNL     1      -2.286  14.443  21.272  0.00  0.00    +0.000 C 
ATOM     31  O   UNL     1      -1.654  15.331  20.695  0.00  0.00    +0.000 OA
ATOM     32  N   UNL     1      -1.820  13.205  21.661  0.00  0.00    +0.000 N 
ATOM     33  C   UNL     1      -2.810  12.675  22.429  0.00  0.00    +0.000 C 
ATOM     34  O   UNL     1      -2.657  11.899  23.361  0.00  0.00    +0.000 OA
ATOM     35  H   UNL     1      -4.166  15.335  21.310  0.00  0.00    +0.000 HD
ENDBRANCH  25  32
ENDBRANCH  19  25
ENDBRANCH   1  19
TORSDOF 9
ENDMDL
MODEL 8
REMARK VINA RESULT:      -7.5      4.086     10.359
REMARK  Name = 
REMARK  11 active torsions:
REMARK  status: ('A' for Active; 'I' for Inactive)
REMARK    1  A    between atoms: C_1  and  C_2
REMARK    2  A    between atoms: C_2  and  C_3
REMARK    3  A    between atoms: N_7  and  C_8
REMARK    4  A    between atoms: C_8  and  C_9
REMARK    5  A    between atoms: C_9  and  C_10
REMARK    6  A    between atoms: C_9  and  N_28
REMARK    7  A    between atoms: C_10  and  S_11
REMARK    8  A    between atoms: S_11  and  C_14
REMARK    9  A    between atoms: C_17  and  C_18
REMARK   10  A    between atoms: C_21  and  C_22
REMARK   11  A    between atoms: N_28  and  O_29
REMARK                            x       y       z     vdW  Elec       q    Type
REMARK                         _______ _______ _______ _____ _____    ______ ____
ROOT
ATOM      1  C   UNL     1      -0.574  10.514  20.773  0.00  0.00    +0.000 C 
ENDROOT
BRANCH   1   2
ATOM      2  S   UNL     1       0.221   9.182  21.627  0.00  0.00    +0.000 S 
ATOM      3  O   UNL     1       1.091   9.717  22.672  0.00  0.00    +0.000 OA
ATOM      4  O   UNL     1      -0.803   8.222  21.968  0.00  0.00    +0.000 OA
BRANCH   2   5
ATOM      5  C   UNL     1       1.286   8.358  20.479  0.00  0.00    +0.000 A 
ATOM      6  C   UNL     1       1.728   7.062  20.749  0.00  0.00    +0.000 A 
ATOM      7  C   UNL     1       2.484   6.386  19.798  0.00  0.00    +0.000 A 
ATOM      8  C   UNL     1       2.792   6.978  18.563  0.00  0.00    +0.000 A 
ATOM      9  C   UNL     1       2.305   8.273  18.312  0.00  0.00    +0.000 A 
ATOM     10  C   UNL     1       1.563   8.968  19.263  0.00  0.00    +0.000 A 
BRANCH   8  11
ATOM     11  C   UNL     1       3.602   6.267  17.562  0.00  0.00    +0.000 A 
ATOM     12  C   UNL     1       3.582   4.864  17.463  0.00  0.00    +0.000 A 
ATOM     13  C   UNL     1       4.383   4.197  16.537  0.00  0.00    +0.000 A 
ATOM     14  C   UNL     1       5.200   4.926  15.672  0.00  0.00    +0.000 A 
ATOM     15  C   UNL     1       5.222   6.319  15.739  0.00  0.00    +0.000 A 
ATOM     16  C   UNL     1       4.439   6.978  16.683  0.00  0.00    +0.000 A 
BRANCH  14  17
ATOM     17  C   UNL     1       6.029   4.247  14.726  0.00  0.00    +0.000 C 
ATOM     18  N   UNL     1       6.695   3.697  13.956  0.00  0.00    +0.000 NA
ENDBRANCH  14  17
ENDBRANCH   8  11
ENDBRANCH   2   5
ENDBRANCH   1   2
BRANCH   1  19
ATOM     19  C   UNL     1      -0.335  11.942  21.287  0.00  0.00    +0.000 C 
BRANCH  19  20
ATOM     20  N   UNL     1       0.994  12.462  20.881  0.00  0.00    +0.000 N 
ATOM     21  C   UNL     1       1.302  12.720  19.552  0.00  0.00    +0.000 C 
ATOM     22  O   UNL     1       0.657  12.347  18.581  0.00  0.00    +0.000 OA
BRANCH  20  23
ATOM     23  O   UNL     1       1.446  13.563  21.666  0.00  0.00    +0.000 OA
ATOM     24  H   UNL     1       1.214  14.332  21.093  0.00  0.00    +0.000 HD
ENDBRANCH  20  23
ENDBRANCH  19  20
BRANCH  19  25
ATOM     25  C   UNL     1      -1.463  12.975  20.948  0.00  0.00    +0.000 C 
BRANCH  25  32
ATOM     26  C   UNL     1      -2.998  14.846  25.313  0.00  0.00    +0.000 C 
ATOM     27  C   UNL     1      -3.291  13.999  24.087  0.00  0.00    +0.000 C 
ATOM     28  C   UNL     1      -4.007  12.722  24.539  0.00  0.00    +0.000 C 
ATOM     29  N   UNL     1      -4.041  14.542  22.980  0.00  0.00    +0.000 N 
ATOM     30  C   UNL     1      -3.603  13.964  21.791  0.00  0.00    +0.000 C 
ATOM     31  O   UNL     1      -4.230  13.997  20.730  0.00  0.00    +0.000 OA
ATOM     32  N   UNL     1      -2.370  13.390  22.014  0.00  0.00    +0.000 N 
ATOM     33  C   UNL     1      -2.011  13.787  23.265  0.00  0.00    +0.000 C 
ATOM     34  O   UNL     1      -0.869  13.967  23.660  0.00  0.00    +0.000 OA
ATOM     35  H   UNL     1      -5.004  14.863  23.040  0.00  0.00    +0.000 HD
ENDBRANCH  25  32
ENDBRANCH  19  25
ENDBRANCH   1  19
TORSDOF 9
ENDMDL
MODEL 9
REMARK VINA RESULT:      -7.5      4.016      9.870
REMARK  Name = 
REMARK  11 active torsions:
REMARK  status: ('A' for Active; 'I' for Inactive)
REMARK    1  A    between atoms: C_1  and  C_2
REMARK    2  A    between atoms: C_2  and  C_3
REMARK    3  A    between atoms: N_7  and  C_8
REMARK    4  A    between atoms: C_8  and  C_9
REMARK    5  A    between atoms: C_9  and  C_10
REMARK    6  A    between atoms: C_9  and  N_28
REMARK    7  A    between atoms: C_10  and  S_11
REMARK    8  A    between atoms: S_11  and  C_14
REMARK    9  A    between atoms: C_17  and  C_18
REMARK   10  A    between atoms: C_21  and  C_22
REMARK   11  A    between atoms: N_28  and  O_29
REMARK                            x       y       z     vdW  Elec       q    Type
REMARK                         _______ _______ _______ _____ _____    ______ ____
ROOT
ATOM      1  C   UNL     1      -0.361  10.492  20.514  0.00  0.00    +0.000 C 
ENDROOT
BRANCH   1   2
ATOM      2  S   UNL     1       0.407   9.147  21.370  0.00  0.00    +0.000 S 
ATOM      3  O   UNL     1       1.269   9.665  22.431  0.00  0.00    +0.000 OA
ATOM      4  O   UNL     1      -0.633   8.196  21.692  0.00  0.00    +0.000 OA
BRANCH   2   5
ATOM      5  C   UNL     1       1.478   8.316  20.232  0.00  0.00    +0.000 A 
ATOM      6  C   UNL     1       1.955   7.040  20.533  0.00  0.00    +0.000 A 
ATOM      7  C   UNL     1       2.716   6.356  19.592  0.00  0.00    +0.000 A 
ATOM      8  C   UNL     1       2.994   6.920  18.337  0.00  0.00    +0.000 A 
ATOM      9  C   UNL     1       2.473   8.195  18.056  0.00  0.00    +0.000 A 
ATOM     10  C   UNL     1       1.725   8.898  18.996  0.00  0.00    +0.000 A 
BRANCH   8  11
ATOM     11  C   UNL     1       3.810   6.201  17.345  0.00  0.00    +0.000 A 
ATOM     12  C   UNL     1       4.596   6.889  16.404  0.00  0.00    +0.000 A 
ATOM     13  C   UNL     1       5.335   6.200  15.444  0.00  0.00    +0.000 A 
ATOM     14  C   UNL     1       5.322   4.804  15.426  0.00  0.00    +0.000 A 
ATOM     15  C   UNL     1       4.565   4.100  16.362  0.00  0.00    +0.000 A 
ATOM     16  C   UNL     1       3.809   4.795  17.302  0.00  0.00    +0.000 A 
BRANCH  14  17
ATOM     17  C   UNL     1       6.072   4.092  14.439  0.00  0.00    +0.000 C 
ATOM     18  N   UNL     1       6.676   3.519  13.635  0.00  0.00    +0.000 NA
ENDBRANCH  14  17
ENDBRANCH   8  11
ENDBRANCH   2   5
ENDBRANCH   1   2
BRANCH   1  19
ATOM     19  C   UNL     1       0.381  11.837  20.475  0.00  0.00    +0.000 C 
BRANCH  19  20
ATOM     20  N   UNL     1       0.322  12.465  19.132  0.00  0.00    +0.000 N 
ATOM     21  C   UNL     1       1.474  12.786  18.426  0.00  0.00    +0.000 C 
ATOM     22  O   UNL     1       2.608  12.824  18.883  0.00  0.00    +0.000 OA
BRANCH  20  23
ATOM     23  O   UNL     1      -0.588  11.828  18.239  0.00  0.00    +0.000 OA
ATOM     24  H   UNL     1      -1.449  11.941  18.709  0.00  0.00    +0.000 HD
ENDBRANCH  20  23
ENDBRANCH  19  20
BRANCH  19  25
ATOM     25  C   UNL     1      -0.029  12.862  21.587  0.00  0.00    +0.000 C 
BRANCH  25  32
ATOM     26  C   UNL     1      -5.002  13.275  21.463  0.00  0.00    +0.000 C 
ATOM     27  C   UNL     1      -3.720  13.241  22.277  0.00  0.00    +0.000 C 
ATOM     28  C   UNL     1      -3.792  14.340  23.344  0.00  0.00    +0.000 C 
ATOM     29  N   UNL     1      -3.302  12.029  22.939  0.00  0.00    +0.000 N 
ATOM     30  C   UNL     1      -1.911  11.977  22.981  0.00  0.00    +0.000 C 
ATOM     31  O   UNL     1      -1.265  11.232  23.723  0.00  0.00    +0.000 OA
ATOM     32  N   UNL     1      -1.413  12.866  22.053  0.00  0.00    +0.000 N 
ATOM     33  C   UNL     1      -2.497  13.295  21.351  0.00  0.00    +0.000 C 
ATOM     34  O   UNL     1      -2.501  13.641  20.179  0.00  0.00    +0.000 OA
ATOM     35  H   UNL     1      -3.830  11.561  23.672  0.00  0.00    +0.000 HD
ENDBRANCH  25  32
ENDBRANCH  19  25
ENDBRANCH   1  19
TORSDOF 9
ENDMDL
