MODEL 1
REMARK VINA RESULT:      -8.9      0.000      0.000
REMARK  Name = 
REMARK  4 active torsions:
REMARK  status: ('A' for Active; 'I' for Inactive)
REMARK    1  A    between atoms: C_2  and  C_19
REMARK    2  A    between atoms: N_3  and  C_4
REMARK    3  A    between atoms: C_9  and  C_10
REMARK    4  A    between atoms: C_14  and  N_15
REMARK                            x       y       z     vdW  Elec       q    Type
REMARK                         _______ _______ _______ _____ _____    ______ ____
ROOT
ATOM      1  C   UNL     1       4.901   5.231  16.473  0.00  0.00    +0.000 C 
ATOM      2  C   UNL     1       5.116   6.727  16.598  0.00  0.00    +0.000 C 
ATOM      3  O   UNL     1       4.242   7.580  16.629  0.00  0.00    +0.000 OA
ATOM      4  N   UNL     1       6.469   6.937  16.778  0.00  0.00    +0.000 N 
ATOM      5  N   UNL     1       7.244   5.761  16.725  0.00  0.00    +0.000 NA
ATOM      6  C   UNL     1       6.330   4.723  16.170  0.00  0.00    +0.000 C 
ATOM      7  H   UNL     1       6.868   7.867  16.858  0.00  0.00    +0.000 HD
ATOM      8  H   UNL     1       7.387   5.472  17.710  0.00  0.00    +0.000 HD
ENDROOT
BRANCH   6   9
ATOM      9  C   UNL     1       6.617   4.501  14.690  0.00  0.00    +0.000 A 
ATOM     10  C   UNL     1       7.650   5.223  14.067  0.00  0.00    +0.000 A 
ATOM     11  C   UNL     1       7.881   5.110  12.694  0.00  0.00    +0.000 A 
ATOM     12  C   UNL     1       7.083   4.272  11.917  0.00  0.00    +0.000 A 
ATOM     13  C   UNL     1       6.063   3.533  12.528  0.00  0.00    +0.000 A 
ATOM     14  C   UNL     1       5.834   3.637  13.905  0.00  0.00    +0.000 A 
BRANCH  13  15
ATOM     15  N   UNL     1       5.202   2.663  11.719  0.00  0.00    +0.000 N 
ATOM     16  O   UNL     1       4.081   3.091  11.410  0.00  0.00    +0.000 OA
ATOM     17  O   UNL     1       5.646   1.555  11.384  0.00  0.00    +0.000 OA
ENDBRANCH  13  15
ENDBRANCH   6   9
BRANCH   1  20
ATOM     18  O   UNL     1       2.563   3.543  16.681  0.00  0.00    +0.000 OA
ATOM     19  C   UNL     1       3.152   3.906  17.695  0.00  0.00    +0.000 C 
ATOM     20  N   UNL     1       4.253   4.737  17.695  0.00  0.00    +0.000 N 
ATOM     21  H   UNL     1       4.865   4.672  18.501  0.00  0.00    +0.000 HD
BRANCH  19  22
ATOM     22  C   UNL     1       2.684   3.433  19.023  0.00  0.00    +0.000 A 
ATOM     23  C   UNL     1       1.332   3.595  19.352  0.00  0.00    +0.000 A 
ATOM     24  C   UNL     1       0.863   3.179  20.596  0.00  0.00    +0.000 A 
ATOM     25  C   UNL     1       1.742   2.608  21.516  0.00  0.00    +0.000 A 
ATOM     26  C   UNL     1       3.093   2.461  21.200  0.00  0.00    +0.000 A 
ATOM     27  C   UNL     1       3.568   2.878  19.956  0.00  0.00    +0.000 A 
ENDBRANCH  19  22
ENDBRANCH   1  20
TORSDOF 4
ENDMDL
MODEL 2
REMARK VINA RESULT:      -8.8      0.642      1.188
REMARK  Name = 
REMARK  4 active torsions:
REMARK  status: ('A' for Active; 'I' for Inactive)
REMARK    1  A    between atoms: C_2  and  C_19
REMARK    2  A    between atoms: N_3  and  C_4
REMARK    3  A    between atoms: C_9  and  C_10
REMARK    4  A    between atoms: C_14  and  N_15
REMARK                            x       y       z     vdW  Elec       q    Type
REMARK                         _______ _______ _______ _____ _____    ______ ____
ROOT
ATOM      1  C   UNL     1       5.396   5.326  16.686  0.00  0.00    +0.000 C 
ATOM      2  C   UNL     1       6.264   6.504  17.087  0.00  0.00    +0.000 C 
ATOM      3  O   UNL     1       5.874   7.637  17.323  0.00  0.00    +0.000 OA
ATOM      4  N   UNL     1       7.554   6.036  17.238  0.00  0.00    +0.000 N 
ATOM      5  N   UNL     1       7.709   4.671  16.922  0.00  0.00    +0.000 NA
ATOM      6  C   UNL     1       6.450   4.292  16.223  0.00  0.00    +0.000 C 
ATOM      7  H   UNL     1       8.329   6.647  17.476  0.00  0.00    +0.000 HD
ATOM      8  H   UNL     1       7.660   4.165  17.825  0.00  0.00    +0.000 HD
ENDROOT
BRANCH   6   9
ATOM      9  C   UNL     1       6.671   4.254  14.715  0.00  0.00    +0.000 A 
ATOM     10  C   UNL     1       7.624   5.107  14.132  0.00  0.00    +0.000 A 
ATOM     11  C   UNL     1       7.789   5.161  12.746  0.00  0.00    +0.000 A 
ATOM     12  C   UNL     1       7.003   4.364  11.916  0.00  0.00    +0.000 A 
ATOM     13  C   UNL     1       6.063   3.497  12.485  0.00  0.00    +0.000 A 
ATOM     14  C   UNL     1       5.901   3.433  13.874  0.00  0.00    +0.000 A 
BRANCH  13  15
ATOM     15  N   UNL     1       5.213   2.668  11.622  0.00  0.00    +0.000 N 
ATOM     16  O   UNL     1       4.125   3.138  11.265  0.00  0.00    +0.000 OA
ATOM     17  O   UNL     1       5.636   1.549  11.294  0.00  0.00    +0.000 OA
ENDBRANCH  13  15
ENDBRANCH   6   9
BRANCH   1  20
ATOM     18  O   UNL     1       3.151   3.506  16.690  0.00  0.00    +0.000 OA
ATOM     19  C   UNL     1       3.504   4.049  17.733  0.00  0.00    +0.000 C 
ATOM     20  N   UNL     1       4.540   4.956  17.820  0.00  0.00    +0.000 N 
ATOM     21  H   UNL     1       4.979   5.049  18.730  0.00  0.00    +0.000 HD
BRANCH  19  22
ATOM     22  C   UNL     1       2.801   3.727  19.001  0.00  0.00    +0.000 A 
ATOM     23  C   UNL     1       3.485   2.986  19.973  0.00  0.00    +0.000 A 
ATOM     24  C   UNL     1       2.849   2.650  21.168  0.00  0.00    +0.000 A 
ATOM     25  C   UNL     1       1.530   3.045  21.389  0.00  0.00    +0.000 A 
ATOM     26  C   UNL     1       0.839   3.767  20.415  0.00  0.00    +0.000 A 
ATOM     27  C   UNL     1       1.470   4.104  19.218  0.00  0.00    +0.000 A 
ENDBRANCH  19  22
ENDBRANCH   1  20
TORSDOF 4
ENDMDL
MODEL 3
REMARK VINA RESULT:      -8.7      0.926      1.144
REMARK  Name = 
REMARK  4 active torsions:
REMARK  status: ('A' for Active; 'I' for Inactive)
REMARK    1  A    between atoms: C_2  and  C_19
REMARK    2  A    between atoms: N_3  and  C_4
REMARK    3  A    between atoms: C_9  and  C_10
REMARK    4  A    between atoms: C_14  and  N_15
REMARK                            x       y       z     vdW  Elec       q    Type
REMARK                         _______ _______ _______ _____ _____    ______ ____
ROOT
ATOM      1  C   UNL     1       5.398   5.471  16.495  0.00  0.00    +0.000 C 
ATOM      2  C   UNL     1       6.348   6.580  16.905  0.00  0.00    +0.000 C 
ATOM      3  O   UNL     1       6.048   7.745  17.113  0.00  0.00    +0.000 OA
ATOM      4  N   UNL     1       7.589   6.009  17.104  0.00  0.00    +0.000 N 
ATOM      5  N   UNL     1       7.640   4.630  16.814  0.00  0.00    +0.000 NA
ATOM      6  C   UNL     1       6.375   4.345  16.080  0.00  0.00    +0.000 C 
ATOM      7  H   UNL     1       8.405   6.557  17.358  0.00  0.00    +0.000 HD
ATOM      8  H   UNL     1       7.521   4.145  17.722  0.00  0.00    +0.000 HD
ENDROOT
BRANCH   6   9
ATOM      9  C   UNL     1       6.638   4.263  14.581  0.00  0.00    +0.000 A 
ATOM     10  C   UNL     1       7.579   5.128  13.993  0.00  0.00    +0.000 A 
ATOM     11  C   UNL     1       7.779   5.140  12.611  0.00  0.00    +0.000 A 
ATOM     12  C   UNL     1       7.043   4.289  11.789  0.00  0.00    +0.000 A 
ATOM     13  C   UNL     1       6.117   3.410  12.364  0.00  0.00    +0.000 A 
ATOM     14  C   UNL     1       5.919   3.388  13.750  0.00  0.00    +0.000 A 
BRANCH  13  15
ATOM     15  N   UNL     1       5.319   2.524  11.509  0.00  0.00    +0.000 N 
ATOM     16  O   UNL     1       5.806   1.426  11.206  0.00  0.00    +0.000 OA
ATOM     17  O   UNL     1       4.201   2.919  11.145  0.00  0.00    +0.000 OA
ENDBRANCH  13  15
ENDBRANCH   6   9
BRANCH   1  20
ATOM     18  O   UNL     1       3.250   3.539  16.575  0.00  0.00    +0.000 OA
ATOM     19  C   UNL     1       3.498   4.225  17.563  0.00  0.00    +0.000 C 
ATOM     20  N   UNL     1       4.480   5.193  17.606  0.00  0.00    +0.000 N 
ATOM     21  H   UNL     1       4.845   5.421  18.524  0.00  0.00    +0.000 HD
BRANCH  19  22
ATOM     22  C   UNL     1       2.720   4.019  18.812  0.00  0.00    +0.000 A 
ATOM     23  C   UNL     1       1.583   3.202  18.763  0.00  0.00    +0.000 A 
ATOM     24  C   UNL     1       0.819   3.002  19.912  0.00  0.00    +0.000 A 
ATOM     25  C   UNL     1       1.183   3.623  21.106  0.00  0.00    +0.000 A 
ATOM     26  C   UNL     1       2.304   4.452  21.155  0.00  0.00    +0.000 A 
ATOM     27  C   UNL     1       3.071   4.657  20.008  0.00  0.00    +0.000 A 
ENDBRANCH  19  22
ENDBRANCH   1  20
TORSDOF 4
ENDMDL
MODEL 4
REMARK VINA RESULT:      -8.4      1.059      1.241
REMARK  Name = 
REMARK  4 active torsions:
REMARK  status: ('A' for Active; 'I' for Inactive)
REMARK    1  A    between atoms: C_2  and  C_19
REMARK    2  A    between atoms: N_3  and  C_4
REMARK    3  A    between atoms: C_9  and  C_10
REMARK    4  A    between atoms: C_14  and  N_15
REMARK                            x       y       z     vdW  Elec       q    Type
REMARK                         _______ _______ _______ _____ _____    ______ ____
ROOT
ATOM      1  C   UNL     1       4.880   5.029  16.471  0.00  0.00    +0.000 C 
ATOM      2  C   UNL     1       5.496   6.342  16.914  0.00  0.00    +0.000 C 
ATOM      3  O   UNL     1       4.903   7.397  17.076  0.00  0.00    +0.000 OA
ATOM      4  N   UNL     1       6.824   6.100  17.201  0.00  0.00    +0.000 N 
ATOM      5  N   UNL     1       7.234   4.776  16.946  0.00  0.00    +0.000 NA
ATOM      6  C   UNL     1       6.131   4.179  16.143  0.00  0.00    +0.000 C 
ATOM      7  H   UNL     1       7.460   6.836  17.493  0.00  0.00    +0.000 HD
ATOM      8  H   UNL     1       7.181   4.283  17.856  0.00  0.00    +0.000 HD
ENDROOT
BRANCH   6   9
ATOM      9  C   UNL     1       6.503   4.155  14.665  0.00  0.00    +0.000 A 
ATOM     10  C   UNL     1       7.466   5.056  14.178  0.00  0.00    +0.000 A 
ATOM     11  C   UNL     1       7.765   5.121  12.815  0.00  0.00    +0.000 A 
ATOM     12  C   UNL     1       7.108   4.286  11.913  0.00  0.00    +0.000 A 
ATOM     13  C   UNL     1       6.160   3.372  12.388  0.00  0.00    +0.000 A 
ATOM     14  C   UNL     1       5.863   3.298  13.755  0.00  0.00    +0.000 A 
BRANCH  13  15
ATOM     15  N   UNL     1       5.444   2.502  11.448  0.00  0.00    +0.000 N 
ATOM     16  O   UNL     1       6.015   1.469  11.071  0.00  0.00    +0.000 OA
ATOM     17  O   UNL     1       4.307   2.845  11.090  0.00  0.00    +0.000 OA
ENDBRANCH  13  15
ENDBRANCH   6   9
BRANCH   1  20
ATOM     18  O   UNL     1       5.619   3.952  19.050  0.00  0.00    +0.000 OA
ATOM     19  C   UNL     1       4.434   4.067  18.748  0.00  0.00    +0.000 C 
ATOM     20  N   UNL     1       3.989   4.538  17.530  0.00  0.00    +0.000 N 
ATOM     21  H   UNL     1       3.057   4.936  17.517  0.00  0.00    +0.000 HD
BRANCH  19  22
ATOM     22  C   UNL     1       3.388   3.696  19.734  0.00  0.00    +0.000 A 
ATOM     23  C   UNL     1       2.180   4.404  19.724  0.00  0.00    +0.000 A 
ATOM     24  C   UNL     1       1.183   4.094  20.648  0.00  0.00    +0.000 A 
ATOM     25  C   UNL     1       1.393   3.084  21.586  0.00  0.00    +0.000 A 
ATOM     26  C   UNL     1       2.603   2.389  21.612  0.00  0.00    +0.000 A 
ATOM     27  C   UNL     1       3.604   2.696  20.691  0.00  0.00    +0.000 A 
ENDBRANCH  19  22
ENDBRANCH   1  20
TORSDOF 4
ENDMDL
MODEL 5
REMARK VINA RESULT:      -8.4      2.543      3.243
REMARK  Name = 
REMARK  4 active torsions:
REMARK  status: ('A' for Active; 'I' for Inactive)
REMARK    1  A    between atoms: C_2  and  C_19
REMARK    2  A    between atoms: N_3  and  C_4
REMARK    3  A    between atoms: C_9  and  C_10
REMARK    4  A    between atoms: C_14  and  N_15
REMARK                            x       y       z     vdW  Elec       q    Type
REMARK                         _______ _______ _______ _____ _____    ______ ____
ROOT
ATOM      1  C   UNL     1       5.664   6.182  16.509  0.00  0.00    +0.000 C 
ATOM      2  C   UNL     1       6.702   5.737  17.522  0.00  0.00    +0.000 C 
ATOM      3  O   UNL     1       7.483   6.462  18.118  0.00  0.00    +0.000 OA
ATOM      4  N   UNL     1       6.529   4.382  17.723  0.00  0.00    +0.000 N 
ATOM      5  N   UNL     1       5.530   3.804  16.915  0.00  0.00    +0.000 NA
ATOM      6  C   UNL     1       5.224   4.836  15.884  0.00  0.00    +0.000 C 
ATOM      7  H   UNL     1       7.128   3.844  18.341  0.00  0.00    +0.000 HD
ATOM      8  H   UNL     1       4.676   3.771  17.501  0.00  0.00    +0.000 HD
ENDROOT
BRANCH   6   9
ATOM      9  C   UNL     1       5.921   4.496  14.571  0.00  0.00    +0.000 A 
ATOM     10  C   UNL     1       7.105   5.167  14.220  0.00  0.00    +0.000 A 
ATOM     11  C   UNL     1       7.719   4.944  12.986  0.00  0.00    +0.000 A 
ATOM     12  C   UNL     1       7.161   4.046  12.078  0.00  0.00    +0.000 A 
ATOM     13  C   UNL     1       5.992   3.359  12.423  0.00  0.00    +0.000 A 
ATOM     14  C   UNL     1       5.377   3.572  13.663  0.00  0.00    +0.000 A 
BRANCH  13  15
ATOM     15  N   UNL     1       5.380   2.427  11.468  0.00  0.00    +0.000 N 
ATOM     16  O   UNL     1       6.027   1.417  11.156  0.00  0.00    +0.000 OA
ATOM     17  O   UNL     1       4.249   2.697  11.036  0.00  0.00    +0.000 OA
ENDBRANCH  13  15
ENDBRANCH   6   9
BRANCH   1  20
ATOM     18  O   UNL     1       3.320   5.221  17.900  0.00  0.00    +0.000 OA
ATOM     19  C   UNL     1       3.562   6.424  17.861  0.00  0.00    +0.000 C 
ATOM     20  N   UNL     1       4.637   6.975  17.194  0.00  0.00    +0.000 N 
ATOM     21  H   UNL     1       4.951   7.882  17.522  0.00  0.00    +0.000 HD
BRANCH  19  22
ATOM     22  C   UNL     1       2.671   7.374  18.575  0.00  0.00    +0.000 A 
ATOM     23  C   UNL     1       2.247   8.527  17.900  0.00  0.00    +0.000 A 
ATOM     24  C   UNL     1       1.425   9.449  18.546  0.00  0.00    +0.000 A 
ATOM     25  C   UNL     1       1.032   9.227  19.865  0.00  0.00    +0.000 A 
ATOM     26  C   UNL     1       1.467   8.090  20.547  0.00  0.00    +0.000 A 
ATOM     27  C   UNL     1       2.291   7.165  19.906  0.00  0.00    +0.000 A 
ENDBRANCH  19  22
ENDBRANCH   1  20
TORSDOF 4
ENDMDL
MODEL 6
REMARK VINA RESULT:      -8.3      3.718      7.470
REMARK  Name = 
REMARK  4 active torsions:
REMARK  status: ('A' for Active; 'I' for Inactive)
REMARK    1  A    between atoms: C_2  and  C_19
REMARK    2  A    between atoms: N_3  and  C_4
REMARK    3  A    between atoms: C_9  and  C_10
REMARK    4  A    between atoms: C_14  and  N_15
REMARK                            x       y       z     vdW  Elec       q    Type
REMARK                         _______ _______ _______ _____ _____    ______ ____
ROOT
ATOM      1  C   UNL     1       6.181   6.218  17.143  0.00  0.00    +0.000 C 
ATOM      2  C   UNL     1       7.143   5.410  16.293  0.00  0.00    +0.000 C 
ATOM      3  O   UNL     1       7.423   5.623  15.123  0.00  0.00    +0.000 OA
ATOM      4  N   UNL     1       7.720   4.460  17.111  0.00  0.00    +0.000 N 
ATOM      5  N   UNL     1       7.225   4.460  18.430  0.00  0.00    +0.000 NA
ATOM      6  C   UNL     1       6.000   5.307  18.381  0.00  0.00    +0.000 C 
ATOM      7  H   UNL     1       8.383   3.774  16.763  0.00  0.00    +0.000 HD
ATOM      8  H   UNL     1       7.898   5.020  18.985  0.00  0.00    +0.000 HD
ENDROOT
BRANCH   6   9
ATOM      9  C   UNL     1       4.752   4.432  18.338  0.00  0.00    +0.000 A 
ATOM     10  C   UNL     1       4.106   4.205  17.110  0.00  0.00    +0.000 A 
ATOM     11  C   UNL     1       2.912   3.482  17.049  0.00  0.00    +0.000 A 
ATOM     12  C   UNL     1       2.340   2.974  18.214  0.00  0.00    +0.000 A 
ATOM     13  C   UNL     1       2.983   3.179  19.440  0.00  0.00    +0.000 A 
ATOM     14  C   UNL     1       4.185   3.894  19.506  0.00  0.00    +0.000 A 
BRANCH  13  15
ATOM     15  N   UNL     1       2.382   2.668  20.678  0.00  0.00    +0.000 N 
ATOM     16  O   UNL     1       1.152   2.525  20.703  0.00  0.00    +0.000 OA
ATOM     17  O   UNL     1       3.139   2.401  21.624  0.00  0.00    +0.000 OA
ENDBRANCH  13  15
ENDBRANCH   6   9
BRANCH   1  20
ATOM     18  O   UNL     1       8.421   6.934  18.825  0.00  0.00    +0.000 OA
ATOM     19  C   UNL     1       7.844   7.797  18.169  0.00  0.00    +0.000 C 
ATOM     20  N   UNL     1       6.748   7.554  17.367  0.00  0.00    +0.000 N 
ATOM     21  H   UNL     1       6.591   8.212  16.611  0.00  0.00    +0.000 HD
BRANCH  19  22
ATOM     22  C   UNL     1       8.336   9.197  18.207  0.00  0.00    +0.000 A 
ATOM     23  C   UNL     1       9.318   9.534  19.148  0.00  0.00    +0.000 A 
ATOM     24  C   UNL     1       9.789  10.844  19.225  0.00  0.00    +0.000 A 
ATOM     25  C   UNL     1       9.276  11.819  18.370  0.00  0.00    +0.000 A 
ATOM     26  C   UNL     1       8.284  11.492  17.444  0.00  0.00    +0.000 A 
ATOM     27  C   UNL     1       7.808  10.183  17.365  0.00  0.00    +0.000 A 
ENDBRANCH  19  22
ENDBRANCH   1  20
TORSDOF 4
ENDMDL
MODEL 7
REMARK VINA RESULT:      -8.2      4.288      6.233
REMARK  Name = 
REMARK  4 active torsions:
REMARK  status: ('A' for Active; 'I' for Inactive)
REMARK    1  A    between atoms: C_2  and  C_19
REMARK    2  A    between atoms: N_3  and  C_4
REMARK    3  A    between atoms: C_9  and  C_10
REMARK    4  A    between atoms: C_14  and  N_15
REMARK                            x       y       z     vdW  Elec       q    Type
REMARK                         _______ _______ _______ _____ _____    ______ ____
ROOT
ATOM      1  C   UNL     1       2.647   5.805  20.060  0.00  0.00    +0.000 C 
ATOM      2  C   UNL     1       2.171   4.449  20.546  0.00  0.00    +0.000 C 
ATOM      3  O   UNL     1       2.305   4.000  21.674  0.00  0.00    +0.000 OA
ATOM      4  N   UNL     1       1.466   3.865  19.513  0.00  0.00    +0.000 N 
ATOM      5  N   UNL     1       1.449   4.625  18.327  0.00  0.00    +0.000 NA
ATOM      6  C   UNL     1       2.488   5.674  18.527  0.00  0.00    +0.000 C 
ATOM      7  H   UNL     1       1.069   2.933  19.585  0.00  0.00    +0.000 HD
ATOM      8  H   UNL     1       0.555   5.149  18.339  0.00  0.00    +0.000 HD
ENDROOT
BRANCH   6   9
ATOM      9  C   UNL     1       3.770   5.297  17.793  0.00  0.00    +0.000 A 
ATOM     10  C   UNL     1       3.804   4.129  17.010  0.00  0.00    +0.000 A 
ATOM     11  C   UNL     1       4.986   3.708  16.397  0.00  0.00    +0.000 A 
ATOM     12  C   UNL     1       6.158   4.445  16.555  0.00  0.00    +0.000 A 
ATOM     13  C   UNL     1       6.133   5.619  17.317  0.00  0.00    +0.000 A 
ATOM     14  C   UNL     1       4.948   6.050  17.926  0.00  0.00    +0.000 A 
BRANCH  13  15
ATOM     15  N   UNL     1       7.364   6.394  17.510  0.00  0.00    +0.000 N 
ATOM     16  O   UNL     1       7.782   7.059  16.552  0.00  0.00    +0.000 OA
ATOM     17  O   UNL     1       7.912   6.347  18.622  0.00  0.00    +0.000 OA
ENDBRANCH  13  15
ENDBRANCH   6   9
BRANCH   1  20
ATOM     18  O   UNL     1       2.138   8.497  19.139  0.00  0.00    +0.000 OA
ATOM     19  C   UNL     1       1.654   8.108  20.199  0.00  0.00    +0.000 C 
ATOM     20  N   UNL     1       1.870   6.854  20.732  0.00  0.00    +0.000 N 
ATOM     21  H   UNL     1       1.162   6.511  21.373  0.00  0.00    +0.000 HD
BRANCH  19  22
ATOM     22  C   UNL     1       0.768   9.012  20.975  0.00  0.00    +0.000 A 
ATOM     23  C   UNL     1       0.106  10.043  20.297  0.00  0.00    +0.000 A 
ATOM     24  C   UNL     1      -0.719  10.921  20.998  0.00  0.00    +0.000 A 
ATOM     25  C   UNL     1      -0.877  10.777  22.376  0.00  0.00    +0.000 A 
ATOM     26  C   UNL     1      -0.205   9.763  23.058  0.00  0.00    +0.000 A 
ATOM     27  C   UNL     1       0.623   8.883  22.362  0.00  0.00    +0.000 A 
ENDBRANCH  19  22
ENDBRANCH   1  20
TORSDOF 4
ENDMDL
MODEL 8
REMARK VINA RESULT:      -8.2      4.178      5.560
REMARK  Name = 
REMARK  4 active torsions:
REMARK  status: ('A' for Active; 'I' for Inactive)
REMARK    1  A    between atoms: C_2  and  C_19
REMARK    2  A    between atoms: N_3  and  C_4
REMARK    3  A    between atoms: C_9  and  C_10
REMARK    4  A    between atoms: C_14  and  N_15
REMARK                            x       y       z     vdW  Elec       q    Type
REMARK                         _______ _______ _______ _____ _____    ______ ____
ROOT
ATOM      1  C   UNL     1       3.111   5.836  19.966  0.00  0.00    +0.000 C 
ATOM      2  C   UNL     1       2.332   4.536  20.021  0.00  0.00    +0.000 C 
ATOM      3  O   UNL     1       2.055   3.904  21.029  0.00  0.00    +0.000 OA
ATOM      4  N   UNL     1       1.905   4.255  18.738  0.00  0.00    +0.000 N 
ATOM      5  N   UNL     1       2.352   5.176  17.770  0.00  0.00    +0.000 NA
ATOM      6  C   UNL     1       3.411   5.970  18.454  0.00  0.00    +0.000 C 
ATOM      7  H   UNL     1       1.383   3.414  18.511  0.00  0.00    +0.000 HD
ATOM      8  H   UNL     1       1.575   5.850  17.640  0.00  0.00    +0.000 HD
ENDROOT
BRANCH   6   9
ATOM      9  C   UNL     1       4.793   5.476  18.042  0.00  0.00    +0.000 A 
ATOM     10  C   UNL     1       5.799   5.338  19.015  0.00  0.00    +0.000 A 
ATOM     11  C   UNL     1       7.099   4.974  18.658  0.00  0.00    +0.000 A 
ATOM     12  C   UNL     1       7.420   4.740  17.322  0.00  0.00    +0.000 A 
ATOM     13  C   UNL     1       6.423   4.856  16.346  0.00  0.00    +0.000 A 
ATOM     14  C   UNL     1       5.116   5.213  16.700  0.00  0.00    +0.000 A 
BRANCH  13  15
ATOM     15  N   UNL     1       6.750   4.634  14.933  0.00  0.00    +0.000 N 
ATOM     16  O   UNL     1       7.617   5.357  14.423  0.00  0.00    +0.000 OA
ATOM     17  O   UNL     1       6.148   3.732  14.332  0.00  0.00    +0.000 OA
ENDBRANCH  13  15
ENDBRANCH   6   9
BRANCH   1  20
ATOM     18  O   UNL     1       2.107   8.254  18.740  0.00  0.00    +0.000 OA
ATOM     19  C   UNL     1       1.851   8.008  19.916  0.00  0.00    +0.000 C 
ATOM     20  N   UNL     1       2.313   6.898  20.592  0.00  0.00    +0.000 N 
ATOM     21  H   UNL     1       1.766   6.600  21.392  0.00  0.00    +0.000 HD
BRANCH  19  22
ATOM     22  C   UNL     1       0.982   8.935  20.686  0.00  0.00    +0.000 A 
ATOM     23  C   UNL     1       0.929   8.797  22.079  0.00  0.00    +0.000 A 
ATOM     24  C   UNL     1       0.110   9.638  22.831  0.00  0.00    +0.000 A 
ATOM     25  C   UNL     1      -0.661  10.610  22.194  0.00  0.00    +0.000 A 
ATOM     26  C   UNL     1      -0.626  10.737  20.805  0.00  0.00    +0.000 A 
ATOM     27  C   UNL     1       0.190   9.897  20.048  0.00  0.00    +0.000 A 
ENDBRANCH  19  22
ENDBRANCH   1  20
TORSDOF 4
ENDMDL
MODEL 9
REMARK VINA RESULT:      -8.1      4.283      6.277
REMARK  Name = 
REMARK  4 active torsions:
REMARK  status: ('A' for Active; 'I' for Inactive)
REMARK    1  A    between atoms: C_2  and  C_19
REMARK    2  A    between atoms: N_3  and  C_4
REMARK    3  A    between atoms: C_9  and  C_10
REMARK    4  A    between atoms: C_14  and  N_15
REMARK                            x       y       z     vdW  Elec       q    Type
REMARK                         _______ _______ _______ _____ _____    ______ ____
ROOT
ATOM      1  C   UNL     1       2.630   5.812  20.061  0.00  0.00    +0.000 C 
ATOM      2  C   UNL     1       2.138   4.464  20.552  0.00  0.00    +0.000 C 
ATOM      3  O   UNL     1       2.268   4.018  21.682  0.00  0.00    +0.000 OA
ATOM      4  N   UNL     1       1.427   3.883  19.522  0.00  0.00    +0.000 N 
ATOM      5  N   UNL     1       1.418   4.639  18.332  0.00  0.00    +0.000 NA
ATOM      6  C   UNL     1       2.469   5.676  18.528  0.00  0.00    +0.000 C 
ATOM      7  H   UNL     1       1.019   2.956  19.598  0.00  0.00    +0.000 HD
ATOM      8  H   UNL     1       0.530   5.173  18.343  0.00  0.00    +0.000 HD
ENDROOT
BRANCH   6   9
ATOM      9  C   UNL     1       3.746   5.282  17.795  0.00  0.00    +0.000 A 
ATOM     10  C   UNL     1       3.771   4.102  17.030  0.00  0.00    +0.000 A 
ATOM     11  C   UNL     1       4.949   3.666  16.420  0.00  0.00    +0.000 A 
ATOM     12  C   UNL     1       6.126   4.400  16.562  0.00  0.00    +0.000 A 
ATOM     13  C   UNL     1       6.109   5.585  17.307  0.00  0.00    +0.000 A 
ATOM     14  C   UNL     1       4.929   6.031  17.913  0.00  0.00    +0.000 A 
BRANCH  13  15
ATOM     15  N   UNL     1       7.345   6.357  17.484  0.00  0.00    +0.000 N 
ATOM     16  O   UNL     1       7.914   6.287  18.581  0.00  0.00    +0.000 OA
ATOM     17  O   UNL     1       7.753   7.028  16.524  0.00  0.00    +0.000 OA
ENDBRANCH  13  15
ENDBRANCH   6   9
BRANCH   1  20
ATOM     18  O   UNL     1       2.154   8.507  19.131  0.00  0.00    +0.000 OA
ATOM     19  C   UNL     1       1.665   8.127  20.191  0.00  0.00    +0.000 C 
ATOM     20  N   UNL     1       1.865   6.872  20.729  0.00  0.00    +0.000 N 
ATOM     21  H   UNL     1       1.152   6.540  21.370  0.00  0.00    +0.000 HD
BRANCH  19  22
ATOM     22  C   UNL     1       0.789   9.044  20.964  0.00  0.00    +0.000 A 
ATOM     23  C   UNL     1       0.677   8.852  22.347  0.00  0.00    +0.000 A 
ATOM     24  C   UNL     1      -0.151   9.683  23.100  0.00  0.00    +0.000 A 
ATOM     25  C   UNL     1      -0.873  10.699  22.475  0.00  0.00    +0.000 A 
ATOM     26  C   UNL     1      -0.779  10.881  21.095  0.00  0.00    +0.000 A 
ATOM     27  C   UNL     1       0.046  10.052  20.336  0.00  0.00    +0.000 A 
ENDBRANCH  19  22
ENDBRANCH   1  20
TORSDOF 4
ENDMDL
