MODEL 1
REMARK VINA RESULT:      -9.0      0.000      0.000
REMARK  Name = 
REMARK  9 active torsions:
REMARK  status: ('A' for Active; 'I' for Inactive)
REMARK    1  A    between atoms: C_1  and  C_2
REMARK    2  A    between atoms: C_2  and  C_3
REMARK    3  A    between atoms: N_8  and  C_9
REMARK    4  A    between atoms: C_9  and  C_10
REMARK    5  A    between atoms: C_10  and  C_11
REMARK    6  A    between atoms: N_13  and  C_14
REMARK    7  A    between atoms: C_18  and  C_19
REMARK    8  A    between atoms: C_19  and  O_21
REMARK    9  A    between atoms: C_25  and  C_26
REMARK                            x       y       z     vdW  Elec       q    Type
REMARK                         _______ _______ _______ _____ _____    ______ ____
ROOT
ATOM      1  C   UNL     1       2.290   8.263  18.538  0.00  0.00    +0.000 C 
ATOM      2  C   UNL     1       2.528   6.965  18.778  0.00  0.00    +0.000 C 
ATOM      3  S   UNL     1       1.684   5.931  19.860  0.00  0.00    +0.000 S 
ATOM      4  C   UNL     1       2.857   4.637  19.688  0.00  0.00    +0.000 C 
ATOM      5  S   UNL     1       2.764   3.251  20.613  0.00  0.00    +0.000 S 
ATOM      6  N   UNL     1       3.794   4.977  18.733  0.00  0.00    +0.000 N 
ATOM      7  C   UNL     1       3.646   6.223  18.141  0.00  0.00    +0.000 C 
ATOM      8  O   UNL     1       4.340   6.682  17.243  0.00  0.00    +0.000 OA
ENDROOT
BRANCH   1  10
ATOM      9  C   UNL     1       0.276   9.746  18.288  0.00  0.00    +0.000 C 
ATOM     10  C   UNL     1       1.280   9.086  19.191  0.00  0.00    +0.000 C 
ATOM     11  C   UNL     1       1.306   9.252  20.528  0.00  0.00    +0.000 C 
BRANCH  11  12
ATOM     12  C   UNL     1       0.355  10.044  21.305  0.00  0.00    +0.000 A 
ATOM     13  C   UNL     1      -0.134   9.569  22.526  0.00  0.00    +0.000 A 
ATOM     14  C   UNL     1      -0.997  10.358  23.287  0.00  0.00    +0.000 A 
ATOM     15  C   UNL     1      -1.372  11.622  22.832  0.00  0.00    +0.000 A 
ATOM     16  C   UNL     1      -0.892  12.094  21.610  0.00  0.00    +0.000 A 
ATOM     17  C   UNL     1      -0.032  11.307  20.846  0.00  0.00    +0.000 A 
ENDBRANCH  11  12
ENDBRANCH   1  10
BRANCH   6  18
ATOM     18  C   UNL     1       4.845   4.079  18.243  0.00  0.00    +0.000 C 
BRANCH  18  19
ATOM     19  C   UNL     1       6.257   4.663  18.354  0.00  0.00    +0.000 C 
BRANCH  19  20
ATOM     20  C   UNL     1       6.979   4.516  17.027  0.00  0.00    +0.000 C 
ATOM     21  O   UNL     1       8.144   4.133  16.976  0.00  0.00    +0.000 OA
ATOM     22  N   UNL     1       6.195   4.871  15.940  0.00  0.00    +0.000 N 
ATOM     23  H   UNL     1       5.316   5.338  16.130  0.00  0.00    +0.000 HD
BRANCH  22  24
ATOM     24  C   UNL     1       6.556   4.725  14.581  0.00  0.00    +0.000 A 
ATOM     25  C   UNL     1       7.563   5.477  13.974  0.00  0.00    +0.000 A 
ATOM     26  C   UNL     1       7.904   5.284  12.634  0.00  0.00    +0.000 A 
ATOM     27  C   UNL     1       7.230   4.336  11.872  0.00  0.00    +0.000 A 
ATOM     28  C   UNL     1       6.202   3.589  12.456  0.00  0.00    +0.000 A 
ATOM     29  C   UNL     1       5.887   3.761  13.816  0.00  0.00    +0.000 A 
BRANCH  28  30
ATOM     30  C   UNL     1       5.440   2.576  11.681  0.00  0.00    +0.000 C 
ATOM     31  O   UNL     1       5.915   1.502  11.356  0.00  0.00    +0.000 OA
BRANCH  30  32
ATOM     32  O   UNL     1       4.166   2.932  11.410  0.00  0.00    +0.000 OA
ATOM     33  H   UNL     1       3.731   2.429  10.698  0.00  0.00    +0.000 HD
ENDBRANCH  30  32
ENDBRANCH  28  30
ENDBRANCH  22  24
ENDBRANCH  19  20
ENDBRANCH  18  19
ENDBRANCH   6  18
TORSDOF 8
ENDMDL
MODEL 2
REMARK VINA RESULT:      -8.1      3.219      9.191
REMARK  Name = 
REMARK  9 active torsions:
REMARK  status: ('A' for Active; 'I' for Inactive)
REMARK    1  A    between atoms: C_1  and  C_2
REMARK    2  A    between atoms: C_2  and  C_3
REMARK    3  A    between atoms: N_8  and  C_9
REMARK    4  A    between atoms: C_9  and  C_10
REMARK    5  A    between atoms: C_10  and  C_11
REMARK    6  A    between atoms: N_13  and  C_14
REMARK    7  A    between atoms: C_18  and  C_19
REMARK    8  A    between atoms: C_19  and  O_21
REMARK    9  A    between atoms: C_25  and  C_26
REMARK                            x       y       z     vdW  Elec       q    Type
REMARK                         _______ _______ _______ _____ _____    ______ ____
ROOT
ATOM      1  C   UNL     1       5.643   4.553  17.599  0.00  0.00    +0.000 C 
ATOM      2  C   UNL     1       4.649   3.796  18.088  0.00  0.00    +0.000 C 
ATOM      3  S   UNL     1       3.415   2.994  17.203  0.00  0.00    +0.000 S 
ATOM      4  C   UNL     1       2.517   2.575  18.653  0.00  0.00    +0.000 C 
ATOM      5  S   UNL     1       1.019   1.844  18.566  0.00  0.00    +0.000 S 
ATOM      6  N   UNL     1       3.230   2.954  19.772  0.00  0.00    +0.000 N 
ATOM      7  C   UNL     1       4.446   3.582  19.544  0.00  0.00    +0.000 C 
ATOM      8  O   UNL     1       5.242   3.945  20.400  0.00  0.00    +0.000 OA
ENDROOT
BRANCH   1  10
ATOM      9  C   UNL     1       5.232   6.176  15.724  0.00  0.00    +0.000 C 
ATOM     10  C   UNL     1       5.854   4.892  16.197  0.00  0.00    +0.000 C 
ATOM     11  C   UNL     1       6.540   4.053  15.397  0.00  0.00    +0.000 C 
BRANCH  11  12
ATOM     12  C   UNL     1       6.826   4.274  13.980  0.00  0.00    +0.000 A 
ATOM     13  C   UNL     1       6.182   3.512  13.000  0.00  0.00    +0.000 A 
ATOM     14  C   UNL     1       6.418   3.769  11.649  0.00  0.00    +0.000 A 
ATOM     15  C   UNL     1       7.295   4.787  11.275  0.00  0.00    +0.000 A 
ATOM     16  C   UNL     1       7.945   5.543  12.252  0.00  0.00    +0.000 A 
ATOM     17  C   UNL     1       7.712   5.287  13.603  0.00  0.00    +0.000 A 
ENDBRANCH  11  12
ENDBRANCH   1  10
BRANCH   6  18
ATOM     18  C   UNL     1       2.838   2.645  21.151  0.00  0.00    +0.000 C 
BRANCH  18  19
ATOM     19  C   UNL     1       2.262   3.843  21.913  0.00  0.00    +0.000 C 
BRANCH  19  20
ATOM     20  C   UNL     1       1.684   4.846  20.932  0.00  0.00    +0.000 C 
ATOM     21  O   UNL     1       0.573   4.682  20.437  0.00  0.00    +0.000 OA
ATOM     22  N   UNL     1       2.539   5.905  20.670  0.00  0.00    +0.000 N 
ATOM     23  H   UNL     1       3.493   5.830  21.004  0.00  0.00    +0.000 HD
BRANCH  22  24
ATOM     24  C   UNL     1       2.226   7.045  19.894  0.00  0.00    +0.000 A 
ATOM     25  C   UNL     1       2.576   7.171  18.549  0.00  0.00    +0.000 A 
ATOM     26  C   UNL     1       2.226   8.304  17.812  0.00  0.00    +0.000 A 
ATOM     27  C   UNL     1       1.526   9.341  18.418  0.00  0.00    +0.000 A 
ATOM     28  C   UNL     1       1.187   9.244  19.772  0.00  0.00    +0.000 A 
ATOM     29  C   UNL     1       1.509   8.084  20.500  0.00  0.00    +0.000 A 
BRANCH  28  30
ATOM     30  C   UNL     1       0.454  10.331  20.470  0.00  0.00    +0.000 C 
ATOM     31  O   UNL     1       0.217  11.406  19.948  0.00  0.00    +0.000 OA
BRANCH  30  32
ATOM     32  O   UNL     1       0.037  10.006  21.713  0.00  0.00    +0.000 OA
ATOM     33  H   UNL     1      -0.302  10.745  22.250  0.00  0.00    +0.000 HD
ENDBRANCH  30  32
ENDBRANCH  28  30
ENDBRANCH  22  24
ENDBRANCH  19  20
ENDBRANCH  18  19
ENDBRANCH   6  18
TORSDOF 8
ENDMDL
MODEL 3
REMARK VINA RESULT:      -8.1      0.802      1.452
REMARK  Name = 
REMARK  9 active torsions:
REMARK  status: ('A' for Active; 'I' for Inactive)
REMARK    1  A    between atoms: C_1  and  C_2
REMARK    2  A    between atoms: C_2  and  C_3
REMARK    3  A    between atoms: N_8  and  C_9
REMARK    4  A    between atoms: C_9  and  C_10
REMARK    5  A    between atoms: C_10  and  C_11
REMARK    6  A    between atoms: N_13  and  C_14
REMARK    7  A    between atoms: C_18  and  C_19
REMARK    8  A    between atoms: C_19  and  O_21
REMARK    9  A    between atoms: C_25  and  C_26
REMARK                            x       y       z     vdW  Elec       q    Type
REMARK                         _______ _______ _______ _____ _____    ______ ____
ROOT
ATOM      1  C   UNL     1       1.902   8.550  19.254  0.00  0.00    +0.000 C 
ATOM      2  C   UNL     1       2.178   7.240  19.330  0.00  0.00    +0.000 C 
ATOM      3  S   UNL     1       1.560   6.107  20.464  0.00  0.00    +0.000 S 
ATOM      4  C   UNL     1       2.671   4.848  19.955  0.00  0.00    +0.000 C 
ATOM      5  S   UNL     1       2.757   3.388  20.758  0.00  0.00    +0.000 S 
ATOM      6  N   UNL     1       3.403   5.280  18.867  0.00  0.00    +0.000 N 
ATOM      7  C   UNL     1       3.146   6.569  18.424  0.00  0.00    +0.000 C 
ATOM      8  O   UNL     1       3.651   7.112  17.451  0.00  0.00    +0.000 OA
ENDROOT
BRANCH   1  10
ATOM      9  C   UNL     1       0.914   8.757  21.555  0.00  0.00    +0.000 C 
ATOM     10  C   UNL     1       1.044   9.302  20.160  0.00  0.00    +0.000 C 
ATOM     11  C   UNL     1       0.391  10.395  19.720  0.00  0.00    +0.000 C 
BRANCH  11  12
ATOM     12  C   UNL     1      -0.494  11.238  20.523  0.00  0.00    +0.000 A 
ATOM     13  C   UNL     1      -1.672  11.755  19.975  0.00  0.00    +0.000 A 
ATOM     14  C   UNL     1      -2.538  12.510  20.766  0.00  0.00    +0.000 A 
ATOM     15  C   UNL     1      -2.230  12.749  22.106  0.00  0.00    +0.000 A 
ATOM     16  C   UNL     1      -1.052  12.240  22.653  0.00  0.00    +0.000 A 
ATOM     17  C   UNL     1      -0.183  11.487  21.863  0.00  0.00    +0.000 A 
ENDBRANCH  11  12
ENDBRANCH   1  10
BRANCH   6  18
ATOM     18  C   UNL     1       4.334   4.440  18.105  0.00  0.00    +0.000 C 
BRANCH  18  19
ATOM     19  C   UNL     1       5.809   4.725  18.406  0.00  0.00    +0.000 C 
BRANCH  19  20
ATOM     20  C   UNL     1       6.624   4.617  17.131  0.00  0.00    +0.000 C 
ATOM     21  O   UNL     1       7.834   4.416  17.164  0.00  0.00    +0.000 OA
ATOM     22  N   UNL     1       5.863   4.783  15.984  0.00  0.00    +0.000 N 
ATOM     23  H   UNL     1       4.913   5.119  16.098  0.00  0.00    +0.000 HD
BRANCH  22  24
ATOM     24  C   UNL     1       6.323   4.618  14.657  0.00  0.00    +0.000 A 
ATOM     25  C   UNL     1       7.420   5.308  14.140  0.00  0.00    +0.000 A 
ATOM     26  C   UNL     1       7.857   5.097  12.830  0.00  0.00    +0.000 A 
ATOM     27  C   UNL     1       7.189   4.194  12.010  0.00  0.00    +0.000 A 
ATOM     28  C   UNL     1       6.073   3.511  12.502  0.00  0.00    +0.000 A 
ATOM     29  C   UNL     1       5.660   3.700  13.834  0.00  0.00    +0.000 A 
BRANCH  28  30
ATOM     30  C   UNL     1       5.316   2.549  11.662  0.00  0.00    +0.000 C 
ATOM     31  O   UNL     1       4.230   2.814  11.175  0.00  0.00    +0.000 OA
BRANCH  30  32
ATOM     32  O   UNL     1       5.955   1.379  11.449  0.00  0.00    +0.000 OA
ATOM     33  H   UNL     1       6.063   0.809  12.232  0.00  0.00    +0.000 HD
ENDBRANCH  30  32
ENDBRANCH  28  30
ENDBRANCH  22  24
ENDBRANCH  19  20
ENDBRANCH  18  19
ENDBRANCH   6  18
TORSDOF 8
ENDMDL
MODEL 4
REMARK VINA RESULT:      -8.1      5.299     11.703
REMARK  Name = 
REMARK  9 active torsions:
REMARK  status: ('A' for Active; 'I' for Inactive)
REMARK    1  A    between atoms: C_1  and  C_2
REMARK    2  A    between atoms: C_2  and  C_3
REMARK    3  A    between atoms: N_8  and  C_9
REMARK    4  A    between atoms: C_9  and  C_10
REMARK    5  A    between atoms: C_10  and  C_11
REMARK    6  A    between atoms: N_13  and  C_14
REMARK    7  A    between atoms: C_18  and  C_19
REMARK    8  A    between atoms: C_19  and  O_21
REMARK    9  A    between atoms: C_25  and  C_26
REMARK                            x       y       z     vdW  Elec       q    Type
REMARK                         _______ _______ _______ _____ _____    ______ ____
ROOT
ATOM      1  C   UNL     1       2.411   8.193  18.051  0.00  0.00    +0.000 C 
ATOM      2  C   UNL     1       1.817   9.045  18.900  0.00  0.00    +0.000 C 
ATOM      3  S   UNL     1       1.233   8.708  20.480  0.00  0.00    +0.000 S 
ATOM      4  C   UNL     1       0.428  10.261  20.617  0.00  0.00    +0.000 C 
ATOM      5  S   UNL     1      -0.535  10.628  21.929  0.00  0.00    +0.000 S 
ATOM      6  N   UNL     1       0.715  11.037  19.512  0.00  0.00    +0.000 N 
ATOM      7  C   UNL     1       1.525  10.458  18.546  0.00  0.00    +0.000 C 
ATOM      8  O   UNL     1       1.931  10.999  17.526  0.00  0.00    +0.000 OA
ENDROOT
BRANCH   1  10
ATOM      9  C   UNL     1       4.073   6.314  18.199  0.00  0.00    +0.000 C 
ATOM     10  C   UNL     1       2.644   6.773  18.282  0.00  0.00    +0.000 C 
ATOM     11  C   UNL     1       1.605   5.948  18.513  0.00  0.00    +0.000 C 
BRANCH  11  12
ATOM     12  C   UNL     1       1.701   4.511  18.763  0.00  0.00    +0.000 A 
ATOM     13  C   UNL     1       1.357   3.984  20.012  0.00  0.00    +0.000 A 
ATOM     14  C   UNL     1       1.396   2.605  20.223  0.00  0.00    +0.000 A 
ATOM     15  C   UNL     1       1.778   1.751  19.188  0.00  0.00    +0.000 A 
ATOM     16  C   UNL     1       2.129   2.275  17.944  0.00  0.00    +0.000 A 
ATOM     17  C   UNL     1       2.093   3.653  17.731  0.00  0.00    +0.000 A 
ENDBRANCH  11  12
ENDBRANCH   1  10
BRANCH   6  18
ATOM     18  C   UNL     1       0.313  12.439  19.353  0.00  0.00    +0.000 C 
BRANCH  18  19
ATOM     19  C   UNL     1      -0.801  12.649  18.323  0.00  0.00    +0.000 C 
BRANCH  19  20
ATOM     20  C   UNL     1      -2.123  12.165  18.890  0.00  0.00    +0.000 C 
ATOM     21  O   UNL     1      -2.526  11.025  18.679  0.00  0.00    +0.000 OA
ATOM     22  N   UNL     1      -2.787  13.136  19.624  0.00  0.00    +0.000 N 
ATOM     23  H   UNL     1      -2.434  14.085  19.572  0.00  0.00    +0.000 HD
BRANCH  22  24
ATOM     24  C   UNL     1      -3.975  12.940  20.366  0.00  0.00    +0.000 A 
ATOM     25  C   UNL     1      -5.205  12.650  19.773  0.00  0.00    +0.000 A 
ATOM     26  C   UNL     1      -6.349  12.440  20.544  0.00  0.00    +0.000 A 
ATOM     27  C   UNL     1      -6.282  12.530  21.930  0.00  0.00    +0.000 A 
ATOM     28  C   UNL     1      -5.064  12.843  22.542  0.00  0.00    +0.000 A 
ATOM     29  C   UNL     1      -3.906  13.017  21.762  0.00  0.00    +0.000 A 
BRANCH  28  30
ATOM     30  C   UNL     1      -4.943  12.968  24.017  0.00  0.00    +0.000 C 
ATOM     31  O   UNL     1      -4.958  12.003  24.762  0.00  0.00    +0.000 OA
BRANCH  30  32
ATOM     32  O   UNL     1      -4.769  14.234  24.452  0.00  0.00    +0.000 OA
ATOM     33  H   UNL     1      -4.273  14.821  23.852  0.00  0.00    +0.000 HD
ENDBRANCH  30  32
ENDBRANCH  28  30
ENDBRANCH  22  24
ENDBRANCH  19  20
ENDBRANCH  18  19
ENDBRANCH   6  18
TORSDOF 8
ENDMDL
MODEL 5
REMARK VINA RESULT:      -7.8      5.807     12.395
REMARK  Name = 
REMARK  9 active torsions:
REMARK  status: ('A' for Active; 'I' for Inactive)
REMARK    1  A    between atoms: C_1  and  C_2
REMARK    2  A    between atoms: C_2  and  C_3
REMARK    3  A    between atoms: N_8  and  C_9
REMARK    4  A    between atoms: C_9  and  C_10
REMARK    5  A    between atoms: C_10  and  C_11
REMARK    6  A    between atoms: N_13  and  C_14
REMARK    7  A    between atoms: C_18  and  C_19
REMARK    8  A    between atoms: C_19  and  O_21
REMARK    9  A    between atoms: C_25  and  C_26
REMARK                            x       y       z     vdW  Elec       q    Type
REMARK                         _______ _______ _______ _____ _____    ______ ____
ROOT
ATOM      1  C   UNL     1       2.334   8.295  18.108  0.00  0.00    +0.000 C 
ATOM      2  C   UNL     1       1.717   8.845  19.165  0.00  0.00    +0.000 C 
ATOM      3  S   UNL     1       1.491   8.152  20.720  0.00  0.00    +0.000 S 
ATOM      4  C   UNL     1       0.399   9.426  21.234  0.00  0.00    +0.000 C 
ATOM      5  S   UNL     1      -0.390   9.354  22.702  0.00  0.00    +0.000 S 
ATOM      6  N   UNL     1       0.322  10.400  20.258  0.00  0.00    +0.000 N 
ATOM      7  C   UNL     1       1.069  10.180  19.109  0.00  0.00    +0.000 C 
ATOM      8  O   UNL     1       1.171  10.945  18.159  0.00  0.00    +0.000 OA
ENDROOT
BRANCH   1  10
ATOM      9  C   UNL     1       4.284   6.850  17.455  0.00  0.00    +0.000 C 
ATOM     10  C   UNL     1       2.908   6.956  18.050  0.00  0.00    +0.000 C 
ATOM     11  C   UNL     1       2.194   5.897  18.480  0.00  0.00    +0.000 C 
BRANCH  11  12
ATOM     12  C   UNL     1       2.651   4.509  18.481  0.00  0.00    +0.000 A 
ATOM     13  C   UNL     1       3.445   4.024  19.525  0.00  0.00    +0.000 A 
ATOM     14  C   UNL     1       3.828   2.682  19.546  0.00  0.00    +0.000 A 
ATOM     15  C   UNL     1       3.418   1.823  18.526  0.00  0.00    +0.000 A 
ATOM     16  C   UNL     1       2.633   2.307  17.480  0.00  0.00    +0.000 A 
ATOM     17  C   UNL     1       2.250   3.648  17.455  0.00  0.00    +0.000 A 
ENDBRANCH  11  12
ENDBRANCH   1  10
BRANCH   6  18
ATOM     18  C   UNL     1      -0.397  11.669  20.405  0.00  0.00    +0.000 C 
BRANCH  18  19
ATOM     19  C   UNL     1      -1.717  11.724  19.630  0.00  0.00    +0.000 C 
BRANCH  19  20
ATOM     20  C   UNL     1      -2.717  12.586  20.378  0.00  0.00    +0.000 C 
ATOM     21  O   UNL     1      -2.351  13.536  21.063  0.00  0.00    +0.000 OA
ATOM     22  N   UNL     1      -4.029  12.168  20.207  0.00  0.00    +0.000 N 
ATOM     23  H   UNL     1      -4.179  11.269  19.764  0.00  0.00    +0.000 HD
BRANCH  22  24
ATOM     24  C   UNL     1      -5.177  12.843  20.682  0.00  0.00    +0.000 A 
ATOM     25  C   UNL     1      -5.884  13.774  19.920  0.00  0.00    +0.000 A 
ATOM     26  C   UNL     1      -7.028  14.400  20.419  0.00  0.00    +0.000 A 
ATOM     27  C   UNL     1      -7.478  14.110  21.703  0.00  0.00    +0.000 A 
ATOM     28  C   UNL     1      -6.769  13.197  22.491  0.00  0.00    +0.000 A 
ATOM     29  C   UNL     1      -5.638  12.542  21.970  0.00  0.00    +0.000 A 
BRANCH  28  30
ATOM     30  C   UNL     1      -7.197  12.866  23.873  0.00  0.00    +0.000 C 
ATOM     31  O   UNL     1      -7.915  13.597  24.533  0.00  0.00    +0.000 OA
BRANCH  30  32
ATOM     32  O   UNL     1      -6.760  11.667  24.315  0.00  0.00    +0.000 OA
ATOM     33  H   UNL     1      -6.165  11.693  25.086  0.00  0.00    +0.000 HD
ENDBRANCH  30  32
ENDBRANCH  28  30
ENDBRANCH  22  24
ENDBRANCH  19  20
ENDBRANCH  18  19
ENDBRANCH   6  18
TORSDOF 8
ENDMDL
MODEL 6
REMARK VINA RESULT:      -7.7      3.860      6.932
REMARK  Name = 
REMARK  9 active torsions:
REMARK  status: ('A' for Active; 'I' for Inactive)
REMARK    1  A    between atoms: C_1  and  C_2
REMARK    2  A    between atoms: C_2  and  C_3
REMARK    3  A    between atoms: N_8  and  C_9
REMARK    4  A    between atoms: C_9  and  C_10
REMARK    5  A    between atoms: C_10  and  C_11
REMARK    6  A    between atoms: N_13  and  C_14
REMARK    7  A    between atoms: C_18  and  C_19
REMARK    8  A    between atoms: C_19  and  O_21
REMARK    9  A    between atoms: C_25  and  C_26
REMARK                            x       y       z     vdW  Elec       q    Type
REMARK                         _______ _______ _______ _____ _____    ______ ____
ROOT
ATOM      1  C   UNL     1      -1.938  11.802  23.464  0.00  0.00    +0.000 C 
ATOM      2  C   UNL     1      -1.049  11.507  22.504  0.00  0.00    +0.000 C 
ATOM      3  S   UNL     1      -0.938  12.198  20.935  0.00  0.00    +0.000 S 
ATOM      4  C   UNL     1       0.248  11.021  20.397  0.00  0.00    +0.000 C 
ATOM      5  S   UNL     1       0.771  10.976  18.813  0.00  0.00    +0.000 S 
ATOM      6  N   UNL     1       0.612  10.206  21.451  0.00  0.00    +0.000 N 
ATOM      7  C   UNL     1      -0.017  10.451  22.664  0.00  0.00    +0.000 C 
ATOM      8  O   UNL     1       0.206   9.874  23.720  0.00  0.00    +0.000 OA
ENDROOT
BRANCH   1  10
ATOM      9  C   UNL     1      -2.739  14.164  23.769  0.00  0.00    +0.000 C 
ATOM     10  C   UNL     1      -3.038  12.751  23.353  0.00  0.00    +0.000 C 
ATOM     11  C   UNL     1      -4.249  12.334  22.935  0.00  0.00    +0.000 C 
BRANCH  11  12
ATOM     12  C   UNL     1      -5.431  13.180  22.776  0.00  0.00    +0.000 A 
ATOM     13  C   UNL     1      -5.668  13.849  21.572  0.00  0.00    +0.000 A 
ATOM     14  C   UNL     1      -6.828  14.607  21.410  0.00  0.00    +0.000 A 
ATOM     15  C   UNL     1      -7.753  14.698  22.450  0.00  0.00    +0.000 A 
ATOM     16  C   UNL     1      -7.515  14.037  23.655  0.00  0.00    +0.000 A 
ATOM     17  C   UNL     1      -6.355  13.280  23.820  0.00  0.00    +0.000 A 
ENDBRANCH  11  12
ENDBRANCH   1  10
BRANCH   6  18
ATOM     18  C   UNL     1       1.673   9.196  21.392  0.00  0.00    +0.000 C 
BRANCH  18  19
ATOM     19  C   UNL     1       1.166   7.786  21.070  0.00  0.00    +0.000 C 
BRANCH  19  20
ATOM     20  C   UNL     1       1.862   7.262  19.827  0.00  0.00    +0.000 C 
ATOM     21  O   UNL     1       2.166   8.012  18.905  0.00  0.00    +0.000 OA
ATOM     22  N   UNL     1       2.080   5.893  19.864  0.00  0.00    +0.000 N 
ATOM     23  H   UNL     1       1.623   5.366  20.600  0.00  0.00    +0.000 HD
BRANCH  22  24
ATOM     24  C   UNL     1       2.809   5.149  18.908  0.00  0.00    +0.000 A 
ATOM     25  C   UNL     1       2.228   4.168  18.102  0.00  0.00    +0.000 A 
ATOM     26  C   UNL     1       2.979   3.472  17.153  0.00  0.00    +0.000 A 
ATOM     27  C   UNL     1       4.335   3.741  17.003  0.00  0.00    +0.000 A 
ATOM     28  C   UNL     1       4.941   4.704  17.818  0.00  0.00    +0.000 A 
ATOM     29  C   UNL     1       4.171   5.428  18.747  0.00  0.00    +0.000 A 
BRANCH  28  30
ATOM     30  C   UNL     1       6.388   5.016  17.709  0.00  0.00    +0.000 C 
ATOM     31  O   UNL     1       6.814   5.933  17.028  0.00  0.00    +0.000 OA
BRANCH  30  32
ATOM     32  O   UNL     1       7.182   4.226  18.463  0.00  0.00    +0.000 OA
ATOM     33  H   UNL     1       7.995   4.645  18.800  0.00  0.00    +0.000 HD
ENDBRANCH  30  32
ENDBRANCH  28  30
ENDBRANCH  22  24
ENDBRANCH  19  20
ENDBRANCH  18  19
ENDBRANCH   6  18
TORSDOF 8
ENDMDL
MODEL 7
REMARK VINA RESULT:      -7.7      5.499     12.282
REMARK  Name = 
REMARK  9 active torsions:
REMARK  status: ('A' for Active; 'I' for Inactive)
REMARK    1  A    between atoms: C_1  and  C_2
REMARK    2  A    between atoms: C_2  and  C_3
REMARK    3  A    between atoms: N_8  and  C_9
REMARK    4  A    between atoms: C_9  and  C_10
REMARK    5  A    between atoms: C_10  and  C_11
REMARK    6  A    between atoms: N_13  and  C_14
REMARK    7  A    between atoms: C_18  and  C_19
REMARK    8  A    between atoms: C_19  and  O_21
REMARK    9  A    between atoms: C_25  and  C_26
REMARK                            x       y       z     vdW  Elec       q    Type
REMARK                         _______ _______ _______ _____ _____    ______ ____
ROOT
ATOM      1  C   UNL     1       2.185   8.187  18.199  0.00  0.00    +0.000 C 
ATOM      2  C   UNL     1       1.619   8.770  19.267  0.00  0.00    +0.000 C 
ATOM      3  S   UNL     1       1.480   8.131  20.855  0.00  0.00    +0.000 S 
ATOM      4  C   UNL     1       0.406   9.415  21.380  0.00  0.00    +0.000 C 
ATOM      5  S   UNL     1      -0.306   9.390  22.889  0.00  0.00    +0.000 S 
ATOM      6  N   UNL     1       0.270  10.353  20.376  0.00  0.00    +0.000 N 
ATOM      7  C   UNL     1       0.957  10.098  19.198  0.00  0.00    +0.000 C 
ATOM      8  O   UNL     1       1.004  10.829  18.218  0.00  0.00    +0.000 OA
ENDROOT
BRANCH   1  10
ATOM      9  C   UNL     1       4.143   6.745  17.562  0.00  0.00    +0.000 C 
ATOM     10  C   UNL     1       2.767   6.851  18.158  0.00  0.00    +0.000 C 
ATOM     11  C   UNL     1       2.061   5.794  18.604  0.00  0.00    +0.000 C 
BRANCH  11  12
ATOM     12  C   UNL     1       2.526   4.408  18.623  0.00  0.00    +0.000 A 
ATOM     13  C   UNL     1       2.240   3.549  17.557  0.00  0.00    +0.000 A 
ATOM     14  C   UNL     1       2.738   2.246  17.557  0.00  0.00    +0.000 A 
ATOM     15  C   UNL     1       3.522   1.798  18.621  0.00  0.00    +0.000 A 
ATOM     16  C   UNL     1       3.801   2.651  19.689  0.00  0.00    +0.000 A 
ATOM     17  C   UNL     1       3.303   3.954  19.692  0.00  0.00    +0.000 A 
ENDBRANCH  11  12
ENDBRANCH   1  10
BRANCH   6  18
ATOM     18  C   UNL     1      -0.453  11.622  20.516  0.00  0.00    +0.000 C 
BRANCH  18  19
ATOM     19  C   UNL     1       0.252  12.637  21.422  0.00  0.00    +0.000 C 
BRANCH  19  20
ATOM     20  C   UNL     1      -0.778  13.435  22.199  0.00  0.00    +0.000 C 
ATOM     21  O   UNL     1      -0.448  14.161  23.131  0.00  0.00    +0.000 OA
ATOM     22  N   UNL     1      -2.074  13.231  21.751  0.00  0.00    +0.000 N 
ATOM     23  H   UNL     1      -2.228  12.473  21.094  0.00  0.00    +0.000 HD
BRANCH  22  24
ATOM     24  C   UNL     1      -3.221  13.924  22.201  0.00  0.00    +0.000 A 
ATOM     25  C   UNL     1      -3.315  15.317  22.209  0.00  0.00    +0.000 A 
ATOM     26  C   UNL     1      -4.476  15.962  22.640  0.00  0.00    +0.000 A 
ATOM     27  C   UNL     1      -5.564  15.217  23.083  0.00  0.00    +0.000 A 
ATOM     28  C   UNL     1      -5.480  13.821  23.105  0.00  0.00    +0.000 A 
ATOM     29  C   UNL     1      -4.322  13.176  22.635  0.00  0.00    +0.000 A 
BRANCH  28  30
ATOM     30  C   UNL     1      -6.607  12.982  23.584  0.00  0.00    +0.000 C 
ATOM     31  O   UNL     1      -6.929  11.939  23.041  0.00  0.00    +0.000 OA
BRANCH  30  32
ATOM     32  O   UNL     1      -7.211  13.450  24.698  0.00  0.00    +0.000 OA
ATOM     33  H   UNL     1      -7.240  12.834  25.452  0.00  0.00    +0.000 HD
ENDBRANCH  30  32
ENDBRANCH  28  30
ENDBRANCH  22  24
ENDBRANCH  19  20
ENDBRANCH  18  19
ENDBRANCH   6  18
TORSDOF 8
ENDMDL
MODEL 8
REMARK VINA RESULT:      -7.6      5.256     11.898
REMARK  Name = 
REMARK  9 active torsions:
REMARK  status: ('A' for Active; 'I' for Inactive)
REMARK    1  A    between atoms: C_1  and  C_2
REMARK    2  A    between atoms: C_2  and  C_3
REMARK    3  A    between atoms: N_8  and  C_9
REMARK    4  A    between atoms: C_9  and  C_10
REMARK    5  A    between atoms: C_10  and  C_11
REMARK    6  A    between atoms: N_13  and  C_14
REMARK    7  A    between atoms: C_18  and  C_19
REMARK    8  A    between atoms: C_19  and  O_21
REMARK    9  A    between atoms: C_25  and  C_26
REMARK                            x       y       z     vdW  Elec       q    Type
REMARK                         _______ _______ _______ _____ _____    ______ ____
ROOT
ATOM      1  C   UNL     1       2.479   8.073  18.097  0.00  0.00    +0.000 C 
ATOM      2  C   UNL     1       1.875   8.934  18.930  0.00  0.00    +0.000 C 
ATOM      3  S   UNL     1       1.306   8.623  20.521  0.00  0.00    +0.000 S 
ATOM      4  C   UNL     1       0.475  10.166  20.627  0.00  0.00    +0.000 C 
ATOM      5  S   UNL     1      -0.487  10.546  21.936  0.00  0.00    +0.000 S 
ATOM      6  N   UNL     1       0.743  10.921  19.503  0.00  0.00    +0.000 N 
ATOM      7  C   UNL     1       1.558  10.334  18.546  0.00  0.00    +0.000 C 
ATOM      8  O   UNL     1       1.949  10.858  17.511  0.00  0.00    +0.000 OA
ENDROOT
BRANCH   1  10
ATOM      9  C   UNL     1       4.135   6.314  18.789  0.00  0.00    +0.000 C 
ATOM     10  C   UNL     1       2.738   6.663  18.359  0.00  0.00    +0.000 C 
ATOM     11  C   UNL     1       1.762   5.753  18.175  0.00  0.00    +0.000 C 
BRANCH  11  12
ATOM     12  C   UNL     1       1.888   4.315  18.404  0.00  0.00    +0.000 A 
ATOM     13  C   UNL     1       1.395   3.738  19.579  0.00  0.00    +0.000 A 
ATOM     14  C   UNL     1       1.467   2.356  19.762  0.00  0.00    +0.000 A 
ATOM     15  C   UNL     1       2.031   1.549  18.774  0.00  0.00    +0.000 A 
ATOM     16  C   UNL     1       2.531   2.124  17.605  0.00  0.00    +0.000 A 
ATOM     17  C   UNL     1       2.462   3.504  17.420  0.00  0.00    +0.000 A 
ENDBRANCH  11  12
ENDBRANCH   1  10
BRANCH   6  18
ATOM     18  C   UNL     1       0.316  12.312  19.315  0.00  0.00    +0.000 C 
BRANCH  18  19
ATOM     19  C   UNL     1      -0.882  12.468  18.373  0.00  0.00    +0.000 C 
BRANCH  19  20
ATOM     20  C   UNL     1      -2.158  12.601  19.182  0.00  0.00    +0.000 C 
ATOM     21  O   UNL     1      -3.053  11.765  19.101  0.00  0.00    +0.000 OA
ATOM     22  N   UNL     1      -2.185  13.741  19.971  0.00  0.00    +0.000 N 
ATOM     23  H   UNL     1      -1.464  14.437  19.812  0.00  0.00    +0.000 HD
BRANCH  22  24
ATOM     24  C   UNL     1      -3.185  14.067  20.915  0.00  0.00    +0.000 A 
ATOM     25  C   UNL     1      -4.180  15.016  20.675  0.00  0.00    +0.000 A 
ATOM     26  C   UNL     1      -5.164  15.291  21.626  0.00  0.00    +0.000 A 
ATOM     27  C   UNL     1      -5.161  14.624  22.846  0.00  0.00    +0.000 A 
ATOM     28  C   UNL     1      -4.158  13.687  23.115  0.00  0.00    +0.000 A 
ATOM     29  C   UNL     1      -3.190  13.387  22.139  0.00  0.00    +0.000 A 
BRANCH  28  30
ATOM     30  C   UNL     1      -4.099  12.960  24.409  0.00  0.00    +0.000 C 
ATOM     31  O   UNL     1      -4.309  11.763  24.501  0.00  0.00    +0.000 OA
BRANCH  30  32
ATOM     32  O   UNL     1      -3.749  13.731  25.461  0.00  0.00    +0.000 OA
ATOM     33  H   UNL     1      -3.392  13.254  26.232  0.00  0.00    +0.000 HD
ENDBRANCH  30  32
ENDBRANCH  28  30
ENDBRANCH  22  24
ENDBRANCH  19  20
ENDBRANCH  18  19
ENDBRANCH   6  18
TORSDOF 8
ENDMDL
MODEL 9
REMARK VINA RESULT:      -7.6      4.149      6.983
REMARK  Name = 
REMARK  9 active torsions:
REMARK  status: ('A' for Active; 'I' for Inactive)
REMARK    1  A    between atoms: C_1  and  C_2
REMARK    2  A    between atoms: C_2  and  C_3
REMARK    3  A    between atoms: N_8  and  C_9
REMARK    4  A    between atoms: C_9  and  C_10
REMARK    5  A    between atoms: C_10  and  C_11
REMARK    6  A    between atoms: N_13  and  C_14
REMARK    7  A    between atoms: C_18  and  C_19
REMARK    8  A    between atoms: C_19  and  O_21
REMARK    9  A    between atoms: C_25  and  C_26
REMARK                            x       y       z     vdW  Elec       q    Type
REMARK                         _______ _______ _______ _____ _____    ______ ____
ROOT
ATOM      1  C   UNL     1      -1.427  12.779  23.396  0.00  0.00    +0.000 C 
ATOM      2  C   UNL     1      -1.120  12.040  22.319  0.00  0.00    +0.000 C 
ATOM      3  S   UNL     1      -1.395  12.433  20.670  0.00  0.00    +0.000 S 
ATOM      4  C   UNL     1      -0.961  10.825  20.116  0.00  0.00    +0.000 C 
ATOM      5  S   UNL     1      -1.127  10.383  18.516  0.00  0.00    +0.000 S 
ATOM      6  N   UNL     1      -0.512  10.068  21.180  0.00  0.00    +0.000 N 
ATOM      7  C   UNL     1      -0.513  10.688  22.421  0.00  0.00    +0.000 C 
ATOM      8  O   UNL     1      -0.108  10.204  23.469  0.00  0.00    +0.000 OA
ENDROOT
BRANCH   1  10
ATOM      9  C   UNL     1      -1.237  15.278  23.212  0.00  0.00    +0.000 C 
ATOM     10  C   UNL     1      -2.109  14.067  23.388  0.00  0.00    +0.000 C 
ATOM     11  C   UNL     1      -3.442  14.125  23.571  0.00  0.00    +0.000 C 
BRANCH  11  12
ATOM     12  C   UNL     1      -4.246  15.346  23.580  0.00  0.00    +0.000 A 
ATOM     13  C   UNL     1      -4.392  16.090  24.755  0.00  0.00    +0.000 A 
ATOM     14  C   UNL     1      -5.113  17.285  24.740  0.00  0.00    +0.000 A 
ATOM     15  C   UNL     1      -5.689  17.737  23.553  0.00  0.00    +0.000 A 
ATOM     16  C   UNL     1      -5.553  16.992  22.382  0.00  0.00    +0.000 A 
ATOM     17  C   UNL     1      -4.834  15.797  22.394  0.00  0.00    +0.000 A 
ENDBRANCH  11  12
ENDBRANCH   1  10
BRANCH   6  18
ATOM     18  C   UNL     1       0.052   8.719  21.061  0.00  0.00    +0.000 C 
BRANCH  18  19
ATOM     19  C   UNL     1       1.511   8.699  20.595  0.00  0.00    +0.000 C 
BRANCH  19  20
ATOM     20  C   UNL     1       1.896   7.294  20.169  0.00  0.00    +0.000 C 
ATOM     21  O   UNL     1       1.581   6.317  20.842  0.00  0.00    +0.000 OA
ATOM     22  N   UNL     1       2.625   7.264  18.991  0.00  0.00    +0.000 N 
ATOM     23  H   UNL     1       2.970   8.148  18.631  0.00  0.00    +0.000 HD
BRANCH  22  24
ATOM     24  C   UNL     1       3.016   6.099  18.292  0.00  0.00    +0.000 A 
ATOM     25  C   UNL     1       2.184   4.991  18.132  0.00  0.00    +0.000 A 
ATOM     26  C   UNL     1       2.601   3.869  17.414  0.00  0.00    +0.000 A 
ATOM     27  C   UNL     1       3.872   3.834  16.851  0.00  0.00    +0.000 A 
ATOM     28  C   UNL     1       4.731   4.925  17.022  0.00  0.00    +0.000 A 
ATOM     29  C   UNL     1       4.292   6.068  17.715  0.00  0.00    +0.000 A 
BRANCH  28  30
ATOM     30  C   UNL     1       6.103   4.931  16.456  0.00  0.00    +0.000 C 
ATOM     31  O   UNL     1       6.421   5.626  15.507  0.00  0.00    +0.000 OA
BRANCH  30  32
ATOM     32  O   UNL     1       6.975   4.135  17.112  0.00  0.00    +0.000 OA
ATOM     33  H   UNL     1       7.656   4.596  17.634  0.00  0.00    +0.000 HD
ENDBRANCH  30  32
ENDBRANCH  28  30
ENDBRANCH  22  24
ENDBRANCH  19  20
ENDBRANCH  18  19
ENDBRANCH   6  18
TORSDOF 8
ENDMDL
