MODEL 1
REMARK VINA RESULT:      -8.4      0.000      0.000
REMARK  Name = 
REMARK  12 active torsions:
REMARK  status: ('A' for Active; 'I' for Inactive)
REMARK    1  A    between atoms: C_1  and  C_2
REMARK    2  A    between atoms: C_2  and  C_3
REMARK    3  A    between atoms: C_2  and  C_4
REMARK    4  A    between atoms: C_4  and  C_5
REMARK    5  A    between atoms: C_5  and  N_6
REMARK    6  A    between atoms: C_5  and  P_17
REMARK    7  A    between atoms: C_7  and  O_9
REMARK    8  A    between atoms: O_9  and  C_10
REMARK    9  A    between atoms: C_10  and  C_11
REMARK   10  A    between atoms: P_17  and  O_19
REMARK   11  A    between atoms: P_17  and  C_26
REMARK   12  A    between atoms: O_19  and  C_20
REMARK                            x       y       z     vdW  Elec       q    Type
REMARK                         _______ _______ _______ _____ _____    ______ ____
ROOT
ATOM      1  C   UNL     1       4.839   5.682  17.933  0.00  0.00    +0.000 C 
ENDROOT
BRANCH   1   2
ATOM      2  N   UNL     1       6.162   6.317  17.965  0.00  0.00    +0.000 N 
ATOM      3  C   UNL     1       7.174   6.078  18.824  0.00  0.00    +0.000 C 
ATOM      4  O   UNL     1       7.207   5.157  19.627  0.00  0.00    +0.000 OA
ATOM      5  H   UNL     1       6.435   6.937  17.227  0.00  0.00    +0.000 HD
BRANCH   3   6
ATOM      6  O   UNL     1       8.112   7.031  18.640  0.00  0.00    +0.000 OA
BRANCH   6   7
ATOM      7  C   UNL     1       7.769   8.084  17.729  0.00  0.00    +0.000 C 
BRANCH   7   8
ATOM      8  C   UNL     1       8.385   9.386  18.176  0.00  0.00    +0.000 A 
ATOM      9  C   UNL     1       9.137   9.439  19.358  0.00  0.00    +0.000 A 
ATOM     10  C   UNL     1       9.685  10.647  19.800  0.00  0.00    +0.000 A 
ATOM     11  C   UNL     1       9.489  11.811  19.071  0.00  0.00    +0.000 A 
ATOM     12  C   UNL     1       8.747  11.774  17.883  0.00  0.00    +0.000 A 
ATOM     13  C   UNL     1       8.202  10.568  17.443  0.00  0.00    +0.000 A 
ENDBRANCH   7   8
ENDBRANCH   6   7
ENDBRANCH   3   6
ENDBRANCH   1   2
BRANCH   1  14
ATOM     14  P   UNL     1       3.535   6.887  18.377  0.00  0.00    +0.000 P 
ATOM     15  O   UNL     1       3.843   7.715  17.108  0.00  0.00    +0.000 OA
BRANCH  14  16
ATOM     16  C   UNL     1       2.231   8.093  18.820  0.00  0.00    +0.000 A 
ATOM     17  C   UNL     1       1.733   8.225  20.128  0.00  0.00    +0.000 A 
ATOM     18  C   UNL     1       0.673   9.090  20.401  0.00  0.00    +0.000 A 
ATOM     19  C   UNL     1       0.109   9.847  19.376  0.00  0.00    +0.000 A 
ATOM     20  C   UNL     1       0.611   9.748  18.079  0.00  0.00    +0.000 A 
ATOM     21  C   UNL     1       1.664   8.873  17.801  0.00  0.00    +0.000 A 
ENDBRANCH  14  16
BRANCH  14  22
ATOM     22  O   UNL     1       2.392   5.715  18.023  0.00  0.00    +0.000 OA
BRANCH  22  23
ATOM     23  C   UNL     1       2.009   4.692  18.862  0.00  0.00    +0.000 A 
ATOM     24  C   UNL     1       1.505   3.466  18.433  0.00  0.00    +0.000 A 
ATOM     25  C   UNL     1       1.224   2.458  19.369  0.00  0.00    +0.000 A 
ATOM     26  C   UNL     1       1.442   2.671  20.731  0.00  0.00    +0.000 A 
ATOM     27  C   UNL     1       1.894   3.910  21.168  0.00  0.00    +0.000 A 
ATOM     28  C   UNL     1       2.162   4.921  20.236  0.00  0.00    +0.000 A 
ENDBRANCH  22  23
ENDBRANCH  14  22
ENDBRANCH   1  14
BRANCH   1  29
ATOM     29  C   UNL     1       4.607   5.018  16.509  0.00  0.00    +0.000 C 
BRANCH  29  31
ATOM     30  C   UNL     1       6.905   4.163  15.926  0.00  0.00    +0.000 C 
ATOM     31  C   UNL     1       5.701   4.988  15.411  0.00  0.00    +0.000 C 
ATOM     32  C   UNL     1       5.341   4.348  14.062  0.00  0.00    +0.000 C 
ENDBRANCH  29  31
ENDBRANCH   1  29
TORSDOF 10
ENDMDL
MODEL 2
REMARK VINA RESULT:      -8.1      1.365      2.155
REMARK  Name = 
REMARK  12 active torsions:
REMARK  status: ('A' for Active; 'I' for Inactive)
REMARK    1  A    between atoms: C_1  and  C_2
REMARK    2  A    between atoms: C_2  and  C_3
REMARK    3  A    between atoms: C_2  and  C_4
REMARK    4  A    between atoms: C_4  and  C_5
REMARK    5  A    between atoms: C_5  and  N_6
REMARK    6  A    between atoms: C_5  and  P_17
REMARK    7  A    between atoms: C_7  and  O_9
REMARK    8  A    between atoms: O_9  and  C_10
REMARK    9  A    between atoms: C_10  and  C_11
REMARK   10  A    between atoms: P_17  and  O_19
REMARK   11  A    between atoms: P_17  and  C_26
REMARK   12  A    between atoms: O_19  and  C_20
REMARK                            x       y       z     vdW  Elec       q    Type
REMARK                         _______ _______ _______ _____ _____    ______ ____
ROOT
ATOM      1  C   UNL     1       5.364   6.376  17.012  0.00  0.00    +0.000 C 
ENDROOT
BRANCH   1   2
ATOM      2  N   UNL     1       6.497   7.311  16.984  0.00  0.00    +0.000 N 
ATOM      3  C   UNL     1       7.569   7.336  17.802  0.00  0.00    +0.000 C 
ATOM      4  O   UNL     1       7.854   6.463  18.608  0.00  0.00    +0.000 OA
ATOM      5  H   UNL     1       6.583   7.965  16.231  0.00  0.00    +0.000 HD
BRANCH   3   6
ATOM      6  O   UNL     1       8.243   8.483  17.572  0.00  0.00    +0.000 OA
BRANCH   6   7
ATOM      7  C   UNL     1       8.784   9.136  18.728  0.00  0.00    +0.000 C 
BRANCH   7   8
ATOM      8  C   UNL     1       9.147  10.563  18.403  0.00  0.00    +0.000 A 
ATOM      9  C   UNL     1       8.209  11.406  17.791  0.00  0.00    +0.000 A 
ATOM     10  C   UNL     1       8.545  12.721  17.453  0.00  0.00    +0.000 A 
ATOM     11  C   UNL     1       9.816  13.207  17.722  0.00  0.00    +0.000 A 
ATOM     12  C   UNL     1      10.763  12.381  18.341  0.00  0.00    +0.000 A 
ATOM     13  C   UNL     1      10.426  11.069  18.677  0.00  0.00    +0.000 A 
ENDBRANCH   7   8
ENDBRANCH   6   7
ENDBRANCH   3   6
ENDBRANCH   1   2
BRANCH   1  14
ATOM     14  P   UNL     1       3.939   7.117  17.889  0.00  0.00    +0.000 P 
ATOM     15  O   UNL     1       3.750   8.146  16.750  0.00  0.00    +0.000 OA
BRANCH  14  16
ATOM     16  C   UNL     1       2.514   7.858  18.766  0.00  0.00    +0.000 A 
ATOM     17  C   UNL     1       1.768   8.925  18.236  0.00  0.00    +0.000 A 
ATOM     18  C   UNL     1       0.749   9.520  18.980  0.00  0.00    +0.000 A 
ATOM     19  C   UNL     1       0.450   9.045  20.256  0.00  0.00    +0.000 A 
ATOM     20  C   UNL     1       1.162   7.970  20.784  0.00  0.00    +0.000 A 
ATOM     21  C   UNL     1       2.191   7.380  20.045  0.00  0.00    +0.000 A 
ENDBRANCH  14  16
BRANCH  14  22
ATOM     22  O   UNL     1       3.065   5.730  17.548  0.00  0.00    +0.000 OA
BRANCH  22  23
ATOM     23  C   UNL     1       3.324   4.476  18.055  0.00  0.00    +0.000 A 
ATOM     24  C   UNL     1       4.064   4.230  19.210  0.00  0.00    +0.000 A 
ATOM     25  C   UNL     1       4.199   2.916  19.690  0.00  0.00    +0.000 A 
ATOM     26  C   UNL     1       3.599   1.850  19.019  0.00  0.00    +0.000 A 
ATOM     27  C   UNL     1       2.906   2.084  17.837  0.00  0.00    +0.000 A 
ATOM     28  C   UNL     1       2.783   3.392  17.352  0.00  0.00    +0.000 A 
ENDBRANCH  22  23
ENDBRANCH  14  22
ENDBRANCH   1  14
BRANCH   1  29
ATOM     29  C   UNL     1       5.013   5.931  15.529  0.00  0.00    +0.000 C 
BRANCH  29  31
ATOM     30  C   UNL     1       6.887   4.996  14.127  0.00  0.00    +0.000 C 
ATOM     31  C   UNL     1       5.584   4.642  14.883  0.00  0.00    +0.000 C 
ATOM     32  C   UNL     1       5.980   3.489  15.818  0.00  0.00    +0.000 C 
ENDBRANCH  29  31
ENDBRANCH   1  29
TORSDOF 10
ENDMDL
MODEL 3
REMARK VINA RESULT:      -8.0      2.932      4.473
REMARK  Name = 
REMARK  12 active torsions:
REMARK  status: ('A' for Active; 'I' for Inactive)
REMARK    1  A    between atoms: C_1  and  C_2
REMARK    2  A    between atoms: C_2  and  C_3
REMARK    3  A    between atoms: C_2  and  C_4
REMARK    4  A    between atoms: C_4  and  C_5
REMARK    5  A    between atoms: C_5  and  N_6
REMARK    6  A    between atoms: C_5  and  P_17
REMARK    7  A    between atoms: C_7  and  O_9
REMARK    8  A    between atoms: O_9  and  C_10
REMARK    9  A    between atoms: C_10  and  C_11
REMARK   10  A    between atoms: P_17  and  O_19
REMARK   11  A    between atoms: P_17  and  C_26
REMARK   12  A    between atoms: O_19  and  C_20
REMARK                            x       y       z     vdW  Elec       q    Type
REMARK                         _______ _______ _______ _____ _____    ______ ____
ROOT
ATOM      1  C   UNL     1       4.081   5.472  18.394  0.00  0.00    +0.000 C 
ENDROOT
BRANCH   1   2
ATOM      2  N   UNL     1       5.329   5.938  17.774  0.00  0.00    +0.000 N 
ATOM      3  C   UNL     1       5.476   6.587  16.601  0.00  0.00    +0.000 C 
ATOM      4  O   UNL     1       4.559   7.048  15.936  0.00  0.00    +0.000 OA
ATOM      5  H   UNL     1       6.189   5.878  18.281  0.00  0.00    +0.000 HD
BRANCH   3   6
ATOM      6  O   UNL     1       6.792   6.623  16.305  0.00  0.00    +0.000 OA
BRANCH   6   7
ATOM      7  C   UNL     1       7.425   5.352  16.100  0.00  0.00    +0.000 C 
BRANCH   7   8
ATOM      8  C   UNL     1       7.109   4.825  14.723  0.00  0.00    +0.000 A 
ATOM      9  C   UNL     1       7.820   5.295  13.610  0.00  0.00    +0.000 A 
ATOM     10  C   UNL     1       7.513   4.839  12.323  0.00  0.00    +0.000 A 
ATOM     11  C   UNL     1       6.497   3.912  12.136  0.00  0.00    +0.000 A 
ATOM     12  C   UNL     1       5.783   3.427  13.238  0.00  0.00    +0.000 A 
ATOM     13  C   UNL     1       6.090   3.882  14.520  0.00  0.00    +0.000 A 
ENDBRANCH   7   8
ENDBRANCH   6   7
ENDBRANCH   3   6
ENDBRANCH   1   2
BRANCH   1  14
ATOM     14  P   UNL     1       2.959   6.880  18.720  0.00  0.00    +0.000 P 
ATOM     15  O   UNL     1       1.912   6.295  17.745  0.00  0.00    +0.000 OA
BRANCH  14  16
ATOM     16  C   UNL     1       1.836   8.289  19.045  0.00  0.00    +0.000 A 
ATOM     17  C   UNL     1       1.447   9.196  18.045  0.00  0.00    +0.000 A 
ATOM     18  C   UNL     1       0.666  10.309  18.358  0.00  0.00    +0.000 A 
ATOM     19  C   UNL     1       0.249  10.520  19.671  0.00  0.00    +0.000 A 
ATOM     20  C   UNL     1       0.603   9.614  20.669  0.00  0.00    +0.000 A 
ATOM     21  C   UNL     1       1.395   8.506  20.360  0.00  0.00    +0.000 A 
ENDBRANCH  14  16
BRANCH  14  22
ATOM     22  O   UNL     1       2.705   6.266  20.257  0.00  0.00    +0.000 OA
BRANCH  22  23
ATOM     23  C   UNL     1       2.126   5.050  20.546  0.00  0.00    +0.000 A 
ATOM     24  C   UNL     1       0.985   4.550  19.921  0.00  0.00    +0.000 A 
ATOM     25  C   UNL     1       0.525   3.259  20.229  0.00  0.00    +0.000 A 
ATOM     26  C   UNL     1       1.198   2.469  21.161  0.00  0.00    +0.000 A 
ATOM     27  C   UNL     1       2.305   2.983  21.826  0.00  0.00    +0.000 A 
ATOM     28  C   UNL     1       2.756   4.275  21.528  0.00  0.00    +0.000 A 
ENDBRANCH  22  23
ENDBRANCH  14  22
ENDBRANCH   1  14
BRANCH   1  29
ATOM     29  C   UNL     1       3.422   4.356  17.477  0.00  0.00    +0.000 C 
BRANCH  29  31
ATOM     30  C   UNL     1       4.494   2.632  18.969  0.00  0.00    +0.000 C 
ATOM     31  C   UNL     1       3.734   2.846  17.638  0.00  0.00    +0.000 C 
ATOM     32  C   UNL     1       2.546   1.875  17.710  0.00  0.00    +0.000 C 
ENDBRANCH  29  31
ENDBRANCH   1  29
TORSDOF 10
ENDMDL
MODEL 4
REMARK VINA RESULT:      -8.0      1.260      1.580
REMARK  Name = 
REMARK  12 active torsions:
REMARK  status: ('A' for Active; 'I' for Inactive)
REMARK    1  A    between atoms: C_1  and  C_2
REMARK    2  A    between atoms: C_2  and  C_3
REMARK    3  A    between atoms: C_2  and  C_4
REMARK    4  A    between atoms: C_4  and  C_5
REMARK    5  A    between atoms: C_5  and  N_6
REMARK    6  A    between atoms: C_5  and  P_17
REMARK    7  A    between atoms: C_7  and  O_9
REMARK    8  A    between atoms: O_9  and  C_10
REMARK    9  A    between atoms: C_10  and  C_11
REMARK   10  A    between atoms: P_17  and  O_19
REMARK   11  A    between atoms: P_17  and  C_26
REMARK   12  A    between atoms: O_19  and  C_20
REMARK                            x       y       z     vdW  Elec       q    Type
REMARK                         _______ _______ _______ _____ _____    ______ ____
ROOT
ATOM      1  C   UNL     1       5.427   6.414  17.307  0.00  0.00    +0.000 C 
ENDROOT
BRANCH   1   2
ATOM      2  N   UNL     1       6.552   7.329  17.076  0.00  0.00    +0.000 N 
ATOM      3  C   UNL     1       7.682   7.449  17.802  0.00  0.00    +0.000 C 
ATOM      4  O   UNL     1       8.028   6.684  18.690  0.00  0.00    +0.000 OA
ATOM      5  H   UNL     1       6.581   7.881  16.241  0.00  0.00    +0.000 HD
BRANCH   3   6
ATOM      6  O   UNL     1       8.335   8.552  17.378  0.00  0.00    +0.000 OA
BRANCH   6   7
ATOM      7  C   UNL     1       7.936   9.790  17.982  0.00  0.00    +0.000 C 
BRANCH   7   8
ATOM      8  C   UNL     1       9.132  10.502  18.561  0.00  0.00    +0.000 A 
ATOM      9  C   UNL     1       9.293  10.588  19.951  0.00  0.00    +0.000 A 
ATOM     10  C   UNL     1      10.381  11.275  20.501  0.00  0.00    +0.000 A 
ATOM     11  C   UNL     1      11.314  11.881  19.673  0.00  0.00    +0.000 A 
ATOM     12  C   UNL     1      11.172  11.798  18.282  0.00  0.00    +0.000 A 
ATOM     13  C   UNL     1      10.087  11.112  17.735  0.00  0.00    +0.000 A 
ENDBRANCH   7   8
ENDBRANCH   6   7
ENDBRANCH   3   6
ENDBRANCH   1   2
BRANCH   1  14
ATOM     14  P   UNL     1       3.993   7.318  17.996  0.00  0.00    +0.000 P 
ATOM     15  O   UNL     1       3.183   7.056  16.705  0.00  0.00    +0.000 OA
BRANCH  14  16
ATOM     16  C   UNL     1       2.558   8.222  18.685  0.00  0.00    +0.000 A 
ATOM     17  C   UNL     1       2.055   7.977  19.974  0.00  0.00    +0.000 A 
ATOM     18  C   UNL     1       0.902   8.622  20.423  0.00  0.00    +0.000 A 
ATOM     19  C   UNL     1       0.248   9.534  19.597  0.00  0.00    +0.000 A 
ATOM     20  C   UNL     1       0.752   9.809  18.326  0.00  0.00    +0.000 A 
ATOM     21  C   UNL     1       1.899   9.155  17.871  0.00  0.00    +0.000 A 
ENDBRANCH  14  16
BRANCH  14  22
ATOM     22  O   UNL     1       3.767   6.053  19.071  0.00  0.00    +0.000 OA
BRANCH  22  23
ATOM     23  C   UNL     1       3.246   4.818  18.753  0.00  0.00    +0.000 A 
ATOM     24  C   UNL     1       1.943   4.602  18.308  0.00  0.00    +0.000 A 
ATOM     25  C   UNL     1       1.536   3.312  17.929  0.00  0.00    +0.000 A 
ATOM     26  C   UNL     1       2.425   2.239  17.997  0.00  0.00    +0.000 A 
ATOM     27  C   UNL     1       3.708   2.439  18.492  0.00  0.00    +0.000 A 
ATOM     28  C   UNL     1       4.110   3.723  18.882  0.00  0.00    +0.000 A 
ENDBRANCH  22  23
ENDBRANCH  14  22
ENDBRANCH   1  14
BRANCH   1  29
ATOM     29  C   UNL     1       5.084   5.649  15.958  0.00  0.00    +0.000 C 
BRANCH  29  31
ATOM     30  C   UNL     1       7.081   4.113  15.931  0.00  0.00    +0.000 C 
ATOM     31  C   UNL     1       6.172   5.010  15.057  0.00  0.00    +0.000 C 
ATOM     32  C   UNL     1       5.707   4.094  13.915  0.00  0.00    +0.000 C 
ENDBRANCH  29  31
ENDBRANCH   1  29
TORSDOF 10
ENDMDL
MODEL 5
REMARK VINA RESULT:      -7.9      1.516      2.206
REMARK  Name = 
REMARK  12 active torsions:
REMARK  status: ('A' for Active; 'I' for Inactive)
REMARK    1  A    between atoms: C_1  and  C_2
REMARK    2  A    between atoms: C_2  and  C_3
REMARK    3  A    between atoms: C_2  and  C_4
REMARK    4  A    between atoms: C_4  and  C_5
REMARK    5  A    between atoms: C_5  and  N_6
REMARK    6  A    between atoms: C_5  and  P_17
REMARK    7  A    between atoms: C_7  and  O_9
REMARK    8  A    between atoms: O_9  and  C_10
REMARK    9  A    between atoms: C_10  and  C_11
REMARK   10  A    between atoms: P_17  and  O_19
REMARK   11  A    between atoms: P_17  and  C_26
REMARK   12  A    between atoms: O_19  and  C_20
REMARK                            x       y       z     vdW  Elec       q    Type
REMARK                         _______ _______ _______ _____ _____    ______ ____
ROOT
ATOM      1  C   UNL     1       6.182   5.771  16.736  0.00  0.00    +0.000 C 
ENDROOT
BRANCH   1   2
ATOM      2  N   UNL     1       7.100   6.917  16.682  0.00  0.00    +0.000 N 
ATOM      3  C   UNL     1       7.895   7.386  17.665  0.00  0.00    +0.000 C 
ATOM      4  O   UNL     1       8.104   6.819  18.727  0.00  0.00    +0.000 OA
ATOM      5  H   UNL     1       7.267   7.379  15.810  0.00  0.00    +0.000 HD
BRANCH   3   6
ATOM      6  O   UNL     1       8.395   8.575  17.266  0.00  0.00    +0.000 OA
BRANCH   6   7
ATOM      7  C   UNL     1       7.969   9.720  18.017  0.00  0.00    +0.000 C 
BRANCH   7   8
ATOM      8  C   UNL     1       9.162  10.464  18.562  0.00  0.00    +0.000 A 
ATOM      9  C   UNL     1       9.297  10.660  19.944  0.00  0.00    +0.000 A 
ATOM     10  C   UNL     1      10.382  11.377  20.459  0.00  0.00    +0.000 A 
ATOM     11  C   UNL     1      11.339  11.904  19.605  0.00  0.00    +0.000 A 
ATOM     12  C   UNL     1      11.223  11.711  18.222  0.00  0.00    +0.000 A 
ATOM     13  C   UNL     1      10.141  10.994  17.710  0.00  0.00    +0.000 A 
ENDBRANCH   7   8
ENDBRANCH   6   7
ENDBRANCH   3   6
ENDBRANCH   1   2
BRANCH   1  14
ATOM     14  P   UNL     1       4.804   6.105  17.892  0.00  0.00    +0.000 P 
ATOM     15  O   UNL     1       4.604   7.510  17.278  0.00  0.00    +0.000 OA
BRANCH  14  16
ATOM     16  C   UNL     1       3.424   6.439  19.048  0.00  0.00    +0.000 A 
ATOM     17  C   UNL     1       3.125   5.600  20.135  0.00  0.00    +0.000 A 
ATOM     18  C   UNL     1       2.007   5.841  20.934  0.00  0.00    +0.000 A 
ATOM     19  C   UNL     1       1.184   6.934  20.668  0.00  0.00    +0.000 A 
ATOM     20  C   UNL     1       1.484   7.792  19.611  0.00  0.00    +0.000 A 
ATOM     21  C   UNL     1       2.596   7.545  18.802  0.00  0.00    +0.000 A 
ENDBRANCH  14  16
BRANCH  14  22
ATOM     22  O   UNL     1       3.885   4.986  17.050  0.00  0.00    +0.000 OA
BRANCH  22  23
ATOM     23  C   UNL     1       3.171   3.951  17.613  0.00  0.00    +0.000 A 
ATOM     24  C   UNL     1       1.784   3.927  17.741  0.00  0.00    +0.000 A 
ATOM     25  C   UNL     1       1.147   2.785  18.254  0.00  0.00    +0.000 A 
ATOM     26  C   UNL     1       1.891   1.670  18.641  0.00  0.00    +0.000 A 
ATOM     27  C   UNL     1       3.278   1.709  18.566  0.00  0.00    +0.000 A 
ATOM     28  C   UNL     1       3.914   2.854  18.067  0.00  0.00    +0.000 A 
ENDBRANCH  22  23
ENDBRANCH  14  22
ENDBRANCH   1  14
BRANCH   1  29
ATOM     29  C   UNL     1       5.686   5.424  15.268  0.00  0.00    +0.000 C 
BRANCH  29  31
ATOM     30  C   UNL     1       5.461   3.767  13.382  0.00  0.00    +0.000 C 
ATOM     31  C   UNL     1       6.467   4.475  14.322  0.00  0.00    +0.000 C 
ATOM     32  C   UNL     1       7.504   5.102  13.378  0.00  0.00    +0.000 C 
ENDBRANCH  29  31
ENDBRANCH   1  29
TORSDOF 10
ENDMDL
MODEL 6
REMARK VINA RESULT:      -7.9      1.145      1.409
REMARK  Name = 
REMARK  12 active torsions:
REMARK  status: ('A' for Active; 'I' for Inactive)
REMARK    1  A    between atoms: C_1  and  C_2
REMARK    2  A    between atoms: C_2  and  C_3
REMARK    3  A    between atoms: C_2  and  C_4
REMARK    4  A    between atoms: C_4  and  C_5
REMARK    5  A    between atoms: C_5  and  N_6
REMARK    6  A    between atoms: C_5  and  P_17
REMARK    7  A    between atoms: C_7  and  O_9
REMARK    8  A    between atoms: O_9  and  C_10
REMARK    9  A    between atoms: C_10  and  C_11
REMARK   10  A    between atoms: P_17  and  O_19
REMARK   11  A    between atoms: P_17  and  C_26
REMARK   12  A    between atoms: O_19  and  C_20
REMARK                            x       y       z     vdW  Elec       q    Type
REMARK                         _______ _______ _______ _____ _____    ______ ____
ROOT
ATOM      1  C   UNL     1       5.133   6.468  17.475  0.00  0.00    +0.000 C 
ENDROOT
BRANCH   1   2
ATOM      2  N   UNL     1       6.385   7.195  17.723  0.00  0.00    +0.000 N 
ATOM      3  C   UNL     1       7.553   6.697  18.176  0.00  0.00    +0.000 C 
ATOM      4  O   UNL     1       7.808   5.508  18.296  0.00  0.00    +0.000 OA
ATOM      5  H   UNL     1       6.465   8.154  17.449  0.00  0.00    +0.000 HD
BRANCH   3   6
ATOM      6  O   UNL     1       8.363   7.736  18.472  0.00  0.00    +0.000 OA
BRANCH   6   7
ATOM      7  C   UNL     1       8.206   8.907  17.659  0.00  0.00    +0.000 C 
BRANCH   7   8
ATOM      8  C   UNL     1       8.758  10.117  18.369  0.00  0.00    +0.000 A 
ATOM      9  C   UNL     1       9.362   9.979  19.627  0.00  0.00    +0.000 A 
ATOM     10  C   UNL     1       9.848  11.098  20.311  0.00  0.00    +0.000 A 
ATOM     11  C   UNL     1       9.736  12.362  19.749  0.00  0.00    +0.000 A 
ATOM     12  C   UNL     1       9.143  12.516  18.490  0.00  0.00    +0.000 A 
ATOM     13  C   UNL     1       8.659  11.399  17.809  0.00  0.00    +0.000 A 
ENDBRANCH   7   8
ENDBRANCH   6   7
ENDBRANCH   3   6
ENDBRANCH   1   2
BRANCH   1  14
ATOM     14  P   UNL     1       3.704   7.401  18.134  0.00  0.00    +0.000 P 
ATOM     15  O   UNL     1       2.890   7.093  16.856  0.00  0.00    +0.000 OA
BRANCH  14  16
ATOM     16  C   UNL     1       2.275   8.335  18.793  0.00  0.00    +0.000 A 
ATOM     17  C   UNL     1       1.786   8.153  20.099  0.00  0.00    +0.000 A 
ATOM     18  C   UNL     1       0.636   8.817  20.528  0.00  0.00    +0.000 A 
ATOM     19  C   UNL     1      -0.030   9.685  19.664  0.00  0.00    +0.000 A 
ATOM     20  C   UNL     1       0.459   9.897  18.376  0.00  0.00    +0.000 A 
ATOM     21  C   UNL     1       1.603   9.224  17.940  0.00  0.00    +0.000 A 
ENDBRANCH  14  16
BRANCH  14  22
ATOM     22  O   UNL     1       3.478   6.178  19.256  0.00  0.00    +0.000 OA
BRANCH  22  23
ATOM     23  C   UNL     1       3.191   4.864  18.959  0.00  0.00    +0.000 A 
ATOM     24  C   UNL     1       3.942   3.774  19.395  0.00  0.00    +0.000 A 
ATOM     25  C   UNL     1       3.514   2.468  19.107  0.00  0.00    +0.000 A 
ATOM     26  C   UNL     1       2.342   2.247  18.383  0.00  0.00    +0.000 A 
ATOM     27  C   UNL     1       1.619   3.331  17.900  0.00  0.00    +0.000 A 
ATOM     28  C   UNL     1       2.053   4.634  18.176  0.00  0.00    +0.000 A 
ENDBRANCH  22  23
ENDBRANCH  14  22
ENDBRANCH   1  14
BRANCH   1  29
ATOM     29  C   UNL     1       5.004   6.157  15.922  0.00  0.00    +0.000 C 
BRANCH  29  31
ATOM     30  C   UNL     1       6.780   4.935  14.617  0.00  0.00    +0.000 C 
ATOM     31  C   UNL     1       5.402   4.791  15.306  0.00  0.00    +0.000 C 
ATOM     32  C   UNL     1       5.567   3.598  16.259  0.00  0.00    +0.000 C 
ENDBRANCH  29  31
ENDBRANCH   1  29
TORSDOF 10
ENDMDL
MODEL 7
REMARK VINA RESULT:      -7.8      4.449      8.571
REMARK  Name = 
REMARK  12 active torsions:
REMARK  status: ('A' for Active; 'I' for Inactive)
REMARK    1  A    between atoms: C_1  and  C_2
REMARK    2  A    between atoms: C_2  and  C_3
REMARK    3  A    between atoms: C_2  and  C_4
REMARK    4  A    between atoms: C_4  and  C_5
REMARK    5  A    between atoms: C_5  and  N_6
REMARK    6  A    between atoms: C_5  and  P_17
REMARK    7  A    between atoms: C_7  and  O_9
REMARK    8  A    between atoms: O_9  and  C_10
REMARK    9  A    between atoms: C_10  and  C_11
REMARK   10  A    between atoms: P_17  and  O_19
REMARK   11  A    between atoms: P_17  and  C_26
REMARK   12  A    between atoms: O_19  and  C_20
REMARK                            x       y       z     vdW  Elec       q    Type
REMARK                         _______ _______ _______ _____ _____    ______ ____
ROOT
ATOM      1  C   UNL     1       0.883  10.418  19.711  0.00  0.00    +0.000 C 
ENDROOT
BRANCH   1   2
ATOM      2  N   UNL     1       1.498   9.144  19.316  0.00  0.00    +0.000 N 
ATOM      3  C   UNL     1       2.074   8.836  18.137  0.00  0.00    +0.000 C 
ATOM      4  O   UNL     1       2.330   9.638  17.251  0.00  0.00    +0.000 OA
ATOM      5  H   UNL     1       1.616   8.418  19.994  0.00  0.00    +0.000 HD
BRANCH   3   6
ATOM      6  O   UNL     1       2.302   7.505  18.118  0.00  0.00    +0.000 OA
BRANCH   6   7
ATOM      7  C   UNL     1       2.495   6.883  19.396  0.00  0.00    +0.000 C 
BRANCH   7   8
ATOM      8  C   UNL     1       1.965   5.471  19.378  0.00  0.00    +0.000 A 
ATOM      9  C   UNL     1       1.529   4.869  20.566  0.00  0.00    +0.000 A 
ATOM     10  C   UNL     1       1.067   3.548  20.568  0.00  0.00    +0.000 A 
ATOM     11  C   UNL     1       1.037   2.818  19.389  0.00  0.00    +0.000 A 
ATOM     12  C   UNL     1       1.462   3.407  18.192  0.00  0.00    +0.000 A 
ATOM     13  C   UNL     1       1.921   4.725  18.191  0.00  0.00    +0.000 A 
ENDBRANCH   7   8
ENDBRANCH   6   7
ENDBRANCH   3   6
ENDBRANCH   1   2
BRANCH   1  14
ATOM     14  P   UNL     1      -0.702  10.669  18.832  0.00  0.00    +0.000 P 
ATOM     15  O   UNL     1      -1.351  11.223  20.121  0.00  0.00    +0.000 OA
BRANCH  14  16
ATOM     16  C   UNL     1      -2.287  10.920  17.952  0.00  0.00    +0.000 A 
ATOM     17  C   UNL     1      -2.480  10.543  16.612  0.00  0.00    +0.000 A 
ATOM     18  C   UNL     1      -3.673  10.839  15.953  0.00  0.00    +0.000 A 
ATOM     19  C   UNL     1      -4.697  11.500  16.630  0.00  0.00    +0.000 A 
ATOM     20  C   UNL     1      -4.532  11.855  17.968  0.00  0.00    +0.000 A 
ATOM     21  C   UNL     1      -3.333  11.570  18.626  0.00  0.00    +0.000 A 
ENDBRANCH  14  16
BRANCH  14  22
ATOM     22  O   UNL     1       0.018  11.919  17.980  0.00  0.00    +0.000 OA
BRANCH  22  23
ATOM     23  C   UNL     1       0.394  13.134  18.510  0.00  0.00    +0.000 A 
ATOM     24  C   UNL     1      -0.477  14.029  19.128  0.00  0.00    +0.000 A 
ATOM     25  C   UNL     1       0.023  15.205  19.711  0.00  0.00    +0.000 A 
ATOM     26  C   UNL     1       1.389  15.490  19.676  0.00  0.00    +0.000 A 
ATOM     27  C   UNL     1       2.254  14.627  19.014  0.00  0.00    +0.000 A 
ATOM     28  C   UNL     1       1.754  13.461  18.421  0.00  0.00    +0.000 A 
ENDBRANCH  22  23
ENDBRANCH  14  22
ENDBRANCH   1  14
BRANCH   1  29
ATOM     29  C   UNL     1       0.725  10.459  21.291  0.00  0.00    +0.000 C 
BRANCH  29  31
ATOM     30  C   UNL     1      -0.030   9.584  23.531  0.00  0.00    +0.000 C 
ATOM     31  C   UNL     1       0.535   9.180  22.147  0.00  0.00    +0.000 C 
ATOM     32  C   UNL     1      -0.439   8.111  21.628  0.00  0.00    +0.000 C 
ENDBRANCH  29  31
ENDBRANCH   1  29
TORSDOF 10
ENDMDL
MODEL 8
REMARK VINA RESULT:      -7.8      2.093      6.457
REMARK  Name = 
REMARK  12 active torsions:
REMARK  status: ('A' for Active; 'I' for Inactive)
REMARK    1  A    between atoms: C_1  and  C_2
REMARK    2  A    between atoms: C_2  and  C_3
REMARK    3  A    between atoms: C_2  and  C_4
REMARK    4  A    between atoms: C_4  and  C_5
REMARK    5  A    between atoms: C_5  and  N_6
REMARK    6  A    between atoms: C_5  and  P_17
REMARK    7  A    between atoms: C_7  and  O_9
REMARK    8  A    between atoms: O_9  and  C_10
REMARK    9  A    between atoms: C_10  and  C_11
REMARK   10  A    between atoms: P_17  and  O_19
REMARK   11  A    between atoms: P_17  and  C_26
REMARK   12  A    between atoms: O_19  and  C_20
REMARK                            x       y       z     vdW  Elec       q    Type
REMARK                         _______ _______ _______ _____ _____    ______ ____
ROOT
ATOM      1  C   UNL     1       5.090   6.554  16.633  0.00  0.00    +0.000 C 
ENDROOT
BRANCH   1   2
ATOM      2  N   UNL     1       5.950   5.899  15.639  0.00  0.00    +0.000 N 
ATOM      3  C   UNL     1       6.642   4.750  15.775  0.00  0.00    +0.000 C 
ATOM      4  O   UNL     1       6.528   3.970  16.709  0.00  0.00    +0.000 OA
ATOM      5  H   UNL     1       5.986   6.252  14.703  0.00  0.00    +0.000 HD
BRANCH   3   6
ATOM      6  O   UNL     1       7.470   4.633  14.715  0.00  0.00    +0.000 OA
BRANCH   6   7
ATOM      7  C   UNL     1       6.941   5.066  13.454  0.00  0.00    +0.000 C 
BRANCH   7   8
ATOM      8  C   UNL     1       6.530   3.878  12.621  0.00  0.00    +0.000 A 
ATOM      9  C   UNL     1       7.504   3.079  12.006  0.00  0.00    +0.000 A 
ATOM     10  C   UNL     1       7.135   1.995  11.204  0.00  0.00    +0.000 A 
ATOM     11  C   UNL     1       5.794   1.698  11.007  0.00  0.00    +0.000 A 
ATOM     12  C   UNL     1       4.808   2.481  11.620  0.00  0.00    +0.000 A 
ATOM     13  C   UNL     1       5.178   3.562  12.421  0.00  0.00    +0.000 A 
ENDBRANCH   7   8
ENDBRANCH   6   7
ENDBRANCH   3   6
ENDBRANCH   1   2
BRANCH   1  14
ATOM     14  P   UNL     1       4.102   5.315  17.547  0.00  0.00    +0.000 P 
ATOM     15  O   UNL     1       4.812   5.695  18.867  0.00  0.00    +0.000 OA
BRANCH  14  16
ATOM     16  C   UNL     1       3.113   4.076  18.462  0.00  0.00    +0.000 A 
ATOM     17  C   UNL     1       1.893   3.572  17.979  0.00  0.00    +0.000 A 
ATOM     18  C   UNL     1       1.127   2.700  18.753  0.00  0.00    +0.000 A 
ATOM     19  C   UNL     1       1.578   2.306  20.011  0.00  0.00    +0.000 A 
ATOM     20  C   UNL     1       2.800   2.774  20.492  0.00  0.00    +0.000 A 
ATOM     21  C   UNL     1       3.563   3.657  19.724  0.00  0.00    +0.000 A 
ENDBRANCH  14  16
BRANCH  14  22
ATOM     22  O   UNL     1       2.757   6.290  17.329  0.00  0.00    +0.000 OA
BRANCH  22  23
ATOM     23  C   UNL     1       2.282   7.211  18.236  0.00  0.00    +0.000 A 
ATOM     24  C   UNL     1       2.097   6.959  19.594  0.00  0.00    +0.000 A 
ATOM     25  C   UNL     1       1.687   7.994  20.450  0.00  0.00    +0.000 A 
ATOM     26  C   UNL     1       1.459   9.278  19.954  0.00  0.00    +0.000 A 
ATOM     27  C   UNL     1       1.591   9.522  18.592  0.00  0.00    +0.000 A 
ATOM     28  C   UNL     1       1.986   8.486  17.736  0.00  0.00    +0.000 A 
ENDBRANCH  22  23
ENDBRANCH  14  22
ENDBRANCH   1  14
BRANCH   1  29
ATOM     29  C   UNL     1       5.982   7.458  17.587  0.00  0.00    +0.000 C 
BRANCH  29  31
ATOM     30  C   UNL     1       8.136   8.733  17.884  0.00  0.00    +0.000 C 
ATOM     31  C   UNL     1       7.525   7.328  17.662  0.00  0.00    +0.000 C 
ATOM     32  C   UNL     1       8.116   6.466  18.787  0.00  0.00    +0.000 C 
ENDBRANCH  29  31
ENDBRANCH   1  29
TORSDOF 10
ENDMDL
MODEL 9
REMARK VINA RESULT:      -7.7      2.929      4.429
REMARK  Name = 
REMARK  12 active torsions:
REMARK  status: ('A' for Active; 'I' for Inactive)
REMARK    1  A    between atoms: C_1  and  C_2
REMARK    2  A    between atoms: C_2  and  C_3
REMARK    3  A    between atoms: C_2  and  C_4
REMARK    4  A    between atoms: C_4  and  C_5
REMARK    5  A    between atoms: C_5  and  N_6
REMARK    6  A    between atoms: C_5  and  P_17
REMARK    7  A    between atoms: C_7  and  O_9
REMARK    8  A    between atoms: O_9  and  C_10
REMARK    9  A    between atoms: C_10  and  C_11
REMARK   10  A    between atoms: P_17  and  O_19
REMARK   11  A    between atoms: P_17  and  C_26
REMARK   12  A    between atoms: O_19  and  C_20
REMARK                            x       y       z     vdW  Elec       q    Type
REMARK                         _______ _______ _______ _____ _____    ______ ____
ROOT
ATOM      1  C   UNL     1       4.037   5.464  18.337  0.00  0.00    +0.000 C 
ENDROOT
BRANCH   1   2
ATOM      2  N   UNL     1       5.305   5.919  17.752  0.00  0.00    +0.000 N 
ATOM      3  C   UNL     1       5.488   6.587  16.594  0.00  0.00    +0.000 C 
ATOM      4  O   UNL     1       4.594   7.073  15.917  0.00  0.00    +0.000 OA
ATOM      5  H   UNL     1       6.153   5.838  18.277  0.00  0.00    +0.000 HD
BRANCH   3   6
ATOM      6  O   UNL     1       6.811   6.606  16.328  0.00  0.00    +0.000 OA
BRANCH   6   7
ATOM      7  C   UNL     1       7.427   5.329  16.109  0.00  0.00    +0.000 C 
BRANCH   7   8
ATOM      8  C   UNL     1       7.092   4.814  14.732  0.00  0.00    +0.000 A 
ATOM      9  C   UNL     1       7.814   5.265  13.618  0.00  0.00    +0.000 A 
ATOM     10  C   UNL     1       7.491   4.820  12.332  0.00  0.00    +0.000 A 
ATOM     11  C   UNL     1       6.448   3.925  12.145  0.00  0.00    +0.000 A 
ATOM     12  C   UNL     1       5.722   3.458  13.248  0.00  0.00    +0.000 A 
ATOM     13  C   UNL     1       6.046   3.902  14.530  0.00  0.00    +0.000 A 
ENDBRANCH   7   8
ENDBRANCH   6   7
ENDBRANCH   3   6
ENDBRANCH   1   2
BRANCH   1  14
ATOM     14  P   UNL     1       2.943   6.887  18.692  0.00  0.00    +0.000 P 
ATOM     15  O   UNL     1       1.860   6.314  17.749  0.00  0.00    +0.000 OA
BRANCH  14  16
ATOM     16  C   UNL     1       1.849   8.311  19.048  0.00  0.00    +0.000 A 
ATOM     17  C   UNL     1       1.350   8.582  20.334  0.00  0.00    +0.000 A 
ATOM     18  C   UNL     1       0.444   9.622  20.541  0.00  0.00    +0.000 A 
ATOM     19  C   UNL     1       0.038  10.416  19.470  0.00  0.00    +0.000 A 
ATOM     20  C   UNL     1       0.546  10.177  18.194  0.00  0.00    +0.000 A 
ATOM     21  C   UNL     1       1.444   9.129  17.982  0.00  0.00    +0.000 A 
ENDBRANCH  14  16
BRANCH  14  22
ATOM     22  O   UNL     1       2.726   6.278  20.237  0.00  0.00    +0.000 OA
BRANCH  22  23
ATOM     23  C   UNL     1       2.300   5.004  20.542  0.00  0.00    +0.000 A 
ATOM     24  C   UNL     1       3.003   4.109  21.346  0.00  0.00    +0.000 A 
ATOM     25  C   UNL     1       2.440   2.862  21.665  0.00  0.00    +0.000 A 
ATOM     26  C   UNL     1       1.181   2.506  21.180  0.00  0.00    +0.000 A 
ATOM     27  C   UNL     1       0.500   3.373  20.334  0.00  0.00    +0.000 A 
ATOM     28  C   UNL     1       1.067   4.611  20.005  0.00  0.00    +0.000 A 
ENDBRANCH  22  23
ENDBRANCH  14  22
ENDBRANCH   1  14
BRANCH   1  29
ATOM     29  C   UNL     1       3.366   4.396  17.372  0.00  0.00    +0.000 C 
BRANCH  29  31
ATOM     30  C   UNL     1       4.545   2.620  18.716  0.00  0.00    +0.000 C 
ATOM     31  C   UNL     1       3.631   2.873  17.493  0.00  0.00    +0.000 C 
ATOM     32  C   UNL     1       2.421   1.953  17.716  0.00  0.00    +0.000 C 
ENDBRANCH  29  31
ENDBRANCH   1  29
TORSDOF 10
ENDMDL
