MODEL 1
REMARK VINA RESULT:      -7.1      0.000      0.000
REMARK  Name = 
REMARK  3 active torsions:
REMARK  status: ('A' for Active; 'I' for Inactive)
REMARK    1  A    between atoms: C_2  and  C_3
REMARK    2  A    between atoms: N_11  and  C_12
REMARK    3  A    between atoms: C_12  and  C_13
REMARK                            x       y       z     vdW  Elec       q    Type
REMARK                         _______ _______ _______ _____ _____    ______ ____
ROOT
ATOM      1  O   UNL     1       7.622   5.654  15.378  0.00  0.00    +0.000 OA
ATOM      2  C   UNL     1       7.144   5.838  16.500  0.00  0.00    +0.000 C 
ATOM      3  N   UNL     1       6.124   5.015  16.987  0.00  0.00    +0.000 N 
ATOM      4  C   UNL     1       5.378   5.219  18.236  0.00  0.00    +0.000 C 
ATOM      5  C   UNL     1       3.851   5.115  18.025  0.00  0.00    +0.000 C 
ATOM      6  N   UNL     1       3.407   3.910  17.291  0.00  0.00    +0.000 NA
ATOM      7  C   UNL     1       4.163   3.841  16.020  0.00  0.00    +0.000 C 
ATOM      8  C   UNL     1       5.694   3.865  16.186  0.00  0.00    +0.000 C 
ENDROOT
BRANCH   2   9
ATOM      9  C   UNL     1       7.593   6.957  17.310  0.00  0.00    +0.000 A 
ATOM     10  C   UNL     1       8.217   6.964  18.548  0.00  0.00    +0.000 A 
ATOM     11  C   UNL     1       8.487   8.316  18.862  0.00  0.00    +0.000 A 
ATOM     12  C   UNL     1       7.960   9.060  17.835  0.00  0.00    +0.000 A 
ATOM     13  O   UNL     1       7.386   8.251  16.909  0.00  0.00    +0.000 OA
ENDBRANCH   2   9
BRANCH   6  14
ATOM     14  C   UNL     1       3.570   2.716  18.139  0.00  0.00    +0.000 C 
BRANCH  14  15
ATOM     15  C   UNL     1       2.795   2.763  19.428  0.00  0.00    +0.000 A 
ATOM     16  C   UNL     1       1.421   3.019  19.440  0.00  0.00    +0.000 A 
ATOM     17  C   UNL     1       0.735   3.040  20.649  0.00  0.00    +0.000 A 
ATOM     18  C   UNL     1       1.449   2.800  21.811  0.00  0.00    +0.000 A 
ATOM     19  N   UNL     1       2.774   2.550  21.841  0.00  0.00    +0.000 NA
ATOM     20  C   UNL     1       3.418   2.541  20.652  0.00  0.00    +0.000 A 
ENDBRANCH  14  15
ENDBRANCH   6  14
TORSDOF 3
ENDMDL
MODEL 2
REMARK VINA RESULT:      -6.7      0.668      1.086
REMARK  Name = 
REMARK  3 active torsions:
REMARK  status: ('A' for Active; 'I' for Inactive)
REMARK    1  A    between atoms: C_2  and  C_3
REMARK    2  A    between atoms: N_11  and  C_12
REMARK    3  A    between atoms: C_12  and  C_13
REMARK                            x       y       z     vdW  Elec       q    Type
REMARK                         _______ _______ _______ _____ _____    ______ ____
ROOT
ATOM      1  O   UNL     1       7.651   5.562  15.360  0.00  0.00    +0.000 OA
ATOM      2  C   UNL     1       7.142   5.747  16.468  0.00  0.00    +0.000 C 
ATOM      3  N   UNL     1       6.099   4.933  16.921  0.00  0.00    +0.000 N 
ATOM      4  C   UNL     1       5.318   5.141  18.148  0.00  0.00    +0.000 C 
ATOM      5  C   UNL     1       3.798   5.054  17.891  0.00  0.00    +0.000 C 
ATOM      6  N   UNL     1       3.362   3.856  17.140  0.00  0.00    +0.000 NA
ATOM      7  C   UNL     1       4.155   3.784  15.891  0.00  0.00    +0.000 C 
ATOM      8  C   UNL     1       5.681   3.791  16.103  0.00  0.00    +0.000 C 
ENDROOT
BRANCH   2   9
ATOM      9  C   UNL     1       7.578   6.858  17.295  0.00  0.00    +0.000 A 
ATOM     10  C   UNL     1       8.184   6.853  18.542  0.00  0.00    +0.000 A 
ATOM     11  C   UNL     1       8.449   8.202  18.873  0.00  0.00    +0.000 A 
ATOM     12  C   UNL     1       7.937   8.956  17.845  0.00  0.00    +0.000 A 
ATOM     13  O   UNL     1       7.377   8.156  16.903  0.00  0.00    +0.000 OA
ENDBRANCH   2   9
BRANCH   6  14
ATOM     14  C   UNL     1       3.487   2.658  17.988  0.00  0.00    +0.000 C 
BRANCH  14  15
ATOM     15  C   UNL     1       2.707   2.725  19.272  0.00  0.00    +0.000 A 
ATOM     16  C   UNL     1       3.336   2.582  20.512  0.00  0.00    +0.000 A 
ATOM     17  C   UNL     1       2.585   2.665  21.680  0.00  0.00    +0.000 A 
ATOM     18  C   UNL     1       1.224   2.894  21.567  0.00  0.00    +0.000 A 
ATOM     19  N   UNL     1       0.581   3.037  20.390  0.00  0.00    +0.000 NA
ATOM     20  C   UNL     1       1.333   2.945  19.270  0.00  0.00    +0.000 A 
ENDBRANCH  14  15
ENDBRANCH   6  14
TORSDOF 3
ENDMDL
MODEL 3
REMARK VINA RESULT:      -6.7      2.073      3.988
REMARK  Name = 
REMARK  3 active torsions:
REMARK  status: ('A' for Active; 'I' for Inactive)
REMARK    1  A    between atoms: C_2  and  C_3
REMARK    2  A    between atoms: N_11  and  C_12
REMARK    3  A    between atoms: C_12  and  C_13
REMARK                            x       y       z     vdW  Elec       q    Type
REMARK                         _______ _______ _______ _____ _____    ______ ____
ROOT
ATOM      1  O   UNL     1       7.818   5.568  14.791  0.00  0.00    +0.000 OA
ATOM      2  C   UNL     1       6.756   4.945  14.859  0.00  0.00    +0.000 C 
ATOM      3  N   UNL     1       6.034   4.889  16.056  0.00  0.00    +0.000 N 
ATOM      4  C   UNL     1       4.842   4.068  16.303  0.00  0.00    +0.000 C 
ATOM      5  C   UNL     1       4.950   3.266  17.618  0.00  0.00    +0.000 C 
ATOM      6  N   UNL     1       5.342   4.063  18.801  0.00  0.00    +0.000 NA
ATOM      7  C   UNL     1       6.591   4.788  18.472  0.00  0.00    +0.000 C 
ATOM      8  C   UNL     1       6.506   5.664  17.208  0.00  0.00    +0.000 C 
ENDROOT
BRANCH   2   9
ATOM      9  C   UNL     1       6.268   4.205  13.709  0.00  0.00    +0.000 A 
ATOM     10  C   UNL     1       4.967   3.949  13.302  0.00  0.00    +0.000 A 
ATOM     11  C   UNL     1       5.053   3.232  12.087  0.00  0.00    +0.000 A 
ATOM     12  C   UNL     1       6.391   3.036  11.851  0.00  0.00    +0.000 A 
ATOM     13  O   UNL     1       7.134   3.588  12.844  0.00  0.00    +0.000 OA
ENDBRANCH   2   9
BRANCH   6  14
ATOM     14  C   UNL     1       4.234   4.947  19.202  0.00  0.00    +0.000 C 
BRANCH  14  15
ATOM     15  C   UNL     1       3.106   4.244  19.905  0.00  0.00    +0.000 A 
ATOM     16  C   UNL     1       1.785   4.373  19.467  0.00  0.00    +0.000 A 
ATOM     17  C   UNL     1       0.769   3.696  20.133  0.00  0.00    +0.000 A 
ATOM     18  C   UNL     1       1.111   2.907  21.219  0.00  0.00    +0.000 A 
ATOM     19  N   UNL     1       2.372   2.758  21.672  0.00  0.00    +0.000 NA
ATOM     20  C   UNL     1       3.340   3.432  21.010  0.00  0.00    +0.000 A 
ENDBRANCH  14  15
ENDBRANCH   6  14
TORSDOF 3
ENDMDL
MODEL 4
REMARK VINA RESULT:      -6.5      2.377      4.324
REMARK  Name = 
REMARK  3 active torsions:
REMARK  status: ('A' for Active; 'I' for Inactive)
REMARK    1  A    between atoms: C_2  and  C_3
REMARK    2  A    between atoms: N_11  and  C_12
REMARK    3  A    between atoms: C_12  and  C_13
REMARK                            x       y       z     vdW  Elec       q    Type
REMARK                         _______ _______ _______ _____ _____    ______ ____
ROOT
ATOM      1  O   UNL     1       7.885   5.467  14.237  0.00  0.00    +0.000 OA
ATOM      2  C   UNL     1       6.824   4.864  14.419  0.00  0.00    +0.000 C 
ATOM      3  N   UNL     1       6.195   4.886  15.668  0.00  0.00    +0.000 N 
ATOM      4  C   UNL     1       5.016   4.097  16.050  0.00  0.00    +0.000 C 
ATOM      5  C   UNL     1       5.216   3.367  17.396  0.00  0.00    +0.000 C 
ATOM      6  N   UNL     1       5.705   4.223  18.500  0.00  0.00    +0.000 NA
ATOM      7  C   UNL     1       6.932   4.911  18.038  0.00  0.00    +0.000 C 
ATOM      8  C   UNL     1       6.761   5.716  16.736  0.00  0.00    +0.000 C 
ENDROOT
BRANCH   2   9
ATOM      9  C   UNL     1       6.243   4.069  13.352  0.00  0.00    +0.000 A 
ATOM     10  C   UNL     1       6.849   3.195  12.464  0.00  0.00    +0.000 A 
ATOM     11  C   UNL     1       5.820   2.642  11.667  0.00  0.00    +0.000 A 
ATOM     12  C   UNL     1       4.657   3.251  12.068  0.00  0.00    +0.000 A 
ATOM     13  O   UNL     1       4.905   4.142  13.062  0.00  0.00    +0.000 OA
ENDBRANCH   2   9
BRANCH   6  14
ATOM     14  C   UNL     1       4.639   5.144  18.932  0.00  0.00    +0.000 C 
BRANCH  14  15
ATOM     15  C   UNL     1       3.389   4.461  19.414  0.00  0.00    +0.000 A 
ATOM     16  C   UNL     1       3.378   3.720  20.599  0.00  0.00    +0.000 A 
ATOM     17  C   UNL     1       2.200   3.114  21.022  0.00  0.00    +0.000 A 
ATOM     18  C   UNL     1       1.066   3.273  20.242  0.00  0.00    +0.000 A 
ATOM     19  N   UNL     1       1.036   3.979  19.094  0.00  0.00    +0.000 NA
ATOM     20  C   UNL     1       2.197   4.553  18.702  0.00  0.00    +0.000 A 
ENDBRANCH  14  15
ENDBRANCH   6  14
TORSDOF 3
ENDMDL
MODEL 5
REMARK VINA RESULT:      -6.3      4.602      5.608
REMARK  Name = 
REMARK  3 active torsions:
REMARK  status: ('A' for Active; 'I' for Inactive)
REMARK    1  A    between atoms: C_2  and  C_3
REMARK    2  A    between atoms: N_11  and  C_12
REMARK    3  A    between atoms: C_12  and  C_13
REMARK                            x       y       z     vdW  Elec       q    Type
REMARK                         _______ _______ _______ _____ _____    ______ ____
ROOT
ATOM      1  O   UNL     1       4.197   2.670  19.413  0.00  0.00    +0.000 OA
ATOM      2  C   UNL     1       4.452   3.825  19.063  0.00  0.00    +0.000 C 
ATOM      3  N   UNL     1       3.749   4.907  19.602  0.00  0.00    +0.000 N 
ATOM      4  C   UNL     1       3.856   6.305  19.163  0.00  0.00    +0.000 C 
ATOM      5  C   UNL     1       2.472   6.947  18.925  0.00  0.00    +0.000 C 
ATOM      6  N   UNL     1       1.508   6.776  20.034  0.00  0.00    +0.000 NA
ATOM      7  C   UNL     1       1.418   5.330  20.343  0.00  0.00    +0.000 C 
ATOM      8  C   UNL     1       2.769   4.661  20.664  0.00  0.00    +0.000 C 
ENDROOT
BRANCH   2   9
ATOM      9  C   UNL     1       5.447   4.074  18.035  0.00  0.00    +0.000 A 
ATOM     10  C   UNL     1       5.325   4.048  16.655  0.00  0.00    +0.000 A 
ATOM     11  C   UNL     1       6.583   4.418  16.126  0.00  0.00    +0.000 A 
ATOM     12  C   UNL     1       7.416   4.588  17.205  0.00  0.00    +0.000 A 
ATOM     13  O   UNL     1       6.750   4.348  18.362  0.00  0.00    +0.000 OA
ENDBRANCH   2   9
BRANCH   6  14
ATOM     14  C   UNL     1       1.912   7.601  21.185  0.00  0.00    +0.000 C 
BRANCH  14  15
ATOM     15  C   UNL     1       1.019   8.784  21.441  0.00  0.00    +0.000 A 
ATOM     16  C   UNL     1       0.363   9.439  20.394  0.00  0.00    +0.000 A 
ATOM     17  C   UNL     1      -0.467  10.519  20.669  0.00  0.00    +0.000 A 
ATOM     18  C   UNL     1      -0.618  10.909  21.990  0.00  0.00    +0.000 A 
ATOM     19  N   UNL     1      -0.003  10.304  23.027  0.00  0.00    +0.000 NA
ATOM     20  C   UNL     1       0.804   9.260  22.730  0.00  0.00    +0.000 A 
ENDBRANCH  14  15
ENDBRANCH   6  14
TORSDOF 3
ENDMDL
MODEL 6
REMARK VINA RESULT:      -6.2      3.571      6.459
REMARK  Name = 
REMARK  3 active torsions:
REMARK  status: ('A' for Active; 'I' for Inactive)
REMARK    1  A    between atoms: C_2  and  C_3
REMARK    2  A    between atoms: N_11  and  C_12
REMARK    3  A    between atoms: C_12  and  C_13
REMARK                            x       y       z     vdW  Elec       q    Type
REMARK                         _______ _______ _______ _____ _____    ______ ____
ROOT
ATOM      1  O   UNL     1       2.089   5.278  21.036  0.00  0.00    +0.000 OA
ATOM      2  C   UNL     1       2.304   6.004  20.063  0.00  0.00    +0.000 C 
ATOM      3  N   UNL     1       3.077   5.551  18.989  0.00  0.00    +0.000 N 
ATOM      4  C   UNL     1       3.523   6.363  17.849  0.00  0.00    +0.000 C 
ATOM      5  C   UNL     1       5.033   6.197  17.572  0.00  0.00    +0.000 C 
ATOM      6  N   UNL     1       5.498   4.795  17.484  0.00  0.00    +0.000 NA
ATOM      7  C   UNL     1       5.063   4.090  18.712  0.00  0.00    +0.000 C 
ATOM      8  C   UNL     1       3.549   4.163  18.988  0.00  0.00    +0.000 C 
ENDROOT
BRANCH   2   9
ATOM      9  C   UNL     1       1.807   7.369  20.046  0.00  0.00    +0.000 A 
ATOM     10  C   UNL     1       1.277   8.135  21.072  0.00  0.00    +0.000 A 
ATOM     11  C   UNL     1       1.001   9.411  20.529  0.00  0.00    +0.000 A 
ATOM     12  C   UNL     1       1.317   9.336  19.195  0.00  0.00    +0.000 A 
ATOM     13  O   UNL     1       1.772   8.095  18.884  0.00  0.00    +0.000 OA
ENDBRANCH   2   9
BRANCH   6  14
ATOM     14  C   UNL     1       5.001   4.177  16.242  0.00  0.00    +0.000 C 
BRANCH  14  15
ATOM     15  C   UNL     1       5.900   4.375  15.052  0.00  0.00    +0.000 A 
ATOM     16  C   UNL     1       5.590   3.817  13.808  0.00  0.00    +0.000 A 
ATOM     17  C   UNL     1       6.436   4.033  12.726  0.00  0.00    +0.000 A 
ATOM     18  C   UNL     1       7.568   4.806  12.924  0.00  0.00    +0.000 A 
ATOM     19  N   UNL     1       7.901   5.360  14.108  0.00  0.00    +0.000 NA
ATOM     20  C   UNL     1       7.064   5.129  15.145  0.00  0.00    +0.000 A 
ENDBRANCH  14  15
ENDBRANCH   6  14
TORSDOF 3
ENDMDL
MODEL 7
REMARK VINA RESULT:      -6.1      4.173      6.298
REMARK  Name = 
REMARK  3 active torsions:
REMARK  status: ('A' for Active; 'I' for Inactive)
REMARK    1  A    between atoms: C_2  and  C_3
REMARK    2  A    between atoms: N_11  and  C_12
REMARK    3  A    between atoms: C_12  and  C_13
REMARK                            x       y       z     vdW  Elec       q    Type
REMARK                         _______ _______ _______ _____ _____    ______ ____
ROOT
ATOM      1  O   UNL     1       1.652   9.267  18.975  0.00  0.00    +0.000 OA
ATOM      2  C   UNL     1       1.629   8.442  19.891  0.00  0.00    +0.000 C 
ATOM      3  N   UNL     1       2.223   7.185  19.738  0.00  0.00    +0.000 N 
ATOM      4  C   UNL     1       2.137   6.072  20.692  0.00  0.00    +0.000 C 
ATOM      5  C   UNL     1       1.745   4.746  20.006  0.00  0.00    +0.000 C 
ATOM      6  N   UNL     1       2.547   4.405  18.810  0.00  0.00    +0.000 NA
ATOM      7  C   UNL     1       2.504   5.559  17.884  0.00  0.00    +0.000 C 
ATOM      8  C   UNL     1       2.961   6.893  18.505  0.00  0.00    +0.000 C 
ENDROOT
BRANCH   2   9
ATOM      9  C   UNL     1       0.928   8.743  21.127  0.00  0.00    +0.000 A 
ATOM     10  C   UNL     1       1.408   9.267  22.317  0.00  0.00    +0.000 A 
ATOM     11  C   UNL     1       0.297   9.411  23.179  0.00  0.00    +0.000 A 
ATOM     12  C   UNL     1      -0.784   8.912  22.495  0.00  0.00    +0.000 A 
ATOM     13  O   UNL     1      -0.408   8.472  21.268  0.00  0.00    +0.000 OA
ENDBRANCH   2   9
BRANCH   6  14
ATOM     14  C   UNL     1       3.912   4.022  19.212  0.00  0.00    +0.000 C 
BRANCH  14  15
ATOM     15  C   UNL     1       4.936   4.143  18.117  0.00  0.00    +0.000 A 
ATOM     16  C   UNL     1       4.681   3.661  16.829  0.00  0.00    +0.000 A 
ATOM     17  C   UNL     1       5.645   3.804  15.837  0.00  0.00    +0.000 A 
ATOM     18  C   UNL     1       6.836   4.430  16.167  0.00  0.00    +0.000 A 
ATOM     19  N   UNL     1       7.119   4.907  17.396  0.00  0.00    +0.000 NA
ATOM     20  C   UNL     1       6.167   4.750  18.344  0.00  0.00    +0.000 A 
ENDBRANCH  14  15
ENDBRANCH   6  14
TORSDOF 3
ENDMDL
MODEL 8
REMARK VINA RESULT:      -6.0      4.214      6.370
REMARK  Name = 
REMARK  3 active torsions:
REMARK  status: ('A' for Active; 'I' for Inactive)
REMARK    1  A    between atoms: C_2  and  C_3
REMARK    2  A    between atoms: N_11  and  C_12
REMARK    3  A    between atoms: C_12  and  C_13
REMARK                            x       y       z     vdW  Elec       q    Type
REMARK                         _______ _______ _______ _____ _____    ______ ____
ROOT
ATOM      1  O   UNL     1       1.609   9.254  18.969  0.00  0.00    +0.000 OA
ATOM      2  C   UNL     1       1.602   8.445  19.900  0.00  0.00    +0.000 C 
ATOM      3  N   UNL     1       2.206   7.191  19.762  0.00  0.00    +0.000 N 
ATOM      4  C   UNL     1       2.140   6.094  20.736  0.00  0.00    +0.000 C 
ATOM      5  C   UNL     1       1.752   4.752  20.076  0.00  0.00    +0.000 C 
ATOM      6  N   UNL     1       2.546   4.398  18.878  0.00  0.00    +0.000 NA
ATOM      7  C   UNL     1       2.483   5.536  17.933  0.00  0.00    +0.000 C 
ATOM      8  C   UNL     1       2.934   6.884  18.527  0.00  0.00    +0.000 C 
ENDROOT
BRANCH   2   9
ATOM      9  C   UNL     1       0.911   8.760  21.137  0.00  0.00    +0.000 A 
ATOM     10  C   UNL     1       1.401   9.294  22.319  0.00  0.00    +0.000 A 
ATOM     11  C   UNL     1       0.296   9.450  23.186  0.00  0.00    +0.000 A 
ATOM     12  C   UNL     1      -0.792   8.950  22.514  0.00  0.00    +0.000 A 
ATOM     13  O   UNL     1      -0.426   8.497  21.288  0.00  0.00    +0.000 OA
ENDBRANCH   2   9
BRANCH   6  14
ATOM     14  C   UNL     1       3.918   4.034  19.273  0.00  0.00    +0.000 C 
BRANCH  14  15
ATOM     15  C   UNL     1       4.934   4.167  18.172  0.00  0.00    +0.000 A 
ATOM     16  C   UNL     1       6.149   4.825  18.381  0.00  0.00    +0.000 A 
ATOM     17  C   UNL     1       7.071   4.915  17.344  0.00  0.00    +0.000 A 
ATOM     18  C   UNL     1       6.746   4.339  16.127  0.00  0.00    +0.000 A 
ATOM     19  N   UNL     1       5.585   3.696  15.887  0.00  0.00    +0.000 NA
ATOM     20  C   UNL     1       4.704   3.628  16.910  0.00  0.00    +0.000 A 
ENDBRANCH  14  15
ENDBRANCH   6  14
TORSDOF 3
ENDMDL
MODEL 9
REMARK VINA RESULT:      -5.9      4.625      6.805
REMARK  Name = 
REMARK  3 active torsions:
REMARK  status: ('A' for Active; 'I' for Inactive)
REMARK    1  A    between atoms: C_2  and  C_3
REMARK    2  A    between atoms: N_11  and  C_12
REMARK    3  A    between atoms: C_12  and  C_13
REMARK                            x       y       z     vdW  Elec       q    Type
REMARK                         _______ _______ _______ _____ _____    ______ ____
ROOT
ATOM      1  O   UNL     1       0.699   9.900  18.473  0.00  0.00    +0.000 OA
ATOM      2  C   UNL     1       1.022   9.257  19.475  0.00  0.00    +0.000 C 
ATOM      3  N   UNL     1       1.917   8.186  19.380  0.00  0.00    +0.000 N 
ATOM      4  C   UNL     1       2.266   7.259  20.464  0.00  0.00    +0.000 C 
ATOM      5  C   UNL     1       2.174   5.783  20.019  0.00  0.00    +0.000 C 
ATOM      6  N   UNL     1       2.881   5.469  18.758  0.00  0.00    +0.000 NA
ATOM      7  C   UNL     1       2.403   6.408  17.718  0.00  0.00    +0.000 C 
ATOM      8  C   UNL     1       2.546   7.897  18.087  0.00  0.00    +0.000 C 
ENDROOT
BRANCH   2   9
ATOM      9  C   UNL     1       0.427   9.564  20.764  0.00  0.00    +0.000 A 
ATOM     10  C   UNL     1       0.384  10.761  21.460  0.00  0.00    +0.000 A 
ATOM     11  C   UNL     1      -0.363  10.523  22.636  0.00  0.00    +0.000 A 
ATOM     12  C   UNL     1      -0.682   9.188  22.624  0.00  0.00    +0.000 A 
ATOM     13  O   UNL     1      -0.178   8.590  21.515  0.00  0.00    +0.000 OA
ENDBRANCH   2   9
BRANCH   6  14
ATOM     14  C   UNL     1       4.338   5.520  18.972  0.00  0.00    +0.000 C 
BRANCH  14  15
ATOM     15  C   UNL     1       5.154   5.275  17.732  0.00  0.00    +0.000 A 
ATOM     16  C   UNL     1       5.007   4.102  16.986  0.00  0.00    +0.000 A 
ATOM     17  C   UNL     1       5.767   3.917  15.837  0.00  0.00    +0.000 A 
ATOM     18  C   UNL     1       6.651   4.918  15.468  0.00  0.00    +0.000 A 
ATOM     19  N   UNL     1       6.821   6.063  16.161  0.00  0.00    +0.000 NA
ATOM     20  C   UNL     1       6.074   6.215  17.278  0.00  0.00    +0.000 A 
ENDBRANCH  14  15
ENDBRANCH   6  14
TORSDOF 3
ENDMDL
