MODEL 1
REMARK VINA RESULT:      -7.8      0.000      0.000
REMARK  Name = 
REMARK  11 active torsions:
REMARK  status: ('A' for Active; 'I' for Inactive)
REMARK    1  A    between atoms: C_1  and  C_2
REMARK    2  A    between atoms: C_2  and  N_3
REMARK    3  A    between atoms: N_3  and  C_4
REMARK    4  A    between atoms: N_3  and  C_6
REMARK    5  A    between atoms: C_4  and  C_5
REMARK    6  A    between atoms: C_6  and  C_7
REMARK    7  A    between atoms: C_7  and  N_8
REMARK    8  A    between atoms: C_9  and  C_11
REMARK    9  A    between atoms: C_14  and  N_15
REMARK   10  A    between atoms: C_16  and  C_18
REMARK   11  A    between atoms: C_27  and  C_28
REMARK                            x       y       z     vdW  Elec       q    Type
REMARK                         _______ _______ _______ _____ _____    ______ ____
ROOT
ATOM      1  C   UNL     1      -0.348  10.465  21.519  0.00  0.00    +0.000 A 
ATOM      2  C   UNL     1      -0.258  10.514  20.129  0.00  0.00    +0.000 A 
ATOM      3  C   UNL     1       0.557   9.614  19.446  0.00  0.00    +0.000 A 
ATOM      4  C   UNL     1       1.307   8.648  20.128  0.00  0.00    +0.000 A 
ATOM      5  C   UNL     1       1.208   8.593  21.526  0.00  0.00    +0.000 A 
ATOM      6  C   UNL     1       0.394   9.505  22.218  0.00  0.00    +0.000 A 
ENDROOT
BRANCH   1   8
ATOM      7  N   UNL     1      -2.006  12.256  21.504  0.00  0.00    +0.000 N 
ATOM      8  C   UNL     1      -1.185  11.444  22.264  0.00  0.00    +0.000 C 
ATOM      9  O   UNL     1      -1.129  11.495  23.489  0.00  0.00    +0.000 OA
ATOM     10  H   UNL     1      -2.219  12.004  20.546  0.00  0.00    +0.000 HD
BRANCH   7  11
ATOM     11  C   UNL     1      -2.897  13.213  22.128  0.00  0.00    +0.000 C 
BRANCH  11  12
ATOM     12  C   UNL     1      -4.299  12.633  22.407  0.00  0.00    +0.000 C 
BRANCH  12  13
ATOM     13  N   UNL     1      -5.402  13.135  21.547  0.00  0.00    +0.000 NA
BRANCH  13  15
ATOM     14  C   UNL     1      -7.011  12.243  19.813  0.00  0.00    +0.000 C 
ATOM     15  C   UNL     1      -5.583  12.290  20.353  0.00  0.00    +0.000 C 
ENDBRANCH  13  15
BRANCH  13  16
ATOM     16  C   UNL     1      -6.640  13.312  22.336  0.00  0.00    +0.000 C 
ATOM     17  C   UNL     1      -6.493  13.309  23.859  0.00  0.00    +0.000 C 
ENDBRANCH  13  16
ENDBRANCH  12  13
ENDBRANCH  11  12
ENDBRANCH   7  11
ENDBRANCH   1   8
BRANCH   4  18
ATOM     18  N   UNL     1       2.158   7.740  19.464  0.00  0.00    +0.000 N 
ATOM     19  C   UNL     1       2.350   6.404  19.791  0.00  0.00    +0.000 C 
ATOM     20  O   UNL     1       1.740   5.800  20.667  0.00  0.00    +0.000 OA
ATOM     21  H   UNL     1       2.630   8.067  18.620  0.00  0.00    +0.000 HD
BRANCH  19  22
ATOM     22  C   UNL     1       3.317   5.730  18.946  0.00  0.00    +0.000 A 
ATOM     23  O   UNL     1       4.648   5.962  19.143  0.00  0.00    +0.000 OA
ATOM     24  C   UNL     1       5.326   5.289  18.172  0.00  0.00    +0.000 A 
ATOM     25  C   UNL     1       6.711   5.228  18.019  0.00  0.00    +0.000 A 
ATOM     26 CL   UNL     1       7.774   5.904  19.181  0.00  0.00    +0.000 Cl
ATOM     27  C   UNL     1       7.200   4.573  16.888  0.00  0.00    +0.000 A 
ATOM     28  C   UNL     1       6.325   4.003  15.958  0.00  0.00    +0.000 A 
ATOM     29  C   UNL     1       4.941   4.015  16.170  0.00  0.00    +0.000 A 
ATOM     30  C   UNL     1       4.431   4.655  17.316  0.00  0.00    +0.000 A 
ATOM     31  C   UNL     1       3.141   4.823  17.908  0.00  0.00    +0.000 A 
ATOM     32  C   UNL     1       1.865   4.174  17.507  0.00  0.00    +0.000 C 
ENDBRANCH  19  22
ENDBRANCH   4  18
TORSDOF 8
ENDMDL
MODEL 2
REMARK VINA RESULT:      -7.7      7.336     10.583
REMARK  Name = 
REMARK  11 active torsions:
REMARK  status: ('A' for Active; 'I' for Inactive)
REMARK    1  A    between atoms: C_1  and  C_2
REMARK    2  A    between atoms: C_2  and  N_3
REMARK    3  A    between atoms: N_3  and  C_4
REMARK    4  A    between atoms: N_3  and  C_6
REMARK    5  A    between atoms: C_4  and  C_5
REMARK    6  A    between atoms: C_6  and  C_7
REMARK    7  A    between atoms: C_7  and  N_8
REMARK    8  A    between atoms: C_9  and  C_11
REMARK    9  A    between atoms: C_14  and  N_15
REMARK   10  A    between atoms: C_16  and  C_18
REMARK   11  A    between atoms: C_27  and  C_28
REMARK                            x       y       z     vdW  Elec       q    Type
REMARK                         _______ _______ _______ _____ _____    ______ ____
ROOT
ATOM      1  C   UNL     1       6.616   5.910  17.853  0.00  0.00    +0.000 A 
ATOM      2  C   UNL     1       7.739   6.141  18.646  0.00  0.00    +0.000 A 
ATOM      3  C   UNL     1       8.342   7.397  18.661  0.00  0.00    +0.000 A 
ATOM      4  C   UNL     1       7.847   8.451  17.884  0.00  0.00    +0.000 A 
ATOM      5  C   UNL     1       6.711   8.222  17.095  0.00  0.00    +0.000 A 
ATOM      6  C   UNL     1       6.107   6.954  17.070  0.00  0.00    +0.000 A 
ENDROOT
BRANCH   1   8
ATOM      7  N   UNL     1       5.597   4.017  19.008  0.00  0.00    +0.000 N 
ATOM      8  C   UNL     1       5.984   4.564  17.798  0.00  0.00    +0.000 C 
ATOM      9  O   UNL     1       5.827   4.001  16.720  0.00  0.00    +0.000 OA
ATOM     10  H   UNL     1       5.498   4.611  19.823  0.00  0.00    +0.000 HD
BRANCH   7  11
ATOM     11  C   UNL     1       4.930   2.732  19.068  0.00  0.00    +0.000 C 
BRANCH  11  12
ATOM     12  C   UNL     1       3.746   2.716  20.057  0.00  0.00    +0.000 C 
BRANCH  12  13
ATOM     13  N   UNL     1       2.872   3.917  20.055  0.00  0.00    +0.000 NA
BRANCH  13  15
ATOM     14  C   UNL     1       2.297   5.227  17.970  0.00  0.00    +0.000 C 
ATOM     15  C   UNL     1       2.055   3.989  18.830  0.00  0.00    +0.000 C 
ENDBRANCH  13  15
BRANCH  13  16
ATOM     16  C   UNL     1       2.074   3.983  21.299  0.00  0.00    +0.000 C 
ATOM     17  C   UNL     1       1.344   2.706  21.718  0.00  0.00    +0.000 C 
ENDBRANCH  13  16
ENDBRANCH  12  13
ENDBRANCH  11  12
ENDBRANCH   7  11
ENDBRANCH   1   8
BRANCH   4  18
ATOM     18  N   UNL     1       8.451   9.726  17.862  0.00  0.00    +0.000 N 
ATOM     19  C   UNL     1       9.023  10.383  18.943  0.00  0.00    +0.000 C 
ATOM     20  O   UNL     1       9.152   9.910  20.067  0.00  0.00    +0.000 OA
ATOM     21  H   UNL     1       8.544  10.188  16.957  0.00  0.00    +0.000 HD
BRANCH  19  22
ATOM     22  C   UNL     1       9.534  11.702  18.620  0.00  0.00    +0.000 A 
ATOM     23  O   UNL     1       8.657  12.736  18.461  0.00  0.00    +0.000 OA
ATOM     24  C   UNL     1       9.376  13.825  18.077  0.00  0.00    +0.000 A 
ATOM     25  C   UNL     1       8.877  15.105  17.834  0.00  0.00    +0.000 A 
ATOM     26 CL   UNL     1       7.242  15.507  18.154  0.00  0.00    +0.000 Cl
ATOM     27  C   UNL     1       9.770  16.056  17.339  0.00  0.00    +0.000 A 
ATOM     28  C   UNL     1      11.109  15.725  17.104  0.00  0.00    +0.000 A 
ATOM     29  C   UNL     1      11.603  14.454  17.423  0.00  0.00    +0.000 A 
ATOM     30  C   UNL     1      10.719  13.488  17.942  0.00  0.00    +0.000 A 
ATOM     31  C   UNL     1      10.836  12.152  18.436  0.00  0.00    +0.000 A 
ATOM     32  C   UNL     1      12.083  11.386  18.701  0.00  0.00    +0.000 C 
ENDBRANCH  19  22
ENDBRANCH   4  18
TORSDOF 8
ENDMDL
MODEL 3
REMARK VINA RESULT:      -7.7      1.341      1.738
REMARK  Name = 
REMARK  11 active torsions:
REMARK  status: ('A' for Active; 'I' for Inactive)
REMARK    1  A    between atoms: C_1  and  C_2
REMARK    2  A    between atoms: C_2  and  N_3
REMARK    3  A    between atoms: N_3  and  C_4
REMARK    4  A    between atoms: N_3  and  C_6
REMARK    5  A    between atoms: C_4  and  C_5
REMARK    6  A    between atoms: C_6  and  C_7
REMARK    7  A    between atoms: C_7  and  N_8
REMARK    8  A    between atoms: C_9  and  C_11
REMARK    9  A    between atoms: C_14  and  N_15
REMARK   10  A    between atoms: C_16  and  C_18
REMARK   11  A    between atoms: C_27  and  C_28
REMARK                            x       y       z     vdW  Elec       q    Type
REMARK                         _______ _______ _______ _____ _____    ______ ____
ROOT
ATOM      1  C   UNL     1      -0.613  10.724  21.610  0.00  0.00    +0.000 A 
ATOM      2  C   UNL     1      -0.411  10.849  20.237  0.00  0.00    +0.000 A 
ATOM      3  C   UNL     1       0.451   9.980  19.571  0.00  0.00    +0.000 A 
ATOM      4  C   UNL     1       1.136   8.969  20.256  0.00  0.00    +0.000 A 
ATOM      5  C   UNL     1       0.924   8.836  21.636  0.00  0.00    +0.000 A 
ATOM      6  C   UNL     1       0.063   9.718  22.311  0.00  0.00    +0.000 A 
ENDROOT
BRANCH   1   8
ATOM      7  N   UNL     1      -2.562  12.192  21.624  0.00  0.00    +0.000 N 
ATOM      8  C   UNL     1      -1.501  11.669  22.340  0.00  0.00    +0.000 C 
ATOM      9  O   UNL     1      -1.276  11.943  23.514  0.00  0.00    +0.000 OA
ATOM     10  H   UNL     1      -2.863  11.745  20.766  0.00  0.00    +0.000 HD
BRANCH   7  11
ATOM     11  C   UNL     1      -3.516  13.087  22.248  0.00  0.00    +0.000 C 
BRANCH  11  12
ATOM     12  C   UNL     1      -4.850  13.173  21.478  0.00  0.00    +0.000 C 
BRANCH  12  13
ATOM     13  N   UNL     1      -5.907  12.212  21.884  0.00  0.00    +0.000 NA
BRANCH  13  15
ATOM     14  C   UNL     1      -7.242  14.133  22.844  0.00  0.00    +0.000 C 
ATOM     15  C   UNL     1      -6.691  12.721  23.025  0.00  0.00    +0.000 C 
ENDBRANCH  13  15
BRANCH  13  16
ATOM     16  C   UNL     1      -6.740  11.830  20.723  0.00  0.00    +0.000 C 
ATOM     17  C   UNL     1      -7.819  10.773  20.967  0.00  0.00    +0.000 C 
ENDBRANCH  13  16
ENDBRANCH  12  13
ENDBRANCH  11  12
ENDBRANCH   7  11
ENDBRANCH   1   8
BRANCH   4  18
ATOM     18  N   UNL     1       2.032   8.088  19.613  0.00  0.00    +0.000 N 
ATOM     19  C   UNL     1       2.329   8.065  18.257  0.00  0.00    +0.000 C 
ATOM     20  O   UNL     1       1.906   8.865  17.430  0.00  0.00    +0.000 OA
ATOM     21  H   UNL     1       2.570   7.451  20.201  0.00  0.00    +0.000 HD
BRANCH  19  22
ATOM     22  C   UNL     1       3.264   7.020  17.883  0.00  0.00    +0.000 A 
ATOM     23  O   UNL     1       4.581   7.335  17.712  0.00  0.00    +0.000 OA
ATOM     24  C   UNL     1       5.216   6.211  17.279  0.00  0.00    +0.000 A 
ATOM     25  C   UNL     1       6.578   6.080  17.009  0.00  0.00    +0.000 A 
ATOM     26 CL   UNL     1       7.687   7.341  17.353  0.00  0.00    +0.000 Cl
ATOM     27  C   UNL     1       7.008   4.869  16.466  0.00  0.00    +0.000 A 
ATOM     28  C   UNL     1       6.099   3.837  16.211  0.00  0.00    +0.000 A 
ATOM     29  C   UNL     1       4.748   3.966  16.557  0.00  0.00    +0.000 A 
ATOM     30  C   UNL     1       4.300   5.175  17.124  0.00  0.00    +0.000 A 
ATOM     31  C   UNL     1       3.067   5.663  17.656  0.00  0.00    +0.000 A 
ATOM     32  C   UNL     1       1.820   4.895  17.916  0.00  0.00    +0.000 C 
ENDBRANCH  19  22
ENDBRANCH   4  18
TORSDOF 8
ENDMDL
MODEL 4
REMARK VINA RESULT:      -7.7      0.526      1.267
REMARK  Name = 
REMARK  11 active torsions:
REMARK  status: ('A' for Active; 'I' for Inactive)
REMARK    1  A    between atoms: C_1  and  C_2
REMARK    2  A    between atoms: C_2  and  N_3
REMARK    3  A    between atoms: N_3  and  C_4
REMARK    4  A    between atoms: N_3  and  C_6
REMARK    5  A    between atoms: C_4  and  C_5
REMARK    6  A    between atoms: C_6  and  C_7
REMARK    7  A    between atoms: C_7  and  N_8
REMARK    8  A    between atoms: C_9  and  C_11
REMARK    9  A    between atoms: C_14  and  N_15
REMARK   10  A    between atoms: C_16  and  C_18
REMARK   11  A    between atoms: C_27  and  C_28
REMARK                            x       y       z     vdW  Elec       q    Type
REMARK                         _______ _______ _______ _____ _____    ______ ____
ROOT
ATOM      1  C   UNL     1      -0.330  10.425  21.539  0.00  0.00    +0.000 A 
ATOM      2  C   UNL     1      -0.179  10.534  20.158  0.00  0.00    +0.000 A 
ATOM      3  C   UNL     1       0.634   9.640  19.467  0.00  0.00    +0.000 A 
ATOM      4  C   UNL     1       1.321   8.617  20.133  0.00  0.00    +0.000 A 
ATOM      5  C   UNL     1       1.161   8.500  21.521  0.00  0.00    +0.000 A 
ATOM      6  C   UNL     1       0.349   9.407  22.221  0.00  0.00    +0.000 A 
ENDROOT
BRANCH   1   8
ATOM      7  N   UNL     1      -2.135  12.067  21.573  0.00  0.00    +0.000 N 
ATOM      8  C   UNL     1      -1.166  11.397  22.295  0.00  0.00    +0.000 C 
ATOM      9  O   UNL     1      -0.979  11.565  23.496  0.00  0.00    +0.000 OA
ATOM     10  H   UNL     1      -2.429  11.712  20.670  0.00  0.00    +0.000 HD
BRANCH   7  11
ATOM     11  C   UNL     1      -3.035  13.002  22.217  0.00  0.00    +0.000 C 
BRANCH  11  12
ATOM     12  C   UNL     1      -4.292  13.303  21.374  0.00  0.00    +0.000 C 
BRANCH  12  13
ATOM     13  N   UNL     1      -5.598  13.168  22.068  0.00  0.00    +0.000 NA
BRANCH  13  15
ATOM     14  C   UNL     1      -6.807  14.550  23.806  0.00  0.00    +0.000 C 
ATOM     15  C   UNL     1      -6.157  14.484  22.426  0.00  0.00    +0.000 C 
ENDBRANCH  13  15
BRANCH  13  16
ATOM     16  C   UNL     1      -6.525  12.330  21.279  0.00  0.00    +0.000 C 
ATOM     17  C   UNL     1      -7.512  13.064  20.369  0.00  0.00    +0.000 C 
ENDBRANCH  13  16
ENDBRANCH  12  13
ENDBRANCH  11  12
ENDBRANCH   7  11
ENDBRANCH   1   8
BRANCH   4  18
ATOM     18  N   UNL     1       2.170   7.711  19.462  0.00  0.00    +0.000 N 
ATOM     19  C   UNL     1       2.396   6.386  19.810  0.00  0.00    +0.000 C 
ATOM     20  O   UNL     1       1.825   5.789  20.716  0.00  0.00    +0.000 OA
ATOM     21  H   UNL     1       2.609   8.029  18.597  0.00  0.00    +0.000 HD
BRANCH  19  22
ATOM     22  C   UNL     1       3.351   5.712  18.950  0.00  0.00    +0.000 A 
ATOM     23  O   UNL     1       4.685   5.922  19.144  0.00  0.00    +0.000 OA
ATOM     24  C   UNL     1       5.350   5.256  18.160  0.00  0.00    +0.000 A 
ATOM     25  C   UNL     1       6.733   5.178  18.000  0.00  0.00    +0.000 A 
ATOM     26 CL   UNL     1       7.810   5.819  19.168  0.00  0.00    +0.000 Cl
ATOM     27  C   UNL     1       7.209   4.535  16.856  0.00  0.00    +0.000 A 
ATOM     28  C   UNL     1       6.322   3.993  15.920  0.00  0.00    +0.000 A 
ATOM     29  C   UNL     1       4.939   4.021  16.139  0.00  0.00    +0.000 A 
ATOM     30  C   UNL     1       4.442   4.649  17.297  0.00  0.00    +0.000 A 
ATOM     31  C   UNL     1       3.157   4.825  17.897  0.00  0.00    +0.000 A 
ATOM     32  C   UNL     1       1.870   4.201  17.491  0.00  0.00    +0.000 C 
ENDBRANCH  19  22
ENDBRANCH   4  18
TORSDOF 8
ENDMDL
MODEL 5
REMARK VINA RESULT:      -7.7      1.519      2.225
REMARK  Name = 
REMARK  11 active torsions:
REMARK  status: ('A' for Active; 'I' for Inactive)
REMARK    1  A    between atoms: C_1  and  C_2
REMARK    2  A    between atoms: C_2  and  N_3
REMARK    3  A    between atoms: N_3  and  C_4
REMARK    4  A    between atoms: N_3  and  C_6
REMARK    5  A    between atoms: C_4  and  C_5
REMARK    6  A    between atoms: C_6  and  C_7
REMARK    7  A    between atoms: C_7  and  N_8
REMARK    8  A    between atoms: C_9  and  C_11
REMARK    9  A    between atoms: C_14  and  N_15
REMARK   10  A    between atoms: C_16  and  C_18
REMARK   11  A    between atoms: C_27  and  C_28
REMARK                            x       y       z     vdW  Elec       q    Type
REMARK                         _______ _______ _______ _____ _____    ______ ____
ROOT
ATOM      1  C   UNL     1      -0.780  11.439  19.562  0.00  0.00    +0.000 A 
ATOM      2  C   UNL     1       0.289  11.066  20.374  0.00  0.00    +0.000 A 
ATOM      3  C   UNL     1       1.188  10.089  19.949  0.00  0.00    +0.000 A 
ATOM      4  C   UNL     1       1.042   9.457  18.709  0.00  0.00    +0.000 A 
ATOM      5  C   UNL     1      -0.027   9.841  17.886  0.00  0.00    +0.000 A 
ATOM      6  C   UNL     1      -0.940  10.817  18.317  0.00  0.00    +0.000 A 
ENDROOT
BRANCH   1   8
ATOM      7  N   UNL     1      -3.102  12.121  19.873  0.00  0.00    +0.000 N 
ATOM      8  C   UNL     1      -1.768  12.453  20.018  0.00  0.00    +0.000 C 
ATOM      9  O   UNL     1      -1.383  13.515  20.498  0.00  0.00    +0.000 OA
ATOM     10  H   UNL     1      -3.369  11.154  19.730  0.00  0.00    +0.000 HD
BRANCH   7  11
ATOM     11  C   UNL     1      -4.149  13.014  20.326  0.00  0.00    +0.000 C 
BRANCH  11  12
ATOM     12  C   UNL     1      -4.302  13.028  21.861  0.00  0.00    +0.000 C 
BRANCH  12  13
ATOM     13  N   UNL     1      -5.524  12.382  22.406  0.00  0.00    +0.000 NA
BRANCH  13  15
ATOM     14  C   UNL     1      -4.490  12.521  24.710  0.00  0.00    +0.000 C 
ATOM     15  C   UNL     1      -5.722  12.714  23.829  0.00  0.00    +0.000 C 
ENDBRANCH  13  15
BRANCH  13  16
ATOM     16  C   UNL     1      -6.698  12.689  21.562  0.00  0.00    +0.000 C 
ATOM     17  C   UNL     1      -7.601  11.513  21.184  0.00  0.00    +0.000 C 
ENDBRANCH  13  16
ENDBRANCH  12  13
ENDBRANCH  11  12
ENDBRANCH   7  11
ENDBRANCH   1   8
BRANCH   4  18
ATOM     18  N   UNL     1       1.923   8.449  18.262  0.00  0.00    +0.000 N 
ATOM     19  C   UNL     1       2.383   7.371  19.006  0.00  0.00    +0.000 C 
ATOM     20  O   UNL     1       2.024   7.099  20.147  0.00  0.00    +0.000 OA
ATOM     21  H   UNL     1       2.199   8.466  17.279  0.00  0.00    +0.000 HD
BRANCH  19  22
ATOM     22  C   UNL     1       3.310   6.519  18.286  0.00  0.00    +0.000 A 
ATOM     23  O   UNL     1       4.587   6.954  18.075  0.00  0.00    +0.000 OA
ATOM     24  C   UNL     1       5.213   6.020  17.306  0.00  0.00    +0.000 A 
ATOM     25  C   UNL     1       6.541   6.052  16.880  0.00  0.00    +0.000 A 
ATOM     26 CL   UNL     1       7.631   7.256  17.427  0.00  0.00    +0.000 Cl
ATOM     27  C   UNL     1       6.955   5.048  16.004  0.00  0.00    +0.000 A 
ATOM     28  C   UNL     1       6.065   4.056  15.582  0.00  0.00    +0.000 A 
ATOM     29  C   UNL     1       4.756   4.004  16.080  0.00  0.00    +0.000 A 
ATOM     30  C   UNL     1       4.327   4.998  16.981  0.00  0.00    +0.000 A 
ATOM     31  C   UNL     1       3.143   5.253  17.738  0.00  0.00    +0.000 A 
ATOM     32  C   UNL     1       1.965   4.363  17.912  0.00  0.00    +0.000 C 
ENDBRANCH  19  22
ENDBRANCH   4  18
TORSDOF 8
ENDMDL
MODEL 6
REMARK VINA RESULT:      -7.6      6.928     10.782
REMARK  Name = 
REMARK  11 active torsions:
REMARK  status: ('A' for Active; 'I' for Inactive)
REMARK    1  A    between atoms: C_1  and  C_2
REMARK    2  A    between atoms: C_2  and  N_3
REMARK    3  A    between atoms: N_3  and  C_4
REMARK    4  A    between atoms: N_3  and  C_6
REMARK    5  A    between atoms: C_4  and  C_5
REMARK    6  A    between atoms: C_6  and  C_7
REMARK    7  A    between atoms: C_7  and  N_8
REMARK    8  A    between atoms: C_9  and  C_11
REMARK    9  A    between atoms: C_14  and  N_15
REMARK   10  A    between atoms: C_16  and  C_18
REMARK   11  A    between atoms: C_27  and  C_28
REMARK                            x       y       z     vdW  Elec       q    Type
REMARK                         _______ _______ _______ _____ _____    ______ ____
ROOT
ATOM      1  C   UNL     1       6.917   6.177  17.975  0.00  0.00    +0.000 A 
ATOM      2  C   UNL     1       7.996   6.394  18.831  0.00  0.00    +0.000 A 
ATOM      3  C   UNL     1       8.612   7.642  18.883  0.00  0.00    +0.000 A 
ATOM      4  C   UNL     1       8.175   8.704  18.082  0.00  0.00    +0.000 A 
ATOM      5  C   UNL     1       7.082   8.490  17.230  0.00  0.00    +0.000 A 
ATOM      6  C   UNL     1       6.465   7.229  17.168  0.00  0.00    +0.000 A 
ENDROOT
BRANCH   1   8
ATOM      7  N   UNL     1       5.288   4.565  18.811  0.00  0.00    +0.000 N 
ATOM      8  C   UNL     1       6.273   4.839  17.881  0.00  0.00    +0.000 C 
ATOM      9  O   UNL     1       6.621   4.049  17.009  0.00  0.00    +0.000 OA
ATOM     10  H   UNL     1       4.854   5.322  19.326  0.00  0.00    +0.000 HD
BRANCH   7  11
ATOM     11  C   UNL     1       4.563   3.310  18.784  0.00  0.00    +0.000 C 
BRANCH  11  12
ATOM     12  C   UNL     1       3.997   2.915  20.164  0.00  0.00    +0.000 C 
BRANCH  12  13
ATOM     13  N   UNL     1       2.529   3.065  20.339  0.00  0.00    +0.000 NA
BRANCH  13  15
ATOM     14  C   UNL     1       1.791   5.465  20.633  0.00  0.00    +0.000 C 
ATOM     15  C   UNL     1       2.206   4.149  21.285  0.00  0.00    +0.000 C 
ENDBRANCH  13  15
BRANCH  13  16
ATOM     16  C   UNL     1       1.858   3.208  19.029  0.00  0.00    +0.000 C 
ATOM     17  C   UNL     1       0.641   2.316  18.778  0.00  0.00    +0.000 C 
ENDBRANCH  13  16
ENDBRANCH  12  13
ENDBRANCH  11  12
ENDBRANCH   7  11
ENDBRANCH   1   8
BRANCH   4  18
ATOM     18  N   UNL     1       8.794   9.972  18.098  0.00  0.00    +0.000 N 
ATOM     19  C   UNL     1       9.194  10.677  19.224  0.00  0.00    +0.000 C 
ATOM     20  O   UNL     1       9.134  10.258  20.376  0.00  0.00    +0.000 OA
ATOM     21  H   UNL     1       9.038  10.388  17.198  0.00  0.00    +0.000 HD
BRANCH  19  22
ATOM     22  C   UNL     1       9.771  11.974  18.926  0.00  0.00    +0.000 A 
ATOM     23  O   UNL     1       8.945  13.010  18.596  0.00  0.00    +0.000 OA
ATOM     24  C   UNL     1       9.733  14.073  18.277  0.00  0.00    +0.000 A 
ATOM     25  C   UNL     1       9.298  15.347  17.910  0.00  0.00    +0.000 A 
ATOM     26 CL   UNL     1       7.641  15.781  17.967  0.00  0.00    +0.000 Cl
ATOM     27  C   UNL     1      10.272  16.265  17.514  0.00  0.00    +0.000 A 
ATOM     28  C   UNL     1      11.624  15.908  17.493  0.00  0.00    +0.000 A 
ATOM     29  C   UNL     1      12.043  14.647  17.935  0.00  0.00    +0.000 A 
ATOM     30  C   UNL     1      11.075  13.714  18.357  0.00  0.00    +0.000 A 
ATOM     31  C   UNL     1      11.094  12.401  18.918  0.00  0.00    +0.000 A 
ATOM     32  C   UNL     1      12.273  11.632  19.397  0.00  0.00    +0.000 C 
ENDBRANCH  19  22
ENDBRANCH   4  18
TORSDOF 8
ENDMDL
MODEL 7
REMARK VINA RESULT:      -7.6      2.395      3.110
REMARK  Name = 
REMARK  11 active torsions:
REMARK  status: ('A' for Active; 'I' for Inactive)
REMARK    1  A    between atoms: C_1  and  C_2
REMARK    2  A    between atoms: C_2  and  N_3
REMARK    3  A    between atoms: N_3  and  C_4
REMARK    4  A    between atoms: N_3  and  C_6
REMARK    5  A    between atoms: C_4  and  C_5
REMARK    6  A    between atoms: C_6  and  C_7
REMARK    7  A    between atoms: C_7  and  N_8
REMARK    8  A    between atoms: C_9  and  C_11
REMARK    9  A    between atoms: C_14  and  N_15
REMARK   10  A    between atoms: C_16  and  C_18
REMARK   11  A    between atoms: C_27  and  C_28
REMARK                            x       y       z     vdW  Elec       q    Type
REMARK                         _______ _______ _______ _____ _____    ______ ____
ROOT
ATOM      1  C   UNL     1      -0.248  10.477  21.925  0.00  0.00    +0.000 A 
ATOM      2  C   UNL     1      -0.235  10.529  20.532  0.00  0.00    +0.000 A 
ATOM      3  C   UNL     1       0.540   9.630  19.802  0.00  0.00    +0.000 A 
ATOM      4  C   UNL     1       1.323   8.660  20.440  0.00  0.00    +0.000 A 
ATOM      5  C   UNL     1       1.301   8.600  21.841  0.00  0.00    +0.000 A 
ATOM      6  C   UNL     1       0.529   9.512  22.579  0.00  0.00    +0.000 A 
ENDROOT
BRANCH   1   8
ATOM      7  N   UNL     1      -0.647  12.777  22.634  0.00  0.00    +0.000 N 
ATOM      8  C   UNL     1      -1.041  11.454  22.718  0.00  0.00    +0.000 C 
ATOM      9  O   UNL     1      -1.990  11.072  23.395  0.00  0.00    +0.000 OA
ATOM     10  H   UNL     1      -0.049  13.079  21.874  0.00  0.00    +0.000 HD
BRANCH   7  11
ATOM     11  C   UNL     1      -1.376  13.820  23.328  0.00  0.00    +0.000 C 
BRANCH  11  12
ATOM     12  C   UNL     1      -1.094  15.227  22.762  0.00  0.00    +0.000 C 
BRANCH  12  13
ATOM     13  N   UNL     1      -0.094  15.307  21.667  0.00  0.00    +0.000 NA
BRANCH  13  15
ATOM     14  C   UNL     1      -0.479  14.341  19.362  0.00  0.00    +0.000 C 
ATOM     15  C   UNL     1      -0.744  15.471  20.354  0.00  0.00    +0.000 C 
ENDBRANCH  13  15
BRANCH  13  16
ATOM     16  C   UNL     1       0.916  16.348  21.957  0.00  0.00    +0.000 C 
ATOM     17  C   UNL     1       1.051  17.480  20.937  0.00  0.00    +0.000 C 
ENDBRANCH  13  16
ENDBRANCH  12  13
ENDBRANCH  11  12
ENDBRANCH   7  11
ENDBRANCH   1   8
BRANCH   4  18
ATOM     18  N   UNL     1       2.135   7.751  19.728  0.00  0.00    +0.000 N 
ATOM     19  C   UNL     1       2.241   6.387  19.961  0.00  0.00    +0.000 C 
ATOM     20  O   UNL     1       1.579   5.760  20.782  0.00  0.00    +0.000 OA
ATOM     21  H   UNL     1       2.642   8.108  18.917  0.00  0.00    +0.000 HD
BRANCH  19  22
ATOM     22  C   UNL     1       3.186   5.717  19.088  0.00  0.00    +0.000 A 
ATOM     23  O   UNL     1       4.523   5.906  19.284  0.00  0.00    +0.000 OA
ATOM     24  C   UNL     1       5.178   5.251  18.286  0.00  0.00    +0.000 A 
ATOM     25  C   UNL     1       6.560   5.158  18.123  0.00  0.00    +0.000 A 
ATOM     26 CL   UNL     1       7.647   5.763  19.302  0.00  0.00    +0.000 Cl
ATOM     27  C   UNL     1       7.026   4.531  16.967  0.00  0.00    +0.000 A 
ATOM     28  C   UNL     1       6.131   4.019  16.021  0.00  0.00    +0.000 A 
ATOM     29  C   UNL     1       4.749   4.060  16.242  0.00  0.00    +0.000 A 
ATOM     30  C   UNL     1       4.262   4.672  17.414  0.00  0.00    +0.000 A 
ATOM     31  C   UNL     1       2.980   4.853  18.019  0.00  0.00    +0.000 A 
ATOM     32  C   UNL     1       1.684   4.254  17.603  0.00  0.00    +0.000 C 
ENDBRANCH  19  22
ENDBRANCH   4  18
TORSDOF 8
ENDMDL
MODEL 8
REMARK VINA RESULT:      -7.5      2.177      3.109
REMARK  Name = 
REMARK  11 active torsions:
REMARK  status: ('A' for Active; 'I' for Inactive)
REMARK    1  A    between atoms: C_1  and  C_2
REMARK    2  A    between atoms: C_2  and  N_3
REMARK    3  A    between atoms: N_3  and  C_4
REMARK    4  A    between atoms: N_3  and  C_6
REMARK    5  A    between atoms: C_4  and  C_5
REMARK    6  A    between atoms: C_6  and  C_7
REMARK    7  A    between atoms: C_7  and  N_8
REMARK    8  A    between atoms: C_9  and  C_11
REMARK    9  A    between atoms: C_14  and  N_15
REMARK   10  A    between atoms: C_16  and  C_18
REMARK   11  A    between atoms: C_27  and  C_28
REMARK                            x       y       z     vdW  Elec       q    Type
REMARK                         _______ _______ _______ _____ _____    ______ ____
ROOT
ATOM      1  C   UNL     1      -1.290  11.479  22.343  0.00  0.00    +0.000 A 
ATOM      2  C   UNL     1      -0.961  11.355  20.994  0.00  0.00    +0.000 A 
ATOM      3  C   UNL     1      -0.242  10.249  20.545  0.00  0.00    +0.000 A 
ATOM      4  C   UNL     1       0.171   9.243  21.426  0.00  0.00    +0.000 A 
ATOM      5  C   UNL     1      -0.170   9.362  22.781  0.00  0.00    +0.000 A 
ATOM      6  C   UNL     1      -0.885  10.480  23.238  0.00  0.00    +0.000 A 
ENDROOT
BRANCH   1   8
ATOM      7  N   UNL     1      -3.342  12.795  22.444  0.00  0.00    +0.000 N 
ATOM      8  C   UNL     1      -2.024  12.672  22.843  0.00  0.00    +0.000 C 
ATOM      9  O   UNL     1      -1.459  13.481  23.573  0.00  0.00    +0.000 OA
ATOM     10  H   UNL     1      -3.836  11.990  22.077  0.00  0.00    +0.000 HD
BRANCH   7  11
ATOM     11  C   UNL     1      -4.165  13.893  22.909  0.00  0.00    +0.000 C 
BRANCH  11  12
ATOM     12  C   UNL     1      -5.627  13.793  22.427  0.00  0.00    +0.000 C 
BRANCH  12  13
ATOM     13  N   UNL     1      -6.308  12.493  22.657  0.00  0.00    +0.000 NA
BRANCH  13  15
ATOM     14  C   UNL     1      -7.764  13.804  24.256  0.00  0.00    +0.000 C 
ATOM     15  C   UNL     1      -7.055  12.492  23.928  0.00  0.00    +0.000 C 
ENDBRANCH  13  15
BRANCH  13  16
ATOM     16  C   UNL     1      -7.135  12.123  21.488  0.00  0.00    +0.000 C 
ATOM     17  C   UNL     1      -6.389  11.741  20.209  0.00  0.00    +0.000 C 
ENDBRANCH  13  16
ENDBRANCH  12  13
ENDBRANCH  11  12
ENDBRANCH   7  11
ENDBRANCH   1   8
BRANCH   4  18
ATOM     18  N   UNL     1       0.919   8.124  21.003  0.00  0.00    +0.000 N 
ATOM     19  C   UNL     1       1.656   8.023  19.830  0.00  0.00    +0.000 C 
ATOM     20  O   UNL     1       1.823   8.932  19.024  0.00  0.00    +0.000 OA
ATOM     21  H   UNL     1       0.989   7.333  21.645  0.00  0.00    +0.000 HD
BRANCH  19  22
ATOM     22  C   UNL     1       2.292   6.732  19.650  0.00  0.00    +0.000 A 
ATOM     23  O   UNL     1       1.905   5.684  20.434  0.00  0.00    +0.000 OA
ATOM     24  C   UNL     1       2.710   4.629  20.131  0.00  0.00    +0.000 A 
ATOM     25  C   UNL     1       2.639   3.348  20.678  0.00  0.00    +0.000 A 
ATOM     26 CL   UNL     1       1.372   2.892  21.738  0.00  0.00    +0.000 Cl
ATOM     27  C   UNL     1       3.633   2.440  20.310  0.00  0.00    +0.000 A 
ATOM     28  C   UNL     1       4.650   2.814  19.425  0.00  0.00    +0.000 A 
ATOM     29  C   UNL     1       4.659   4.083  18.833  0.00  0.00    +0.000 A 
ATOM     30  C   UNL     1       3.652   5.005  19.178  0.00  0.00    +0.000 A 
ATOM     31  C   UNL     1       3.283   6.322  18.765  0.00  0.00    +0.000 A 
ATOM     32  C   UNL     1       3.835   7.109  17.630  0.00  0.00    +0.000 C 
ENDBRANCH  19  22
ENDBRANCH   4  18
TORSDOF 8
ENDMDL
MODEL 9
REMARK VINA RESULT:      -7.5      6.382     10.361
REMARK  Name = 
REMARK  11 active torsions:
REMARK  status: ('A' for Active; 'I' for Inactive)
REMARK    1  A    between atoms: C_1  and  C_2
REMARK    2  A    between atoms: C_2  and  N_3
REMARK    3  A    between atoms: N_3  and  C_4
REMARK    4  A    between atoms: N_3  and  C_6
REMARK    5  A    between atoms: C_4  and  C_5
REMARK    6  A    between atoms: C_6  and  C_7
REMARK    7  A    between atoms: C_7  and  N_8
REMARK    8  A    between atoms: C_9  and  C_11
REMARK    9  A    between atoms: C_14  and  N_15
REMARK   10  A    between atoms: C_16  and  C_18
REMARK   11  A    between atoms: C_27  and  C_28
REMARK                            x       y       z     vdW  Elec       q    Type
REMARK                         _______ _______ _______ _____ _____    ______ ____
ROOT
ATOM      1  C   UNL     1       6.555   5.991  17.966  0.00  0.00    +0.000 A 
ATOM      2  C   UNL     1       6.017   7.013  17.186  0.00  0.00    +0.000 A 
ATOM      3  C   UNL     1       6.638   8.259  17.134  0.00  0.00    +0.000 A 
ATOM      4  C   UNL     1       7.807   8.520  17.860  0.00  0.00    +0.000 A 
ATOM      5  C   UNL     1       8.354   7.488  18.636  0.00  0.00    +0.000 A 
ATOM      6  C   UNL     1       7.724   6.235  18.698  0.00  0.00    +0.000 A 
ENDROOT
BRANCH   1   8
ATOM      7  N   UNL     1       5.427   4.297  19.312  0.00  0.00    +0.000 N 
ATOM      8  C   UNL     1       5.881   4.668  18.060  0.00  0.00    +0.000 C 
ATOM      9  O   UNL     1       5.751   3.971  17.058  0.00  0.00    +0.000 OA
ATOM     10  H   UNL     1       5.314   4.997  20.036  0.00  0.00    +0.000 HD
BRANCH   7  11
ATOM     11  C   UNL     1       4.716   3.050  19.510  0.00  0.00    +0.000 C 
BRANCH  11  12
ATOM     12  C   UNL     1       3.303   3.252  20.096  0.00  0.00    +0.000 C 
BRANCH  12  13
ATOM     13  N   UNL     1       2.502   4.361  19.517  0.00  0.00    +0.000 NA
BRANCH  13  15
ATOM     14  C   UNL     1       0.858   2.577  18.804  0.00  0.00    +0.000 C 
ATOM     15  C   UNL     1       1.587   3.875  18.468  0.00  0.00    +0.000 C 
ENDBRANCH  13  15
BRANCH  13  16
ATOM     16  C   UNL     1       1.821   5.125  20.583  0.00  0.00    +0.000 C 
ATOM     17  C   UNL     1       1.821   6.649  20.447  0.00  0.00    +0.000 C 
ENDBRANCH  13  16
ENDBRANCH  12  13
ENDBRANCH  11  12
ENDBRANCH   7  11
ENDBRANCH   1   8
BRANCH   4  18
ATOM     18  N   UNL     1       8.445   9.779  17.845  0.00  0.00    +0.000 N 
ATOM     19  C   UNL     1       9.026  10.419  18.931  0.00  0.00    +0.000 C 
ATOM     20  O   UNL     1       9.134   9.940  20.055  0.00  0.00    +0.000 OA
ATOM     21  H   UNL     1       8.557  10.239  16.940  0.00  0.00    +0.000 HD
BRANCH  19  22
ATOM     22  C   UNL     1       9.575  11.724  18.614  0.00  0.00    +0.000 A 
ATOM     23  O   UNL     1       8.727  12.783  18.460  0.00  0.00    +0.000 OA
ATOM     24  C   UNL     1       9.478  13.853  18.080  0.00  0.00    +0.000 A 
ATOM     25  C   UNL     1       9.015  15.148  17.843  0.00  0.00    +0.000 A 
ATOM     26 CL   UNL     1       7.393  15.595  18.166  0.00  0.00    +0.000 Cl
ATOM     27  C   UNL     1       9.936  16.075  17.353  0.00  0.00    +0.000 A 
ATOM     28  C   UNL     1      11.264  15.707  17.115  0.00  0.00    +0.000 A 
ATOM     29  C   UNL     1      11.721  14.420  17.428  0.00  0.00    +0.000 A 
ATOM     30  C   UNL     1      10.810  13.477  17.943  0.00  0.00    +0.000 A 
ATOM     31  C   UNL     1      10.889  12.137  18.431  0.00  0.00    +0.000 A 
ATOM     32  C   UNL     1      12.113  11.334  18.692  0.00  0.00    +0.000 C 
ENDBRANCH  19  22
ENDBRANCH   4  18
TORSDOF 8
ENDMDL
