MODEL 1
REMARK VINA RESULT:      -9.1      0.000      0.000
REMARK  Name = 
REMARK  5 active torsions:
REMARK  status: ('A' for Active; 'I' for Inactive)
REMARK    1  A    between atoms: C_1  and  C_2
REMARK    2  A    between atoms: C_13  and  C_14
REMARK    3  A    between atoms: C_20  and  N_21
REMARK    4  A    between atoms: N_21  and  C_22
REMARK    5  A    between atoms: N_21  and  C_23
REMARK                            x       y       z     vdW  Elec       q    Type
REMARK                         _______ _______ _______ _____ _____    ______ ____
ROOT
ATOM      1  C   UNL     1       1.169   3.872  19.876  0.00  0.00    +0.000 C 
ATOM      2  C   UNL     1       2.653   3.688  20.072  0.00  0.00    +0.000 C 
ATOM      3  O   UNL     1       3.066   2.905  20.929  0.00  0.00    +0.000 OA
ATOM      4  N   UNL     1       3.520   4.411  19.266  0.00  0.00    +0.000 N 
ATOM      5  C   UNL     1       4.946   4.100  19.385  0.00  0.00    +0.000 C 
ATOM      6  C   UNL     1       5.835   5.156  18.789  0.00  0.00    +0.000 A 
ATOM      7  C   UNL     1       7.044   5.514  19.390  0.00  0.00    +0.000 A 
ATOM      8  C   UNL     1       7.848   6.493  18.809  0.00  0.00    +0.000 A 
ATOM      9  C   UNL     1       7.460   7.105  17.617  0.00  0.00    +0.000 A 
ATOM     10  C   UNL     1       6.266   6.738  16.995  0.00  0.00    +0.000 A 
ATOM     11  C   UNL     1       5.451   5.770  17.584  0.00  0.00    +0.000 A 
ATOM     12  C   UNL     1       4.118   5.373  17.005  0.00  0.00    +0.000 C 
ATOM     13  C   UNL     1       3.086   5.294  18.153  0.00  0.00    +0.000 C 
ENDROOT
BRANCH  13  14
ATOM     14  C   UNL     1       2.736   6.738  18.586  0.00  0.00    +0.000 C 
ATOM     15  O   UNL     1       2.922   7.649  17.775  0.00  0.00    +0.000 OA
ATOM     16  N   UNL     1       2.262   6.893  19.875  0.00  0.00    +0.000 N 
ATOM     17  C   UNL     1       1.712   8.096  20.355  0.00  0.00    +0.000 A 
ATOM     18  C   UNL     1       1.470   8.250  21.709  0.00  0.00    +0.000 A 
ATOM     19  C   UNL     1       0.864   9.437  22.165  0.00  0.00    +0.000 A 
ATOM     20  C   UNL     1       0.484  10.459  21.288  0.00  0.00    +0.000 A 
ATOM     21  C   UNL     1       0.796  10.192  19.956  0.00  0.00    +0.000 A 
ATOM     22  N   UNL     1       1.379   9.062  19.481  0.00  0.00    +0.000 NA
ATOM     23  H   UNL     1       2.373   6.121  20.520  0.00  0.00    +0.000 HD
BRANCH  20  24
ATOM     24  N   UNL     1      -0.169  11.602  21.709  0.00  0.00    +0.000 N 
ATOM     25  C   UNL     1       0.090  12.911  21.119  0.00  0.00    +0.000 C 
ATOM     26  C   UNL     1      -1.114  11.604  22.819  0.00  0.00    +0.000 C 
ENDBRANCH  20  24
ENDBRANCH  13  14
TORSDOF 2
ENDMDL
MODEL 2
REMARK VINA RESULT:      -8.4      1.178      1.265
REMARK  Name = 
REMARK  5 active torsions:
REMARK  status: ('A' for Active; 'I' for Inactive)
REMARK    1  A    between atoms: C_1  and  C_2
REMARK    2  A    between atoms: C_13  and  C_14
REMARK    3  A    between atoms: C_20  and  N_21
REMARK    4  A    between atoms: N_21  and  C_22
REMARK    5  A    between atoms: N_21  and  C_23
REMARK                            x       y       z     vdW  Elec       q    Type
REMARK                         _______ _______ _______ _____ _____    ______ ____
ROOT
ATOM      1  C   UNL     1       1.711   4.055  17.599  0.00  0.00    +0.000 C 
ATOM      2  C   UNL     1       3.110   3.801  18.102  0.00  0.00    +0.000 C 
ATOM      3  O   UNL     1       3.354   2.781  18.747  0.00  0.00    +0.000 OA
ATOM      4  N   UNL     1       4.094   4.736  17.814  0.00  0.00    +0.000 N 
ATOM      5  C   UNL     1       5.465   4.387  18.191  0.00  0.00    +0.000 C 
ATOM      6  C   UNL     1       6.396   5.569  18.205  0.00  0.00    +0.000 A 
ATOM      7  C   UNL     1       7.390   5.701  19.178  0.00  0.00    +0.000 A 
ATOM      8  C   UNL     1       8.239   6.806  19.159  0.00  0.00    +0.000 A 
ATOM      9  C   UNL     1       8.113   7.773  18.161  0.00  0.00    +0.000 A 
ATOM     10  C   UNL     1       7.139   7.638  17.172  0.00  0.00    +0.000 A 
ATOM     11  C   UNL     1       6.276   6.541  17.197  0.00  0.00    +0.000 A 
ATOM     12  C   UNL     1       5.159   6.366  16.201  0.00  0.00    +0.000 C 
ATOM     13  C   UNL     1       3.885   5.935  16.961  0.00  0.00    +0.000 C 
ENDROOT
BRANCH  13  14
ATOM     14  C   UNL     1       3.336   7.166  17.720  0.00  0.00    +0.000 C 
ATOM     15  O   UNL     1       3.471   8.277  17.201  0.00  0.00    +0.000 OA
ATOM     16  N   UNL     1       2.752   6.919  18.948  0.00  0.00    +0.000 N 
ATOM     17  C   UNL     1       2.031   7.889  19.668  0.00  0.00    +0.000 A 
ATOM     18  C   UNL     1       1.672   7.646  20.983  0.00  0.00    +0.000 A 
ATOM     19  C   UNL     1       0.898   8.601  21.670  0.00  0.00    +0.000 A 
ATOM     20  C   UNL     1       0.466   9.782  21.058  0.00  0.00    +0.000 A 
ATOM     21  C   UNL     1       0.904   9.918  19.742  0.00  0.00    +0.000 A 
ATOM     22  N   UNL     1       1.651   9.020  19.049  0.00  0.00    +0.000 NA
ATOM     23  H   UNL     1       2.906   6.015  19.377  0.00  0.00    +0.000 HD
BRANCH  20  24
ATOM     24  N   UNL     1      -0.348  10.700  21.695  0.00  0.00    +0.000 N 
ATOM     25  C   UNL     1      -0.652  12.006  21.117  0.00  0.00    +0.000 C 
ATOM     26  C   UNL     1      -0.908  10.469  23.020  0.00  0.00    +0.000 C 
ENDBRANCH  20  24
ENDBRANCH  13  14
TORSDOF 2
ENDMDL
MODEL 3
REMARK VINA RESULT:      -8.2      2.181      4.218
REMARK  Name = 
REMARK  5 active torsions:
REMARK  status: ('A' for Active; 'I' for Inactive)
REMARK    1  A    between atoms: C_1  and  C_2
REMARK    2  A    between atoms: C_13  and  C_14
REMARK    3  A    between atoms: C_20  and  N_21
REMARK    4  A    between atoms: N_21  and  C_22
REMARK    5  A    between atoms: N_21  and  C_23
REMARK                            x       y       z     vdW  Elec       q    Type
REMARK                         _______ _______ _______ _____ _____    ______ ____
ROOT
ATOM      1  C   UNL     1       6.791   5.318  16.036  0.00  0.00    +0.000 C 
ATOM      2  C   UNL     1       5.810   4.174  16.104  0.00  0.00    +0.000 C 
ATOM      3  O   UNL     1       5.785   3.333  15.205  0.00  0.00    +0.000 OA
ATOM      4  N   UNL     1       4.958   4.101  17.197  0.00  0.00    +0.000 N 
ATOM      5  C   UNL     1       4.123   2.903  17.302  0.00  0.00    +0.000 C 
ATOM      6  C   UNL     1       2.979   3.060  18.266  0.00  0.00    +0.000 A 
ATOM      7  C   UNL     1       1.724   2.507  18.002  0.00  0.00    +0.000 A 
ATOM      8  C   UNL     1       0.686   2.666  18.918  0.00  0.00    +0.000 A 
ATOM      9  C   UNL     1       0.900   3.361  20.109  0.00  0.00    +0.000 A 
ATOM     10  C   UNL     1       2.156   3.897  20.393  0.00  0.00    +0.000 A 
ATOM     11  C   UNL     1       3.193   3.754  19.470  0.00  0.00    +0.000 A 
ATOM     12  C   UNL     1       4.555   4.364  19.679  0.00  0.00    +0.000 C 
ATOM     13  C   UNL     1       5.006   5.027  18.358  0.00  0.00    +0.000 C 
ENDROOT
BRANCH  13  14
ATOM     14  C   UNL     1       4.190   6.327  18.168  0.00  0.00    +0.000 C 
ATOM     15  O   UNL     1       4.346   6.964  17.122  0.00  0.00    +0.000 OA
ATOM     16  N   UNL     1       3.359   6.688  19.211  0.00  0.00    +0.000 N 
ATOM     17  C   UNL     1       2.408   7.720  19.118  0.00  0.00    +0.000 A 
ATOM     18  C   UNL     1       1.774   8.178  20.260  0.00  0.00    +0.000 A 
ATOM     19  C   UNL     1       0.781   9.170  20.142  0.00  0.00    +0.000 A 
ATOM     20  C   UNL     1       0.403   9.695  18.902  0.00  0.00    +0.000 A 
ATOM     21  C   UNL     1       1.124   9.166  17.832  0.00  0.00    +0.000 A 
ATOM     22  N   UNL     1       2.087   8.212  17.908  0.00  0.00    +0.000 NA
ATOM     23  H   UNL     1       3.486   6.227  20.103  0.00  0.00    +0.000 HD
BRANCH  20  24
ATOM     24  N   UNL     1      -0.613  10.620  18.760  0.00  0.00    +0.000 N 
ATOM     25  C   UNL     1      -1.859  10.311  18.064  0.00  0.00    +0.000 C 
ATOM     26  C   UNL     1      -0.496  11.996  19.229  0.00  0.00    +0.000 C 
ENDBRANCH  20  24
ENDBRANCH  13  14
TORSDOF 2
ENDMDL
MODEL 4
REMARK VINA RESULT:      -7.8      1.465      2.052
REMARK  Name = 
REMARK  5 active torsions:
REMARK  status: ('A' for Active; 'I' for Inactive)
REMARK    1  A    between atoms: C_1  and  C_2
REMARK    2  A    between atoms: C_13  and  C_14
REMARK    3  A    between atoms: C_20  and  N_21
REMARK    4  A    between atoms: N_21  and  C_22
REMARK    5  A    between atoms: N_21  and  C_23
REMARK                            x       y       z     vdW  Elec       q    Type
REMARK                         _______ _______ _______ _____ _____    ______ ____
ROOT
ATOM      1  C   UNL     1       2.688   2.047  19.609  0.00  0.00    +0.000 C 
ATOM      2  C   UNL     1       4.148   2.423  19.646  0.00  0.00    +0.000 C 
ATOM      3  O   UNL     1       4.936   1.756  20.317  0.00  0.00    +0.000 OA
ATOM      4  N   UNL     1       4.565   3.520  18.906  0.00  0.00    +0.000 N 
ATOM      5  C   UNL     1       6.007   3.767  18.849  0.00  0.00    +0.000 C 
ATOM      6  C   UNL     1       6.354   5.150  18.371  0.00  0.00    +0.000 A 
ATOM      7  C   UNL     1       7.421   5.865  18.922  0.00  0.00    +0.000 A 
ATOM      8  C   UNL     1       7.719   7.142  18.452  0.00  0.00    +0.000 A 
ATOM      9  C   UNL     1       6.967   7.705  17.420  0.00  0.00    +0.000 A 
ATOM     10  C   UNL     1       5.915   6.991  16.848  0.00  0.00    +0.000 A 
ATOM     11  C   UNL     1       5.603   5.718  17.327  0.00  0.00    +0.000 A 
ATOM     12  C   UNL     1       4.440   4.917  16.802  0.00  0.00    +0.000 C 
ATOM     13  C   UNL     1       3.684   4.303  18.002  0.00  0.00    +0.000 C 
ENDROOT
BRANCH  13  14
ATOM     14  C   UNL     1       2.896   5.434  18.706  0.00  0.00    +0.000 C 
ATOM     15  O   UNL     1       2.552   5.260  19.878  0.00  0.00    +0.000 OA
ATOM     16  N   UNL     1       2.616   6.552  17.944  0.00  0.00    +0.000 N 
ATOM     17  C   UNL     1       2.092   7.741  18.483  0.00  0.00    +0.000 A 
ATOM     18  C   UNL     1       1.625   8.733  17.638  0.00  0.00    +0.000 A 
ATOM     19  C   UNL     1       1.159   9.941  18.193  0.00  0.00    +0.000 A 
ATOM     20  C   UNL     1       1.170  10.176  19.571  0.00  0.00    +0.000 A 
ATOM     21  C   UNL     1       1.647   9.098  20.314  0.00  0.00    +0.000 A 
ATOM     22  N   UNL     1       2.103   7.920  19.816  0.00  0.00    +0.000 NA
ATOM     23  H   UNL     1       2.737   6.488  16.941  0.00  0.00    +0.000 HD
BRANCH  20  24
ATOM     24  N   UNL     1       0.778  11.379  20.129  0.00  0.00    +0.000 N 
ATOM     25  C   UNL     1       0.054  11.452  21.394  0.00  0.00    +0.000 C 
ATOM     26  C   UNL     1       0.992  12.660  19.467  0.00  0.00    +0.000 C 
ENDBRANCH  20  24
ENDBRANCH  13  14
TORSDOF 2
ENDMDL
MODEL 5
REMARK VINA RESULT:      -7.7      1.508      1.973
REMARK  Name = 
REMARK  5 active torsions:
REMARK  status: ('A' for Active; 'I' for Inactive)
REMARK    1  A    between atoms: C_1  and  C_2
REMARK    2  A    between atoms: C_13  and  C_14
REMARK    3  A    between atoms: C_20  and  N_21
REMARK    4  A    between atoms: N_21  and  C_22
REMARK    5  A    between atoms: N_21  and  C_23
REMARK                            x       y       z     vdW  Elec       q    Type
REMARK                         _______ _______ _______ _____ _____    ______ ____
ROOT
ATOM      1  C   UNL     1       1.786   2.377  20.821  0.00  0.00    +0.000 C 
ATOM      2  C   UNL     1       3.269   2.612  20.673  0.00  0.00    +0.000 C 
ATOM      3  O   UNL     1       4.058   2.039  21.425  0.00  0.00    +0.000 OA
ATOM      4  N   UNL     1       3.704   3.474  19.677  0.00  0.00    +0.000 N 
ATOM      5  C   UNL     1       5.150   3.564  19.469  0.00  0.00    +0.000 C 
ATOM      6  C   UNL     1       5.560   4.768  18.666  0.00  0.00    +0.000 A 
ATOM      7  C   UNL     1       6.723   5.482  18.967  0.00  0.00    +0.000 A 
ATOM      8  C   UNL     1       7.077   6.590  18.200  0.00  0.00    +0.000 A 
ATOM      9  C   UNL     1       6.285   6.979  17.119  0.00  0.00    +0.000 A 
ATOM     10  C   UNL     1       5.135   6.259  16.795  0.00  0.00    +0.000 A 
ATOM     11  C   UNL     1       4.769   5.159  17.572  0.00  0.00    +0.000 A 
ATOM     12  C   UNL     1       3.506   4.376  17.323  0.00  0.00    +0.000 C 
ATOM     13  C   UNL     1       2.811   4.117  18.679  0.00  0.00    +0.000 C 
ENDROOT
BRANCH  13  14
ATOM     14  C   UNL     1       2.177   5.445  19.157  0.00  0.00    +0.000 C 
ATOM     15  O   UNL     1       1.603   5.455  20.250  0.00  0.00    +0.000 OA
ATOM     16  N   UNL     1       2.284   6.521  18.296  0.00  0.00    +0.000 N 
ATOM     17  C   UNL     1       1.944   7.837  18.660  0.00  0.00    +0.000 A 
ATOM     18  C   UNL     1       1.859   8.820  17.690  0.00  0.00    +0.000 A 
ATOM     19  C   UNL     1       1.577  10.143  18.078  0.00  0.00    +0.000 A 
ATOM     20  C   UNL     1       1.397  10.499  19.419  0.00  0.00    +0.000 A 
ATOM     21  C   UNL     1       1.491   9.420  20.297  0.00  0.00    +0.000 A 
ATOM     22  N   UNL     1       1.760   8.133  19.959  0.00  0.00    +0.000 NA
ATOM     23  H   UNL     1       2.562   6.341  17.340  0.00  0.00    +0.000 HD
BRANCH  20  24
ATOM     24  N   UNL     1       1.184  11.803  19.825  0.00  0.00    +0.000 N 
ATOM     25  C   UNL     1       1.925  12.927  19.261  0.00  0.00    +0.000 C 
ATOM     26  C   UNL     1       0.256  12.152  20.894  0.00  0.00    +0.000 C 
ENDBRANCH  20  24
ENDBRANCH  13  14
TORSDOF 2
ENDMDL
MODEL 6
REMARK VINA RESULT:      -7.3      2.689      7.802
REMARK  Name = 
REMARK  5 active torsions:
REMARK  status: ('A' for Active; 'I' for Inactive)
REMARK    1  A    between atoms: C_1  and  C_2
REMARK    2  A    between atoms: C_13  and  C_14
REMARK    3  A    between atoms: C_20  and  N_21
REMARK    4  A    between atoms: N_21  and  C_22
REMARK    5  A    between atoms: N_21  and  C_23
REMARK                            x       y       z     vdW  Elec       q    Type
REMARK                         _______ _______ _______ _____ _____    ______ ____
ROOT
ATOM      1  C   UNL     1      -2.635   9.862  18.177  0.00  0.00    +0.000 C 
ATOM      2  C   UNL     1      -1.915  11.101  17.706  0.00  0.00    +0.000 C 
ATOM      3  O   UNL     1      -2.143  11.554  16.584  0.00  0.00    +0.000 OA
ATOM      4  N   UNL     1      -1.008  11.703  18.567  0.00  0.00    +0.000 N 
ATOM      5  C   UNL     1      -0.438  12.981  18.134  0.00  0.00    +0.000 C 
ATOM      6  C   UNL     1       0.790  13.374  18.907  0.00  0.00    +0.000 A 
ATOM      7  C   UNL     1       1.874  13.998  18.284  0.00  0.00    +0.000 A 
ATOM      8  C   UNL     1       2.996  14.354  19.030  0.00  0.00    +0.000 A 
ATOM      9  C   UNL     1       3.034  14.108  20.403  0.00  0.00    +0.000 A 
ATOM     10  C   UNL     1       1.948  13.508  21.040  0.00  0.00    +0.000 A 
ATOM     11  C   UNL     1       0.830  13.134  20.292  0.00  0.00    +0.000 A 
ATOM     12  C   UNL     1      -0.350  12.421  20.900  0.00  0.00    +0.000 C 
ATOM     13  C   UNL     1      -0.762  11.263  19.964  0.00  0.00    +0.000 C 
ENDROOT
BRANCH  13  14
ATOM     14  C   UNL     1       0.291  10.137  20.098  0.00  0.00    +0.000 C 
ATOM     15  O   UNL     1       0.482   9.650  21.216  0.00  0.00    +0.000 OA
ATOM     16  N   UNL     1       0.960   9.782  18.942  0.00  0.00    +0.000 N 
ATOM     17  C   UNL     1       1.793   8.652  18.850  0.00  0.00    +0.000 A 
ATOM     18  C   UNL     1       2.605   8.484  17.741  0.00  0.00    +0.000 A 
ATOM     19  C   UNL     1       3.388   7.318  17.636  0.00  0.00    +0.000 A 
ATOM     20  C   UNL     1       3.357   6.315  18.610  0.00  0.00    +0.000 A 
ATOM     21  C   UNL     1       2.515   6.608  19.682  0.00  0.00    +0.000 A 
ATOM     22  N   UNL     1       1.748   7.720  19.818  0.00  0.00    +0.000 NA
ATOM     23  H   UNL     1       0.894  10.400  18.144  0.00  0.00    +0.000 HD
BRANCH  20  24
ATOM     24  N   UNL     1       4.068   5.136  18.493  0.00  0.00    +0.000 N 
ATOM     25  C   UNL     1       5.377   4.949  19.112  0.00  0.00    +0.000 C 
ATOM     26  C   UNL     1       3.603   4.013  17.688  0.00  0.00    +0.000 C 
ENDBRANCH  20  24
ENDBRANCH  13  14
TORSDOF 2
ENDMDL
MODEL 7
REMARK VINA RESULT:      -7.2      1.980      4.206
REMARK  Name = 
REMARK  5 active torsions:
REMARK  status: ('A' for Active; 'I' for Inactive)
REMARK    1  A    between atoms: C_1  and  C_2
REMARK    2  A    between atoms: C_13  and  C_14
REMARK    3  A    between atoms: C_20  and  N_21
REMARK    4  A    between atoms: N_21  and  C_22
REMARK    5  A    between atoms: N_21  and  C_23
REMARK                            x       y       z     vdW  Elec       q    Type
REMARK                         _______ _______ _______ _____ _____    ______ ____
ROOT
ATOM      1  C   UNL     1       5.686   7.353  16.900  0.00  0.00    +0.000 C 
ATOM      2  C   UNL     1       5.180   5.994  16.485  0.00  0.00    +0.000 C 
ATOM      3  O   UNL     1       5.276   5.636  15.311  0.00  0.00    +0.000 OA
ATOM      4  N   UNL     1       4.619   5.176  17.455  0.00  0.00    +0.000 N 
ATOM      5  C   UNL     1       4.273   3.813  17.047  0.00  0.00    +0.000 C 
ATOM      6  C   UNL     1       3.341   3.125  18.007  0.00  0.00    +0.000 A 
ATOM      7  C   UNL     1       2.321   2.284  17.555  0.00  0.00    +0.000 A 
ATOM      8  C   UNL     1       1.478   1.658  18.470  0.00  0.00    +0.000 A 
ATOM      9  C   UNL     1       1.659   1.852  19.840  0.00  0.00    +0.000 A 
ATOM     10  C   UNL     1       2.689   2.671  20.303  0.00  0.00    +0.000 A 
ATOM     11  C   UNL     1       3.525   3.313  19.388  0.00  0.00    +0.000 A 
ATOM     12  C   UNL     1       4.613   4.264  19.813  0.00  0.00    +0.000 C 
ATOM     13  C   UNL     1       4.563   5.511  18.902  0.00  0.00    +0.000 C 
ENDROOT
BRANCH  13  14
ATOM     14  C   UNL     1       3.335   6.358  19.310  0.00  0.00    +0.000 C 
ATOM     15  O   UNL     1       2.784   6.102  20.385  0.00  0.00    +0.000 OA
ATOM     16  N   UNL     1       2.933   7.329  18.413  0.00  0.00    +0.000 N 
ATOM     17  C   UNL     1       1.971   8.309  18.716  0.00  0.00    +0.000 A 
ATOM     18  C   UNL     1       1.453   9.102  17.707  0.00  0.00    +0.000 A 
ATOM     19  C   UNL     1       0.536  10.118  18.036  0.00  0.00    +0.000 A 
ATOM     20  C   UNL     1       0.145  10.364  19.356  0.00  0.00    +0.000 A 
ATOM     21  C   UNL     1       0.722   9.490  20.277  0.00  0.00    +0.000 A 
ATOM     22  N   UNL     1       1.607   8.500  19.997  0.00  0.00    +0.000 NA
ATOM     23  H   UNL     1       3.306   7.292  17.472  0.00  0.00    +0.000 HD
BRANCH  20  24
ATOM     24  N   UNL     1      -0.703  11.397  19.706  0.00  0.00    +0.000 N 
ATOM     25  C   UNL     1      -0.835  11.866  21.082  0.00  0.00    +0.000 C 
ATOM     26  C   UNL     1      -1.582  12.053  18.746  0.00  0.00    +0.000 C 
ENDBRANCH  20  24
ENDBRANCH  13  14
TORSDOF 2
ENDMDL
MODEL 8
REMARK VINA RESULT:      -7.2      2.596      4.359
REMARK  Name = 
REMARK  5 active torsions:
REMARK  status: ('A' for Active; 'I' for Inactive)
REMARK    1  A    between atoms: C_1  and  C_2
REMARK    2  A    between atoms: C_13  and  C_14
REMARK    3  A    between atoms: C_20  and  N_21
REMARK    4  A    between atoms: N_21  and  C_22
REMARK    5  A    between atoms: N_21  and  C_23
REMARK                            x       y       z     vdW  Elec       q    Type
REMARK                         _______ _______ _______ _____ _____    ______ ____
ROOT
ATOM      1  C   UNL     1       5.521   6.633  15.705  0.00  0.00    +0.000 C 
ATOM      2  C   UNL     1       4.955   5.253  15.927  0.00  0.00    +0.000 C 
ATOM      3  O   UNL     1       5.128   4.376  15.081  0.00  0.00    +0.000 OA
ATOM      4  N   UNL     1       4.251   5.011  17.098  0.00  0.00    +0.000 N 
ATOM      5  C   UNL     1       3.843   3.626  17.346  0.00  0.00    +0.000 C 
ATOM      6  C   UNL     1       2.781   3.502  18.404  0.00  0.00    +0.000 A 
ATOM      7  C   UNL     1       1.746   2.571  18.291  0.00  0.00    +0.000 A 
ATOM      8  C   UNL     1       0.781   2.477  19.291  0.00  0.00    +0.000 A 
ATOM      9  C   UNL     1       0.853   3.298  20.417  0.00  0.00    +0.000 A 
ATOM     10  C   UNL     1       1.896   4.215  20.552  0.00  0.00    +0.000 A 
ATOM     11  C   UNL     1       2.855   4.323  19.543  0.00  0.00    +0.000 A 
ATOM     12  C   UNL     1       3.969   5.336  19.589  0.00  0.00    +0.000 C 
ATOM     13  C   UNL     1       4.092   5.997  18.198  0.00  0.00    +0.000 C 
ENDROOT
BRANCH  13  14
ATOM     14  C   UNL     1       2.898   6.964  18.016  0.00  0.00    +0.000 C 
ATOM     15  O   UNL     1       1.792   6.480  17.761  0.00  0.00    +0.000 OA
ATOM     16  N   UNL     1       3.179   8.312  18.129  0.00  0.00    +0.000 N 
ATOM     17  C   UNL     1       2.183   9.304  18.192  0.00  0.00    +0.000 A 
ATOM     18  C   UNL     1       2.533  10.639  18.075  0.00  0.00    +0.000 A 
ATOM     19  C   UNL     1       1.532  11.622  18.200  0.00  0.00    +0.000 A 
ATOM     20  C   UNL     1       0.198  11.292  18.456  0.00  0.00    +0.000 A 
ATOM     21  C   UNL     1      -0.029   9.919  18.536  0.00  0.00    +0.000 A 
ATOM     22  N   UNL     1       0.908   8.944  18.420  0.00  0.00    +0.000 NA
ATOM     23  H   UNL     1       4.149   8.601  18.104  0.00  0.00    +0.000 HD
BRANCH  20  24
ATOM     24  N   UNL     1      -0.786  12.245  18.646  0.00  0.00    +0.000 N 
ATOM     25  C   UNL     1      -2.200  11.897  18.741  0.00  0.00    +0.000 C 
ATOM     26  C   UNL     1      -0.498  13.673  18.697  0.00  0.00    +0.000 C 
ENDBRANCH  20  24
ENDBRANCH  13  14
TORSDOF 2
ENDMDL
MODEL 9
REMARK VINA RESULT:      -7.2      7.623      9.780
REMARK  Name = 
REMARK  5 active torsions:
REMARK  status: ('A' for Active; 'I' for Inactive)
REMARK    1  A    between atoms: C_1  and  C_2
REMARK    2  A    between atoms: C_13  and  C_14
REMARK    3  A    between atoms: C_20  and  N_21
REMARK    4  A    between atoms: N_21  and  C_22
REMARK    5  A    between atoms: N_21  and  C_23
REMARK                            x       y       z     vdW  Elec       q    Type
REMARK                         _______ _______ _______ _____ _____    ______ ____
ROOT
ATOM      1  C   UNL     1      10.348  17.559  18.198  0.00  0.00    +0.000 C 
ATOM      2  C   UNL     1      10.660  16.212  17.596  0.00  0.00    +0.000 C 
ATOM      3  O   UNL     1      11.074  16.139  16.438  0.00  0.00    +0.000 OA
ATOM      4  N   UNL     1      10.474  15.082  18.378  0.00  0.00    +0.000 N 
ATOM      5  C   UNL     1      10.923  13.808  17.813  0.00  0.00    +0.000 C 
ATOM      6  C   UNL     1      10.355  12.610  18.524  0.00  0.00    +0.000 A 
ATOM      7  C   UNL     1       9.971  11.463  17.825  0.00  0.00    +0.000 A 
ATOM      8  C   UNL     1       9.453  10.368  18.514  0.00  0.00    +0.000 A 
ATOM      9  C   UNL     1       9.333  10.405  19.904  0.00  0.00    +0.000 A 
ATOM     10  C   UNL     1       9.736  11.537  20.614  0.00  0.00    +0.000 A 
ATOM     11  C   UNL     1      10.239  12.641  19.924  0.00  0.00    +0.000 A 
ATOM     12  C   UNL     1      10.630  13.920  20.618  0.00  0.00    +0.000 C 
ATOM     13  C   UNL     1      10.071  15.111  19.808  0.00  0.00    +0.000 C 
ENDROOT
BRANCH  13  14
ATOM     14  C   UNL     1       8.542  15.174  20.036  0.00  0.00    +0.000 C 
ATOM     15  O   UNL     1       8.132  15.324  21.190  0.00  0.00    +0.000 OA
ATOM     16  N   UNL     1       7.748  15.030  18.914  0.00  0.00    +0.000 N 
ATOM     17  C   UNL     1       6.361  15.262  18.916  0.00  0.00    +0.000 A 
ATOM     18  C   UNL     1       5.597  14.881  17.826  0.00  0.00    +0.000 A 
ATOM     19  C   UNL     1       4.220  15.175  17.819  0.00  0.00    +0.000 A 
ATOM     20  C   UNL     1       3.602  15.857  18.872  0.00  0.00    +0.000 A 
ATOM     21  C   UNL     1       4.472  16.171  19.915  0.00  0.00    +0.000 A 
ATOM     22  N   UNL     1       5.802  15.904  19.958  0.00  0.00    +0.000 NA
ATOM     23  H   UNL     1       8.178  14.680  18.067  0.00  0.00    +0.000 HD
BRANCH  20  24
ATOM     24  N   UNL     1       2.266  16.211  18.853  0.00  0.00    +0.000 N 
ATOM     25  C   UNL     1       1.739  17.217  17.936  0.00  0.00    +0.000 C 
ATOM     26  C   UNL     1       1.294  15.663  19.791  0.00  0.00    +0.000 C 
ENDBRANCH  20  24
ENDBRANCH  13  14
TORSDOF 2
ENDMDL
