MODEL 1
REMARK VINA RESULT:      -8.5      0.000      0.000
REMARK  Name = 
REMARK  6 active torsions:
REMARK  status: ('A' for Active; 'I' for Inactive)
REMARK    1  A    between atoms: C_1  and  N_2
REMARK    2  A    between atoms: C_3  and  S_4
REMARK    3  A    between atoms: S_4  and  C_5
REMARK    4  A    between atoms: C_5  and  C_6
REMARK    5  A    between atoms: N_8  and  C_9
REMARK    6  A    between atoms: C_21  and  C_22
REMARK                            x       y       z     vdW  Elec       q    Type
REMARK                         _______ _______ _______ _____ _____    ______ ____
ROOT
ATOM      1  C   UNL     1       8.236   8.611  18.255  0.00  0.00    +0.000 C 
ATOM      2  O   UNL     1       7.600   9.185  17.371  0.00  0.00    +0.000 OA
ATOM      3  N   UNL     1       9.194   9.206  19.061  0.00  0.00    +0.000 N 
ATOM      4  H   UNL     1       9.739   8.580  19.645  0.00  0.00    +0.000 HD
ENDROOT
BRANCH   3   5
ATOM      5  C   UNL     1       9.474  10.584  19.180  0.00  0.00    +0.000 A 
ATOM      6  C   UNL     1       9.328  11.297  20.374  0.00  0.00    +0.000 A 
ATOM      7  C   UNL     1       9.655  12.655  20.439  0.00  0.00    +0.000 A 
ATOM      8  C   UNL     1      10.119  13.317  19.310  0.00  0.00    +0.000 A 
ATOM      9  C   UNL     1      10.288  12.612  18.116  0.00  0.00    +0.000 A 
ATOM     10  C   UNL     1       9.963  11.254  18.049  0.00  0.00    +0.000 A 
ATOM     11  O   UNL     1      10.761  13.196  16.967  0.00  0.00    +0.000 OA
ATOM     12  C   UNL     1      11.384  14.458  17.237  0.00  0.00    +0.000 C 
ATOM     13  C   UNL     1      10.539  15.295  18.184  0.00  0.00    +0.000 C 
ATOM     14  O   UNL     1      10.406  14.649  19.453  0.00  0.00    +0.000 OA
ENDBRANCH   3   5
BRANCH   1  15
ATOM     15  C   UNL     1       8.067   7.107  18.450  0.00  0.00    +0.000 C 
BRANCH  15  16
ATOM     16  S   UNL     1       6.995   6.368  17.179  0.00  0.00    +0.000 S 
BRANCH  16  19
ATOM     17  C   UNL     1       3.794   6.421  17.728  0.00  0.00    +0.000 C 
ATOM     18  N   UNL     1       4.671   5.415  18.270  0.00  0.00    +0.000 N 
ATOM     19  C   UNL     1       6.028   5.302  18.136  0.00  0.00    +0.000 A 
ATOM     20  N   UNL     1       6.459   4.278  18.834  0.00  0.00    +0.000 NA
ATOM     21  N   UNL     1       5.365   3.686  19.423  0.00  0.00    +0.000 NA
ATOM     22  C   UNL     1       4.290   4.362  19.069  0.00  0.00    +0.000 A 
BRANCH  22  23
ATOM     23  C   UNL     1       2.950   4.033  19.457  0.00  0.00    +0.000 A 
ATOM     24  C   UNL     1       2.241   4.475  20.564  0.00  0.00    +0.000 A 
ATOM     25  C   UNL     1       0.969   3.852  20.529  0.00  0.00    +0.000 A 
ATOM     26  C   UNL     1       0.964   3.067  19.403  0.00  0.00    +0.000 A 
ATOM     27  O   UNL     1       2.146   3.173  18.748  0.00  0.00    +0.000 OA
ENDBRANCH  22  23
ENDBRANCH  16  19
ENDBRANCH  15  16
ENDBRANCH   1  15
TORSDOF 5
ENDMDL
MODEL 2
REMARK VINA RESULT:      -8.4      6.374      7.646
REMARK  Name = 
REMARK  6 active torsions:
REMARK  status: ('A' for Active; 'I' for Inactive)
REMARK    1  A    between atoms: C_1  and  N_2
REMARK    2  A    between atoms: C_3  and  S_4
REMARK    3  A    between atoms: S_4  and  C_5
REMARK    4  A    between atoms: C_5  and  C_6
REMARK    5  A    between atoms: N_8  and  C_9
REMARK    6  A    between atoms: C_21  and  C_22
REMARK                            x       y       z     vdW  Elec       q    Type
REMARK                         _______ _______ _______ _____ _____    ______ ____
ROOT
ATOM      1  C   UNL     1       1.675   4.757  20.789  0.00  0.00    +0.000 C 
ATOM      2  O   UNL     1       0.581   4.589  20.252  0.00  0.00    +0.000 OA
ATOM      3  N   UNL     1       2.486   5.869  20.613  0.00  0.00    +0.000 N 
ATOM      4  H   UNL     1       3.420   5.806  21.002  0.00  0.00    +0.000 HD
ENDROOT
BRANCH   3   5
ATOM      5  C   UNL     1       2.144   7.083  19.982  0.00  0.00    +0.000 A 
ATOM      6  C   UNL     1       2.446   7.366  18.646  0.00  0.00    +0.000 A 
ATOM      7  C   UNL     1       2.050   8.575  18.065  0.00  0.00    +0.000 A 
ATOM      8  C   UNL     1       1.360   9.518  18.815  0.00  0.00    +0.000 A 
ATOM      9  C   UNL     1       1.035   9.241  20.145  0.00  0.00    +0.000 A 
ATOM     10  C   UNL     1       1.428   8.032  20.727  0.00  0.00    +0.000 A 
ATOM     11  O   UNL     1       0.338  10.116  20.940  0.00  0.00    +0.000 OA
ATOM     12  C   UNL     1      -0.308  11.132  20.162  0.00  0.00    +0.000 C 
ATOM     13  C   UNL     1       0.631  11.695  19.107  0.00  0.00    +0.000 C 
ATOM     14  O   UNL     1       1.018  10.680  18.177  0.00  0.00    +0.000 OA
ENDBRANCH   3   5
BRANCH   1  15
ATOM     15  C   UNL     1       2.277   3.644  21.642  0.00  0.00    +0.000 C 
BRANCH  15  16
ATOM     16  S   UNL     1       2.821   2.229  20.636  0.00  0.00    +0.000 S 
BRANCH  16  19
ATOM     17  C   UNL     1       2.767   2.916  17.462  0.00  0.00    +0.000 C 
ATOM     18  N   UNL     1       3.883   3.228  18.318  0.00  0.00    +0.000 N 
ATOM     19  C   UNL     1       4.036   2.966  19.652  0.00  0.00    +0.000 A 
ATOM     20  N   UNL     1       5.224   3.358  20.049  0.00  0.00    +0.000 NA
ATOM     21  N   UNL     1       5.862   3.911  18.963  0.00  0.00    +0.000 NA
ATOM     22  C   UNL     1       5.049   3.847  17.928  0.00  0.00    +0.000 A 
BRANCH  22  23
ATOM     23  C   UNL     1       5.343   4.352  16.619  0.00  0.00    +0.000 A 
ATOM     24  C   UNL     1       5.131   5.629  16.121  0.00  0.00    +0.000 A 
ATOM     25  C   UNL     1       5.560   5.633  14.771  0.00  0.00    +0.000 A 
ATOM     26  C   UNL     1       6.016   4.364  14.515  0.00  0.00    +0.000 A 
ATOM     27  O   UNL     1       5.896   3.588  15.620  0.00  0.00    +0.000 OA
ENDBRANCH  22  23
ENDBRANCH  16  19
ENDBRANCH  15  16
ENDBRANCH   1  15
TORSDOF 5
ENDMDL
MODEL 3
REMARK VINA RESULT:      -8.3      6.469      7.780
REMARK  Name = 
REMARK  6 active torsions:
REMARK  status: ('A' for Active; 'I' for Inactive)
REMARK    1  A    between atoms: C_1  and  N_2
REMARK    2  A    between atoms: C_3  and  S_4
REMARK    3  A    between atoms: S_4  and  C_5
REMARK    4  A    between atoms: C_5  and  C_6
REMARK    5  A    between atoms: N_8  and  C_9
REMARK    6  A    between atoms: C_21  and  C_22
REMARK                            x       y       z     vdW  Elec       q    Type
REMARK                         _______ _______ _______ _____ _____    ______ ____
ROOT
ATOM      1  C   UNL     1       1.588   4.859  20.746  0.00  0.00    +0.000 C 
ATOM      2  O   UNL     1       0.414   4.775  20.388  0.00  0.00    +0.000 OA
ATOM      3  N   UNL     1       2.428   5.930  20.477  0.00  0.00    +0.000 N 
ATOM      4  H   UNL     1       3.407   5.798  20.707  0.00  0.00    +0.000 HD
ENDROOT
BRANCH   3   5
ATOM      5  C   UNL     1       2.066   7.187  19.948  0.00  0.00    +0.000 A 
ATOM      6  C   UNL     1       2.300   7.558  18.620  0.00  0.00    +0.000 A 
ATOM      7  C   UNL     1       1.887   8.806  18.143  0.00  0.00    +0.000 A 
ATOM      8  C   UNL     1       1.247   9.700  18.991  0.00  0.00    +0.000 A 
ATOM      9  C   UNL     1       0.989   9.336  20.315  0.00  0.00    +0.000 A 
ATOM     10  C   UNL     1       1.400   8.087  20.793  0.00  0.00    +0.000 A 
ATOM     11  O   UNL     1       0.344  10.160  21.203  0.00  0.00    +0.000 OA
ATOM     12  C   UNL     1      -0.332  11.230  20.530  0.00  0.00    +0.000 C 
ATOM     13  C   UNL     1       0.556  11.857  19.467  0.00  0.00    +0.000 C 
ATOM     14  O   UNL     1       0.884  10.906  18.452  0.00  0.00    +0.000 OA
ENDBRANCH   3   5
BRANCH   1  15
ATOM     15  C   UNL     1       2.248   3.680  21.455  0.00  0.00    +0.000 C 
BRANCH  15  16
ATOM     16  S   UNL     1       2.185   2.160  20.458  0.00  0.00    +0.000 S 
BRANCH  16  19
ATOM     17  C   UNL     1       4.949   3.493  19.395  0.00  0.00    +0.000 C 
ATOM     18  N   UNL     1       3.796   3.292  18.555  0.00  0.00    +0.000 N 
ATOM     19  C   UNL     1       2.576   2.773  18.889  0.00  0.00    +0.000 A 
ATOM     20  N   UNL     1       1.775   2.814  17.850  0.00  0.00    +0.000 NA
ATOM     21  N   UNL     1       2.486   3.350  16.800  0.00  0.00    +0.000 NA
ATOM     22  C   UNL     1       3.705   3.621  17.222  0.00  0.00    +0.000 A 
BRANCH  22  23
ATOM     23  C   UNL     1       4.753   4.163  16.408  0.00  0.00    +0.000 A 
ATOM     24  C   UNL     1       4.999   5.491  16.092  0.00  0.00    +0.000 A 
ATOM     25  C   UNL     1       6.130   5.520  15.238  0.00  0.00    +0.000 A 
ATOM     26  C   UNL     1       6.519   4.213  15.081  0.00  0.00    +0.000 A 
ATOM     27  O   UNL     1       5.703   3.390  15.785  0.00  0.00    +0.000 OA
ENDBRANCH  22  23
ENDBRANCH  16  19
ENDBRANCH  15  16
ENDBRANCH   1  15
TORSDOF 5
ENDMDL
MODEL 4
REMARK VINA RESULT:      -8.0      1.158      1.996
REMARK  Name = 
REMARK  6 active torsions:
REMARK  status: ('A' for Active; 'I' for Inactive)
REMARK    1  A    between atoms: C_1  and  N_2
REMARK    2  A    between atoms: C_3  and  S_4
REMARK    3  A    between atoms: S_4  and  C_5
REMARK    4  A    between atoms: C_5  and  C_6
REMARK    5  A    between atoms: N_8  and  C_9
REMARK    6  A    between atoms: C_21  and  C_22
REMARK                            x       y       z     vdW  Elec       q    Type
REMARK                         _______ _______ _______ _____ _____    ______ ____
ROOT
ATOM      1  C   UNL     1       8.146   8.507  18.210  0.00  0.00    +0.000 C 
ATOM      2  O   UNL     1       7.554   9.134  17.333  0.00  0.00    +0.000 OA
ATOM      3  N   UNL     1       9.096   9.040  19.068  0.00  0.00    +0.000 N 
ATOM      4  H   UNL     1       9.604   8.375  19.641  0.00  0.00    +0.000 HD
ENDROOT
BRANCH   3   5
ATOM      5  C   UNL     1       9.411  10.403  19.252  0.00  0.00    +0.000 A 
ATOM      6  C   UNL     1       9.763  11.258  18.203  0.00  0.00    +0.000 A 
ATOM      7  C   UNL     1      10.031  12.610  18.442  0.00  0.00    +0.000 A 
ATOM      8  C   UNL     1       9.962  13.118  19.733  0.00  0.00    +0.000 A 
ATOM      9  C   UNL     1       9.593  12.279  20.788  0.00  0.00    +0.000 A 
ATOM     10  C   UNL     1       9.323  10.928  20.550  0.00  0.00    +0.000 A 
ATOM     11  O   UNL     1       9.485  12.716  22.084  0.00  0.00    +0.000 OA
ATOM     12  C   UNL     1       9.431  14.147  22.154  0.00  0.00    +0.000 C 
ATOM     13  C   UNL     1      10.483  14.780  21.257  0.00  0.00    +0.000 C 
ATOM     14  O   UNL     1      10.249  14.448  19.886  0.00  0.00    +0.000 OA
ENDBRANCH   3   5
BRANCH   1  15
ATOM     15  C   UNL     1       7.929   7.002  18.339  0.00  0.00    +0.000 C 
BRANCH  15  16
ATOM     16  S   UNL     1       6.656   6.394  17.190  0.00  0.00    +0.000 S 
BRANCH  16  19
ATOM     17  C   UNL     1       3.511   6.248  17.989  0.00  0.00    +0.000 C 
ATOM     18  N   UNL     1       4.482   5.279  18.428  0.00  0.00    +0.000 N 
ATOM     19  C   UNL     1       5.828   5.248  18.185  0.00  0.00    +0.000 A 
ATOM     20  N   UNL     1       6.369   4.231  18.813  0.00  0.00    +0.000 NA
ATOM     21  N   UNL     1       5.360   3.561  19.466  0.00  0.00    +0.000 NA
ATOM     22  C   UNL     1       4.224   4.184  19.220  0.00  0.00    +0.000 A 
BRANCH  22  23
ATOM     23  C   UNL     1       2.940   3.768  19.701  0.00  0.00    +0.000 A 
ATOM     24  C   UNL     1       1.761   3.615  18.986  0.00  0.00    +0.000 A 
ATOM     25  C   UNL     1       0.759   3.212  19.903  0.00  0.00    +0.000 A 
ATOM     26  C   UNL     1       1.375   3.135  21.126  0.00  0.00    +0.000 A 
ATOM     27  O   UNL     1       2.687   3.461  21.016  0.00  0.00    +0.000 OA
ENDBRANCH  22  23
ENDBRANCH  16  19
ENDBRANCH  15  16
ENDBRANCH   1  15
TORSDOF 5
ENDMDL
MODEL 5
REMARK VINA RESULT:      -7.9      1.096      1.143
REMARK  Name = 
REMARK  6 active torsions:
REMARK  status: ('A' for Active; 'I' for Inactive)
REMARK    1  A    between atoms: C_1  and  N_2
REMARK    2  A    between atoms: C_3  and  S_4
REMARK    3  A    between atoms: S_4  and  C_5
REMARK    4  A    between atoms: C_5  and  C_6
REMARK    5  A    between atoms: N_8  and  C_9
REMARK    6  A    between atoms: C_21  and  C_22
REMARK                            x       y       z     vdW  Elec       q    Type
REMARK                         _______ _______ _______ _____ _____    ______ ____
ROOT
ATOM      1  C   UNL     1       7.841   8.313  17.950  0.00  0.00    +0.000 C 
ATOM      2  O   UNL     1       8.572   7.599  18.636  0.00  0.00    +0.000 OA
ATOM      3  N   UNL     1       7.912   9.696  17.883  0.00  0.00    +0.000 N 
ATOM      4  H   UNL     1       7.156  10.159  17.392  0.00  0.00    +0.000 HD
ENDROOT
BRANCH   3   5
ATOM      5  C   UNL     1       8.933  10.524  18.397  0.00  0.00    +0.000 A 
ATOM      6  C   UNL     1       9.415  10.428  19.706  0.00  0.00    +0.000 A 
ATOM      7  C   UNL     1      10.453  11.253  20.148  0.00  0.00    +0.000 A 
ATOM      8  C   UNL     1      11.013  12.191  19.290  0.00  0.00    +0.000 A 
ATOM      9  C   UNL     1      10.555  12.285  17.974  0.00  0.00    +0.000 A 
ATOM     10  C   UNL     1       9.517  11.460  17.530  0.00  0.00    +0.000 A 
ATOM     11  O   UNL     1      11.074  13.174  17.067  0.00  0.00    +0.000 OA
ATOM     12  C   UNL     1      12.333  13.699  17.506  0.00  0.00    +0.000 C 
ATOM     13  C   UNL     1      12.277  14.103  18.971  0.00  0.00    +0.000 C 
ATOM     14  O   UNL     1      12.018  12.969  19.802  0.00  0.00    +0.000 OA
ENDBRANCH   3   5
BRANCH   1  15
ATOM     15  C   UNL     1       6.687   7.685  17.173  0.00  0.00    +0.000 C 
BRANCH  15  16
ATOM     16  S   UNL     1       7.010   5.944  16.759  0.00  0.00    +0.000 S 
BRANCH  16  19
ATOM     17  C   UNL     1       3.795   5.896  17.219  0.00  0.00    +0.000 C 
ATOM     18  N   UNL     1       4.722   5.171  18.050  0.00  0.00    +0.000 N 
ATOM     19  C   UNL     1       6.087   5.134  17.976  0.00  0.00    +0.000 A 
ATOM     20  N   UNL     1       6.566   4.401  18.954  0.00  0.00    +0.000 NA
ATOM     21  N   UNL     1       5.496   3.923  19.676  0.00  0.00    +0.000 NA
ATOM     22  C   UNL     1       4.389   4.374  19.121  0.00  0.00    +0.000 A 
BRANCH  22  23
ATOM     23  C   UNL     1       3.062   4.067  19.570  0.00  0.00    +0.000 A 
ATOM     24  C   UNL     1       2.340   4.663  20.593  0.00  0.00    +0.000 A 
ATOM     25  C   UNL     1       1.091   3.997  20.673  0.00  0.00    +0.000 A 
ATOM     26  C   UNL     1       1.113   3.035  19.695  0.00  0.00    +0.000 A 
ATOM     27  O   UNL     1       2.290   3.072  19.022  0.00  0.00    +0.000 OA
ENDBRANCH  22  23
ENDBRANCH  16  19
ENDBRANCH  15  16
ENDBRANCH   1  15
TORSDOF 5
ENDMDL
MODEL 6
REMARK VINA RESULT:      -7.8      1.350      2.350
REMARK  Name = 
REMARK  6 active torsions:
REMARK  status: ('A' for Active; 'I' for Inactive)
REMARK    1  A    between atoms: C_1  and  N_2
REMARK    2  A    between atoms: C_3  and  S_4
REMARK    3  A    between atoms: S_4  and  C_5
REMARK    4  A    between atoms: C_5  and  C_6
REMARK    5  A    between atoms: N_8  and  C_9
REMARK    6  A    between atoms: C_21  and  C_22
REMARK                            x       y       z     vdW  Elec       q    Type
REMARK                         _______ _______ _______ _____ _____    ______ ____
ROOT
ATOM      1  C   UNL     1       8.035   8.322  18.151  0.00  0.00    +0.000 C 
ATOM      2  O   UNL     1       7.418   8.932  17.277  0.00  0.00    +0.000 OA
ATOM      3  N   UNL     1       9.008   8.874  18.972  0.00  0.00    +0.000 N 
ATOM      4  H   UNL     1       9.532   8.221  19.544  0.00  0.00    +0.000 HD
ENDROOT
BRANCH   3   5
ATOM      5  C   UNL     1       9.326  10.241  19.118  0.00  0.00    +0.000 A 
ATOM      6  C   UNL     1       9.597  11.087  18.039  0.00  0.00    +0.000 A 
ATOM      7  C   UNL     1       9.872  12.442  18.244  0.00  0.00    +0.000 A 
ATOM      8  C   UNL     1       9.891  12.963  19.532  0.00  0.00    +0.000 A 
ATOM      9  C   UNL     1       9.603  12.134  20.618  0.00  0.00    +0.000 A 
ATOM     10  C   UNL     1       9.326  10.779  20.414  0.00  0.00    +0.000 A 
ATOM     11  O   UNL     1       9.584  12.585  21.914  0.00  0.00    +0.000 OA
ATOM     12  C   UNL     1       9.526  14.016  21.973  0.00  0.00    +0.000 C 
ATOM     13  C   UNL     1      10.508  14.645  20.998  0.00  0.00    +0.000 C 
ATOM     14  O   UNL     1      10.180  14.297  19.650  0.00  0.00    +0.000 OA
ENDBRANCH   3   5
BRANCH   1  15
ATOM     15  C   UNL     1       7.823   6.820  18.316  0.00  0.00    +0.000 C 
BRANCH  15  16
ATOM     16  S   UNL     1       6.958   6.091  16.892  0.00  0.00    +0.000 S 
BRANCH  16  19
ATOM     17  C   UNL     1       5.392   3.799  18.579  0.00  0.00    +0.000 C 
ATOM     18  N   UNL     1       4.786   5.048  18.194  0.00  0.00    +0.000 N 
ATOM     19  C   UNL     1       5.327   6.072  17.465  0.00  0.00    +0.000 A 
ATOM     20  N   UNL     1       4.428   7.010  17.281  0.00  0.00    +0.000 NA
ATOM     21  N   UNL     1       3.276   6.612  17.920  0.00  0.00    +0.000 NA
ATOM     22  C   UNL     1       3.499   5.440  18.481  0.00  0.00    +0.000 A 
BRANCH  22  23
ATOM     23  C   UNL     1       2.546   4.712  19.266  0.00  0.00    +0.000 A 
ATOM     24  C   UNL     1       1.470   3.954  18.830  0.00  0.00    +0.000 A 
ATOM     25  C   UNL     1       0.809   3.454  19.979  0.00  0.00    +0.000 A 
ATOM     26  C   UNL     1       1.516   3.927  21.057  0.00  0.00    +0.000 A 
ATOM     27  O   UNL     1       2.565   4.679  20.640  0.00  0.00    +0.000 OA
ENDBRANCH  22  23
ENDBRANCH  16  19
ENDBRANCH  15  16
ENDBRANCH   1  15
TORSDOF 5
ENDMDL
MODEL 7
REMARK VINA RESULT:      -7.7      2.525     10.714
REMARK  Name = 
REMARK  6 active torsions:
REMARK  status: ('A' for Active; 'I' for Inactive)
REMARK    1  A    between atoms: C_1  and  N_2
REMARK    2  A    between atoms: C_3  and  S_4
REMARK    3  A    between atoms: S_4  and  C_5
REMARK    4  A    between atoms: C_5  and  C_6
REMARK    5  A    between atoms: N_8  and  C_9
REMARK    6  A    between atoms: C_21  and  C_22
REMARK                            x       y       z     vdW  Elec       q    Type
REMARK                         _______ _______ _______ _____ _____    ______ ____
ROOT
ATOM      1  C   UNL     1       8.014   8.351  17.956  0.00  0.00    +0.000 C 
ATOM      2  O   UNL     1       8.519   7.626  18.813  0.00  0.00    +0.000 OA
ATOM      3  N   UNL     1       7.055   7.949  17.038  0.00  0.00    +0.000 N 
ATOM      4  H   UNL     1       6.839   8.610  16.300  0.00  0.00    +0.000 HD
ENDROOT
BRANCH   3   5
ATOM      5  C   UNL     1       6.330   6.739  17.035  0.00  0.00    +0.000 A 
ATOM      6  C   UNL     1       6.896   5.505  16.696  0.00  0.00    +0.000 A 
ATOM      7  C   UNL     1       6.135   4.333  16.745  0.00  0.00    +0.000 A 
ATOM      8  C   UNL     1       4.799   4.383  17.122  0.00  0.00    +0.000 A 
ATOM      9  C   UNL     1       4.226   5.605  17.481  0.00  0.00    +0.000 A 
ATOM     10  C   UNL     1       4.986   6.778  17.434  0.00  0.00    +0.000 A 
ATOM     11  O   UNL     1       2.919   5.726  17.882  0.00  0.00    +0.000 OA
ATOM     12  C   UNL     1       2.357   4.454  18.231  0.00  0.00    +0.000 C 
ATOM     13  C   UNL     1       2.706   3.397  17.195  0.00  0.00    +0.000 C 
ATOM     14  O   UNL     1       4.120   3.193  17.134  0.00  0.00    +0.000 OA
ENDBRANCH   3   5
BRANCH   1  15
ATOM     15  C   UNL     1       8.520   9.779  17.782  0.00  0.00    +0.000 C 
BRANCH  15  16
ATOM     16  S   UNL     1       9.337  10.403  19.282  0.00  0.00    +0.000 S 
BRANCH  16  19
ATOM     17  C   UNL     1       8.773  13.602  19.273  0.00  0.00    +0.000 C 
ATOM     18  N   UNL     1       9.961  13.009  18.714  0.00  0.00    +0.000 N 
ATOM     19  C   UNL     1      10.298  11.685  18.632  0.00  0.00    +0.000 A 
ATOM     20  N   UNL     1      11.439  11.556  17.997  0.00  0.00    +0.000 NA
ATOM     21  N   UNL     1      11.879  12.819  17.673  0.00  0.00    +0.000 NA
ATOM     22  C   UNL     1      10.997  13.691  18.119  0.00  0.00    +0.000 A 
BRANCH  22  23
ATOM     23  C   UNL     1      11.119  15.114  18.001  0.00  0.00    +0.000 A 
ATOM     24  C   UNL     1      10.875  15.911  16.892  0.00  0.00    +0.000 A 
ATOM     25  C   UNL     1      11.162  17.249  17.260  0.00  0.00    +0.000 A 
ATOM     26  C   UNL     1      11.559  17.202  18.573  0.00  0.00    +0.000 A 
ATOM     27  O   UNL     1      11.531  15.926  19.030  0.00  0.00    +0.000 OA
ENDBRANCH  22  23
ENDBRANCH  16  19
ENDBRANCH  15  16
ENDBRANCH   1  15
TORSDOF 5
ENDMDL
MODEL 8
REMARK VINA RESULT:      -7.6      5.964      7.554
REMARK  Name = 
REMARK  6 active torsions:
REMARK  status: ('A' for Active; 'I' for Inactive)
REMARK    1  A    between atoms: C_1  and  N_2
REMARK    2  A    between atoms: C_3  and  S_4
REMARK    3  A    between atoms: S_4  and  C_5
REMARK    4  A    between atoms: C_5  and  C_6
REMARK    5  A    between atoms: N_8  and  C_9
REMARK    6  A    between atoms: C_21  and  C_22
REMARK                            x       y       z     vdW  Elec       q    Type
REMARK                         _______ _______ _______ _____ _____    ______ ____
ROOT
ATOM      1  C   UNL     1       1.529   4.295  20.906  0.00  0.00    +0.000 C 
ATOM      2  O   UNL     1       0.520   4.145  20.218  0.00  0.00    +0.000 OA
ATOM      3  N   UNL     1       2.182   5.501  21.111  0.00  0.00    +0.000 N 
ATOM      4  H   UNL     1       3.079   5.449  21.580  0.00  0.00    +0.000 HD
ENDROOT
BRANCH   3   5
ATOM      5  C   UNL     1       1.723   6.790  20.764  0.00  0.00    +0.000 A 
ATOM      6  C   UNL     1       0.867   7.544  21.572  0.00  0.00    +0.000 A 
ATOM      7  C   UNL     1       0.474   8.831  21.192  0.00  0.00    +0.000 A 
ATOM      8  C   UNL     1       0.923   9.372  19.994  0.00  0.00    +0.000 A 
ATOM      9  C   UNL     1       1.794   8.638  19.186  0.00  0.00    +0.000 A 
ATOM     10  C   UNL     1       2.189   7.351  19.566  0.00  0.00    +0.000 A 
ATOM     11  O   UNL     1       2.293   9.117  18.000  0.00  0.00    +0.000 OA
ATOM     12  C   UNL     1       2.118  10.535  17.892  0.00  0.00    +0.000 C 
ATOM     13  C   UNL     1       0.716  10.949  18.312  0.00  0.00    +0.000 C 
ATOM     14  O   UNL     1       0.484  10.633  19.688  0.00  0.00    +0.000 OA
ENDBRANCH   3   5
BRANCH   1  15
ATOM     15  C   UNL     1       2.210   3.076  21.523  0.00  0.00    +0.000 C 
BRANCH  15  16
ATOM     16  S   UNL     1       2.788   1.903  20.258  0.00  0.00    +0.000 S 
BRANCH  16  19
ATOM     17  C   UNL     1       2.620   3.284  17.323  0.00  0.00    +0.000 C 
ATOM     18  N   UNL     1       3.762   3.413  18.191  0.00  0.00    +0.000 N 
ATOM     19  C   UNL     1       3.963   2.861  19.427  0.00  0.00    +0.000 A 
ATOM     20  N   UNL     1       5.161   3.171  19.863  0.00  0.00    +0.000 NA
ATOM     21  N   UNL     1       5.757   3.964  18.909  0.00  0.00    +0.000 NA
ATOM     22  C   UNL     1       4.908   4.121  17.913  0.00  0.00    +0.000 A 
BRANCH  22  23
ATOM     23  C   UNL     1       5.154   4.911  16.742  0.00  0.00    +0.000 A 
ATOM     24  C   UNL     1       4.932   6.267  16.557  0.00  0.00    +0.000 A 
ATOM     25  C   UNL     1       5.306   6.580  15.226  0.00  0.00    +0.000 A 
ATOM     26  C   UNL     1       5.741   5.403  14.670  0.00  0.00    +0.000 A 
ATOM     27  O   UNL     1       5.660   4.395  15.574  0.00  0.00    +0.000 OA
ENDBRANCH  22  23
ENDBRANCH  16  19
ENDBRANCH  15  16
ENDBRANCH   1  15
TORSDOF 5
ENDMDL
MODEL 9
REMARK VINA RESULT:      -7.5      5.910      8.208
REMARK  Name = 
REMARK  6 active torsions:
REMARK  status: ('A' for Active; 'I' for Inactive)
REMARK    1  A    between atoms: C_1  and  N_2
REMARK    2  A    between atoms: C_3  and  S_4
REMARK    3  A    between atoms: S_4  and  C_5
REMARK    4  A    between atoms: C_5  and  C_6
REMARK    5  A    between atoms: N_8  and  C_9
REMARK    6  A    between atoms: C_21  and  C_22
REMARK                            x       y       z     vdW  Elec       q    Type
REMARK                         _______ _______ _______ _____ _____    ______ ____
ROOT
ATOM      1  C   UNL     1       3.165   6.633  18.822  0.00  0.00    +0.000 C 
ATOM      2  O   UNL     1       3.504   7.409  17.929  0.00  0.00    +0.000 OA
ATOM      3  N   UNL     1       2.379   6.969  19.913  0.00  0.00    +0.000 N 
ATOM      4  H   UNL     1       2.302   6.267  20.641  0.00  0.00    +0.000 HD
ENDROOT
BRANCH   3   5
ATOM      5  C   UNL     1       1.655   8.164  20.108  0.00  0.00    +0.000 A 
ATOM      6  C   UNL     1       1.291   9.021  19.065  0.00  0.00    +0.000 A 
ATOM      7  C   UNL     1       0.543  10.175  19.316  0.00  0.00    +0.000 A 
ATOM      8  C   UNL     1       0.160  10.491  20.613  0.00  0.00    +0.000 A 
ATOM      9  C   UNL     1       0.500   9.634  21.663  0.00  0.00    +0.000 A 
ATOM     10  C   UNL     1       1.247   8.479  21.413  0.00  0.00    +0.000 A 
ATOM     11  O   UNL     1       0.139   9.872  22.965  0.00  0.00    +0.000 OA
ATOM     12  C   UNL     1      -0.898  10.858  23.052  0.00  0.00    +0.000 C 
ATOM     13  C   UNL     1      -0.603  12.045  22.149  0.00  0.00    +0.000 C 
ATOM     14  O   UNL     1      -0.561  11.644  20.777  0.00  0.00    +0.000 OA
ENDBRANCH   3   5
BRANCH   1  15
ATOM     15  C   UNL     1       3.707   5.206  18.827  0.00  0.00    +0.000 C 
BRANCH  15  16
ATOM     16  S   UNL     1       5.462   5.143  19.300  0.00  0.00    +0.000 S 
BRANCH  16  19
ATOM     17  C   UNL     1       5.166   3.497  16.516  0.00  0.00    +0.000 C 
ATOM     18  N   UNL     1       6.001   4.663  16.658  0.00  0.00    +0.000 N 
ATOM     19  C   UNL     1       6.229   5.419  17.775  0.00  0.00    +0.000 A 
ATOM     20  N   UNL     1       7.101   6.361  17.504  0.00  0.00    +0.000 NA
ATOM     21  N   UNL     1       7.439   6.243  16.175  0.00  0.00    +0.000 NA
ATOM     22  C   UNL     1       6.765   5.232  15.665  0.00  0.00    +0.000 A 
BRANCH  22  23
ATOM     23  C   UNL     1       6.824   4.813  14.296  0.00  0.00    +0.000 A 
ATOM     24  C   UNL     1       6.133   3.780  13.680  0.00  0.00    +0.000 A 
ATOM     25  C   UNL     1       6.547   3.741  12.326  0.00  0.00    +0.000 A 
ATOM     26  C   UNL     1       7.463   4.753  12.182  0.00  0.00    +0.000 A 
ATOM     27  O   UNL     1       7.632   5.408  13.357  0.00  0.00    +0.000 OA
ENDBRANCH  22  23
ENDBRANCH  16  19
ENDBRANCH  15  16
ENDBRANCH   1  15
TORSDOF 5
ENDMDL
