MODEL 1
REMARK VINA RESULT:      -8.3      0.000      0.000
REMARK  Name = 
REMARK  4 active torsions:
REMARK  status: ('A' for Active; 'I' for Inactive)
REMARK    1  A    between atoms: C_1  and  C_2
REMARK    2  A    between atoms: C_3  and  C_4
REMARK    3  A    between atoms: N_12  and  C_13
REMARK    4  A    between atoms: C_13  and  C_14
REMARK                            x       y       z     vdW  Elec       q    Type
REMARK                         _______ _______ _______ _____ _____    ______ ____
ROOT
ATOM      1  C   UNL     1       2.555   6.779  20.304  0.00  0.00    +0.000 C 
ATOM      2  C   UNL     1       2.599   7.529  19.019  0.00  0.00    +0.000 A 
ATOM      3  C   UNL     1       3.258   7.265  17.822  0.00  0.00    +0.000 A 
ATOM      4  C   UNL     1       2.870   8.334  16.991  0.00  0.00    +0.000 A 
ATOM      5  N   UNL     1       2.097   9.228  17.603  0.00  0.00    +0.000 NA
ATOM      6  N   UNL     1       1.892   8.704  18.843  0.00  0.00    +0.000 N 
ATOM      7  C   UNL     1       1.037   9.361  19.752  0.00  0.00    +0.000 A 
ATOM      8  N   UNL     1       0.625   8.848  20.878  0.00  0.00    +0.000 NA
ATOM      9  N   UNL     1      -0.043   9.742  21.637  0.00  0.00    +0.000 N 
ATOM     10  C   UNL     1      -0.848   9.486  22.710  0.00  0.00    +0.000 A 
ATOM     11  C   UNL     1      -1.240  10.700  23.242  0.00  0.00    +0.000 A 
ATOM     12  C   UNL     1      -0.625  11.721  22.477  0.00  0.00    +0.000 A 
ATOM     13  C   UNL     1      -0.004  11.090  21.424  0.00  0.00    +0.000 A 
ATOM     14  C   UNL     1       0.639  11.557  20.245  0.00  0.00    +0.000 A 
ATOM     15  O   UNL     1       1.151  12.666  20.112  0.00  0.00    +0.000 OA
ATOM     16  N   UNL     1       0.660  10.595  19.279  0.00  0.00    +0.000 N 
ATOM     17  H   UNL     1      -0.318  10.464  19.021  0.00  0.00    +0.000 HD
ENDROOT
BRANCH   3  18
ATOM     18  C   UNL     1       4.028   6.057  17.545  0.00  0.00    +0.000 C 
ATOM     19  O   UNL     1       5.245   6.154  17.368  0.00  0.00    +0.000 OA
ATOM     20  N   UNL     1       3.413   4.808  17.498  0.00  0.00    +0.000 N 
ATOM     21  C   UNL     1       4.316   3.645  17.456  0.00  0.00    +0.000 C 
ATOM     22  C   UNL     1       3.679   2.536  18.320  0.00  0.00    +0.000 C 
ATOM     23  C   UNL     1       2.413   1.978  17.628  0.00  0.00    +0.000 C 
ATOM     24  C   UNL     1       1.741   3.208  18.286  0.00  0.00    +0.000 C 
ATOM     25  C   UNL     1       1.968   4.498  17.451  0.00  0.00    +0.000 C 
ATOM     26  N   UNL     1       2.772   3.131  19.380  0.00  0.00    +0.000 NA
BRANCH  26  27
ATOM     27  C   UNL     1       2.464   2.178  20.459  0.00  0.00    +0.000 C 
BRANCH  27  28
ATOM     28  C   UNL     1       1.668   2.793  21.630  0.00  0.00    +0.000 C 
ATOM     29  F   UNL     1       1.198   1.867  22.496  0.00  0.00    +0.000 F 
ATOM     30  F   UNL     1       2.430   3.662  22.334  0.00  0.00    +0.000 F 
ATOM     31  F   UNL     1       0.598   3.480  21.163  0.00  0.00    +0.000 F 
ENDBRANCH  27  28
ENDBRANCH  26  27
ENDBRANCH   3  18
TORSDOF 3
ENDMDL
MODEL 2
REMARK VINA RESULT:      -8.1      3.526      4.457
REMARK  Name = 
REMARK  4 active torsions:
REMARK  status: ('A' for Active; 'I' for Inactive)
REMARK    1  A    between atoms: C_1  and  C_2
REMARK    2  A    between atoms: C_3  and  C_4
REMARK    3  A    between atoms: N_12  and  C_13
REMARK    4  A    between atoms: C_13  and  C_14
REMARK                            x       y       z     vdW  Elec       q    Type
REMARK                         _______ _______ _______ _____ _____    ______ ____
ROOT
ATOM      1  C   UNL     1       1.827   7.116  20.789  0.00  0.00    +0.000 C 
ATOM      2  C   UNL     1       2.093   7.630  19.417  0.00  0.00    +0.000 A 
ATOM      3  C   UNL     1       2.732   7.048  18.325  0.00  0.00    +0.000 A 
ATOM      4  C   UNL     1       2.626   8.031  17.322  0.00  0.00    +0.000 A 
ATOM      5  N   UNL     1       2.040   9.152  17.737  0.00  0.00    +0.000 NA
ATOM      6  N   UNL     1       1.669   8.884  19.020  0.00  0.00    +0.000 N 
ATOM      7  C   UNL     1       0.938   9.840  19.755  0.00  0.00    +0.000 A 
ATOM      8  N   UNL     1       0.373   9.607  20.907  0.00  0.00    +0.000 NA
ATOM      9  N   UNL     1      -0.118  10.729  21.475  0.00  0.00    +0.000 N 
ATOM     10  C   UNL     1      -1.007  10.819  22.507  0.00  0.00    +0.000 A 
ATOM     11  C   UNL     1      -1.148  12.156  22.828  0.00  0.00    +0.000 A 
ATOM     12  C   UNL     1      -0.290  12.893  21.975  0.00  0.00    +0.000 A 
ATOM     13  C   UNL     1       0.225  11.988  21.075  0.00  0.00    +0.000 A 
ATOM     14  C   UNL     1       1.008  12.119  19.896  0.00  0.00    +0.000 A 
ATOM     15  O   UNL     1       1.756  13.062  19.645  0.00  0.00    +0.000 OA
ATOM     16  N   UNL     1       0.862  11.035  19.081  0.00  0.00    +0.000 N 
ATOM     17  H   UNL     1      -0.109  11.073  18.769  0.00  0.00    +0.000 HD
ENDROOT
BRANCH   3  18
ATOM     18  C   UNL     1       3.231   5.678  18.286  0.00  0.00    +0.000 C 
ATOM     19  O   UNL     1       2.426   4.749  18.378  0.00  0.00    +0.000 OA
ATOM     20  N   UNL     1       4.590   5.412  18.131  0.00  0.00    +0.000 N 
ATOM     21  C   UNL     1       4.946   4.009  17.861  0.00  0.00    +0.000 C 
ATOM     22  C   UNL     1       6.109   4.016  16.846  0.00  0.00    +0.000 C 
ATOM     23  C   UNL     1       7.399   4.546  17.515  0.00  0.00    +0.000 C 
ATOM     24  C   UNL     1       6.782   5.925  17.178  0.00  0.00    +0.000 C 
ATOM     25  C   UNL     1       5.726   6.352  18.235  0.00  0.00    +0.000 C 
ATOM     26  N   UNL     1       6.087   5.279  16.009  0.00  0.00    +0.000 NA
BRANCH  26  27
ATOM     27  C   UNL     1       6.903   5.162  14.789  0.00  0.00    +0.000 C 
BRANCH  27  28
ATOM     28  C   UNL     1       6.288   4.245  13.709  0.00  0.00    +0.000 C 
ATOM     29  F   UNL     1       6.428   2.929  13.987  0.00  0.00    +0.000 F 
ATOM     30  F   UNL     1       4.966   4.491  13.557  0.00  0.00    +0.000 F 
ATOM     31  F   UNL     1       6.880   4.464  12.511  0.00  0.00    +0.000 F 
ENDBRANCH  27  28
ENDBRANCH  26  27
ENDBRANCH   3  18
TORSDOF 3
ENDMDL
MODEL 3
REMARK VINA RESULT:      -7.6      3.529      4.388
REMARK  Name = 
REMARK  4 active torsions:
REMARK  status: ('A' for Active; 'I' for Inactive)
REMARK    1  A    between atoms: C_1  and  C_2
REMARK    2  A    between atoms: C_3  and  C_4
REMARK    3  A    between atoms: N_12  and  C_13
REMARK    4  A    between atoms: C_13  and  C_14
REMARK                            x       y       z     vdW  Elec       q    Type
REMARK                         _______ _______ _______ _____ _____    ______ ____
ROOT
ATOM      1  C   UNL     1       1.433   8.148  21.071  0.00  0.00    +0.000 C 
ATOM      2  C   UNL     1       1.792   8.227  19.629  0.00  0.00    +0.000 A 
ATOM      3  C   UNL     1       2.508   7.357  18.810  0.00  0.00    +0.000 A 
ATOM      4  C   UNL     1       2.469   7.986  17.551  0.00  0.00    +0.000 A 
ATOM      5  N   UNL     1       1.853   9.166  17.565  0.00  0.00    +0.000 NA
ATOM      6  N   UNL     1       1.393   9.291  18.842  0.00  0.00    +0.000 N 
ATOM      7  C   UNL     1       0.611  10.408  19.201  0.00  0.00    +0.000 A 
ATOM      8  N   UNL     1      -0.032  10.522  20.330  0.00  0.00    +0.000 NA
ATOM      9  N   UNL     1      -0.564  11.752  20.496  0.00  0.00    +0.000 N 
ATOM     10  C   UNL     1      -1.523  12.130  21.391  0.00  0.00    +0.000 A 
ATOM     11  C   UNL     1      -1.690  13.497  21.279  0.00  0.00    +0.000 A 
ATOM     12  C   UNL     1      -0.777  13.961  20.301  0.00  0.00    +0.000 A 
ATOM     13  C   UNL     1      -0.197  12.838  19.754  0.00  0.00    +0.000 A 
ATOM     14  C   UNL     1       0.666  12.623  18.646  0.00  0.00    +0.000 A 
ATOM     15  O   UNL     1       1.427  13.462  18.170  0.00  0.00    +0.000 OA
ATOM     16  N   UNL     1       0.580  11.340  18.192  0.00  0.00    +0.000 N 
ATOM     17  H   UNL     1      -0.367  11.259  17.820  0.00  0.00    +0.000 HD
ENDROOT
BRANCH   3  18
ATOM     18  C   UNL     1       3.011   6.052  19.223  0.00  0.00    +0.000 C 
ATOM     19  O   UNL     1       2.238   5.260  19.767  0.00  0.00    +0.000 OA
ATOM     20  N   UNL     1       4.337   5.688  18.996  0.00  0.00    +0.000 N 
ATOM     21  C   UNL     1       4.667   4.272  19.229  0.00  0.00    +0.000 C 
ATOM     22  C   UNL     1       5.673   3.848  18.138  0.00  0.00    +0.000 C 
ATOM     23  C   UNL     1       7.039   4.533  18.374  0.00  0.00    +0.000 C 
ATOM     24  C   UNL     1       6.364   5.711  17.630  0.00  0.00    +0.000 C 
ATOM     25  C   UNL     1       5.466   6.549  18.581  0.00  0.00    +0.000 C 
ATOM     26  N   UNL     1       5.518   4.705  16.897  0.00  0.00    +0.000 NA
BRANCH  26  27
ATOM     27  C   UNL     1       6.152   4.104  15.713  0.00  0.00    +0.000 C 
BRANCH  27  28
ATOM     28  C   UNL     1       5.851   4.848  14.394  0.00  0.00    +0.000 C 
ATOM     29  F   UNL     1       6.966   5.200  13.716  0.00  0.00    +0.000 F 
ATOM     30  F   UNL     1       5.093   4.089  13.569  0.00  0.00    +0.000 F 
ATOM     31  F   UNL     1       5.161   5.987  14.642  0.00  0.00    +0.000 F 
ENDBRANCH  27  28
ENDBRANCH  26  27
ENDBRANCH   3  18
TORSDOF 3
ENDMDL
MODEL 4
REMARK VINA RESULT:      -7.1      3.634      4.963
REMARK  Name = 
REMARK  4 active torsions:
REMARK  status: ('A' for Active; 'I' for Inactive)
REMARK    1  A    between atoms: C_1  and  C_2
REMARK    2  A    between atoms: C_3  and  C_4
REMARK    3  A    between atoms: N_12  and  C_13
REMARK    4  A    between atoms: C_13  and  C_14
REMARK                            x       y       z     vdW  Elec       q    Type
REMARK                         _______ _______ _______ _____ _____    ______ ____
ROOT
ATOM      1  C   UNL     1       2.384   8.038  18.035  0.00  0.00    +0.000 C 
ATOM      2  C   UNL     1       2.313   7.023  19.122  0.00  0.00    +0.000 A 
ATOM      3  C   UNL     1       2.675   5.678  19.150  0.00  0.00    +0.000 A 
ATOM      4  C   UNL     1       2.392   5.291  20.474  0.00  0.00    +0.000 A 
ATOM      5  N   UNL     1       1.846   6.259  21.206  0.00  0.00    +0.000 NA
ATOM      6  N   UNL     1       1.842   7.344  20.381  0.00  0.00    +0.000 N 
ATOM      7  C   UNL     1       1.396   8.592  20.863  0.00  0.00    +0.000 A 
ATOM      8  N   UNL     1       1.535   9.719  20.222  0.00  0.00    +0.000 NA
ATOM      9  N   UNL     1       0.876  10.735  20.821  0.00  0.00    +0.000 N 
ATOM     10  C   UNL     1       1.036  12.073  20.603  0.00  0.00    +0.000 A 
ATOM     11  C   UNL     1       0.088  12.739  21.357  0.00  0.00    +0.000 A 
ATOM     12  C   UNL     1      -0.687  11.764  22.029  0.00  0.00    +0.000 A 
ATOM     13  C   UNL     1      -0.085  10.552  21.772  0.00  0.00    +0.000 A 
ATOM     14  C   UNL     1      -0.282   9.237  22.272  0.00  0.00    +0.000 A 
ATOM     15  O   UNL     1      -1.331   8.813  22.754  0.00  0.00    +0.000 OA
ATOM     16  N   UNL     1       0.836   8.473  22.112  0.00  0.00    +0.000 N 
ATOM     17  H   UNL     1       1.531   8.897  22.727  0.00  0.00    +0.000 HD
ENDROOT
BRANCH   3  18
ATOM     18  C   UNL     1       3.325   4.969  18.054  0.00  0.00    +0.000 C 
ATOM     19  O   UNL     1       2.635   4.564  17.115  0.00  0.00    +0.000 OA
ATOM     20  N   UNL     1       4.702   4.761  18.048  0.00  0.00    +0.000 N 
ATOM     21  C   UNL     1       5.274   4.257  16.789  0.00  0.00    +0.000 C 
ATOM     22  C   UNL     1       6.638   4.952  16.591  0.00  0.00    +0.000 C 
ATOM     23  C   UNL     1       7.659   4.434  17.631  0.00  0.00    +0.000 C 
ATOM     24  C   UNL     1       6.983   5.489  18.540  0.00  0.00    +0.000 C 
ATOM     25  C   UNL     1       5.663   4.952  19.157  0.00  0.00    +0.000 C 
ATOM     26  N   UNL     1       6.671   6.289  17.304  0.00  0.00    +0.000 NA
BRANCH  26  27
ATOM     27  C   UNL     1       7.764   7.155  16.830  0.00  0.00    +0.000 C 
BRANCH  27  28
ATOM     28  C   UNL     1       7.994   8.408  17.702  0.00  0.00    +0.000 C 
ATOM     29  F   UNL     1       8.716   9.365  17.077  0.00  0.00    +0.000 F 
ATOM     30  F   UNL     1       6.818   8.964  18.076  0.00  0.00    +0.000 F 
ATOM     31  F   UNL     1       8.664   8.080  18.833  0.00  0.00    +0.000 F 
ENDBRANCH  27  28
ENDBRANCH  26  27
ENDBRANCH   3  18
TORSDOF 3
ENDMDL
MODEL 5
REMARK VINA RESULT:      -7.0      8.445     10.395
REMARK  Name = 
REMARK  4 active torsions:
REMARK  status: ('A' for Active; 'I' for Inactive)
REMARK    1  A    between atoms: C_1  and  C_2
REMARK    2  A    between atoms: C_3  and  C_4
REMARK    3  A    between atoms: N_12  and  C_13
REMARK    4  A    between atoms: C_13  and  C_14
REMARK                            x       y       z     vdW  Elec       q    Type
REMARK                         _______ _______ _______ _____ _____    ______ ____
ROOT
ATOM      1  C   UNL     1       7.512  14.314  19.836  0.00  0.00    +0.000 C 
ATOM      2  C   UNL     1       7.657  15.733  19.407  0.00  0.00    +0.000 A 
ATOM      3  C   UNL     1       8.772  16.564  19.343  0.00  0.00    +0.000 A 
ATOM      4  C   UNL     1       8.254  17.768  18.827  0.00  0.00    +0.000 A 
ATOM      5  N   UNL     1       6.936  17.741  18.638  0.00  0.00    +0.000 NA
ATOM      6  N   UNL     1       6.576  16.465  18.953  0.00  0.00    +0.000 N 
ATOM      7  C   UNL     1       5.239  16.051  18.790  0.00  0.00    +0.000 A 
ATOM      8  N   UNL     1       4.836  14.814  18.875  0.00  0.00    +0.000 NA
ATOM      9  N   UNL     1       3.490  14.708  18.847  0.00  0.00    +0.000 N 
ATOM     10  C   UNL     1       2.748  13.584  18.622  0.00  0.00    +0.000 A 
ATOM     11  C   UNL     1       1.417  13.918  18.785  0.00  0.00    +0.000 A 
ATOM     12  C   UNL     1       1.360  15.285  19.147  0.00  0.00    +0.000 A 
ATOM     13  C   UNL     1       2.647  15.763  19.047  0.00  0.00    +0.000 A 
ATOM     14  C   UNL     1       3.217  17.062  19.125  0.00  0.00    +0.000 A 
ATOM     15  O   UNL     1       2.722  18.017  19.720  0.00  0.00    +0.000 OA
ATOM     16  N   UNL     1       4.421  17.114  18.487  0.00  0.00    +0.000 N 
ATOM     17  H   UNL     1       4.199  16.972  17.501  0.00  0.00    +0.000 HD
ENDROOT
BRANCH   3  18
ATOM     18  C   UNL     1      10.140  16.145  19.627  0.00  0.00    +0.000 C 
ATOM     19  O   UNL     1      10.710  16.605  20.619  0.00  0.00    +0.000 OA
ATOM     20  N   UNL     1      10.795  15.228  18.808  0.00  0.00    +0.000 N 
ATOM     21  C   UNL     1      12.069  14.697  19.323  0.00  0.00    +0.000 C 
ATOM     22  C   UNL     1      12.139  13.207  18.930  0.00  0.00    +0.000 C 
ATOM     23  C   UNL     1      12.333  13.065  17.402  0.00  0.00    +0.000 C 
ATOM     24  C   UNL     1      10.796  13.244  17.380  0.00  0.00    +0.000 C 
ATOM     25  C   UNL     1      10.393  14.741  17.471  0.00  0.00    +0.000 C 
ATOM     26  N   UNL     1      10.749  12.628  18.753  0.00  0.00    +0.000 NA
BRANCH  26  27
ATOM     27  C   UNL     1      10.743  11.156  18.775  0.00  0.00    +0.000 C 
BRANCH  27  28
ATOM     28  C   UNL     1       9.360  10.539  19.071  0.00  0.00    +0.000 C 
ATOM     29  F   UNL     1       8.472  10.719  18.067  0.00  0.00    +0.000 F 
ATOM     30  F   UNL     1       9.458   9.208  19.294  0.00  0.00    +0.000 F 
ATOM     31  F   UNL     1       8.822  11.097  20.182  0.00  0.00    +0.000 F 
ENDBRANCH  27  28
ENDBRANCH  26  27
ENDBRANCH   3  18
TORSDOF 3
ENDMDL
MODEL 6
REMARK VINA RESULT:      -6.9      1.101      1.290
REMARK  Name = 
REMARK  4 active torsions:
REMARK  status: ('A' for Active; 'I' for Inactive)
REMARK    1  A    between atoms: C_1  and  C_2
REMARK    2  A    between atoms: C_3  and  C_4
REMARK    3  A    between atoms: N_12  and  C_13
REMARK    4  A    between atoms: C_13  and  C_14
REMARK                            x       y       z     vdW  Elec       q    Type
REMARK                         _______ _______ _______ _____ _____    ______ ____
ROOT
ATOM      1  C   UNL     1       2.786   6.520  19.822  0.00  0.00    +0.000 C 
ATOM      2  C   UNL     1       3.228   7.046  18.501  0.00  0.00    +0.000 A 
ATOM      3  C   UNL     1       4.093   6.521  17.545  0.00  0.00    +0.000 A 
ATOM      4  C   UNL     1       4.065   7.481  16.515  0.00  0.00    +0.000 A 
ATOM      5  N   UNL     1       3.315   8.543  16.800  0.00  0.00    +0.000 NA
ATOM      6  N   UNL     1       2.761   8.251  18.009  0.00  0.00    +0.000 N 
ATOM      7  C   UNL     1       1.831   9.137  18.590  0.00  0.00    +0.000 A 
ATOM      8  N   UNL     1       1.105   8.860  19.637  0.00  0.00    +0.000 NA
ATOM      9  N   UNL     1       0.423   9.934  20.089  0.00  0.00    +0.000 N 
ATOM     10  C   UNL     1      -0.631   9.946  20.957  0.00  0.00    +0.000 A 
ATOM     11  C   UNL     1      -0.948  11.265  21.217  0.00  0.00    +0.000 A 
ATOM     12  C   UNL     1      -0.033  12.075  20.502  0.00  0.00    +0.000 A 
ATOM     13  C   UNL     1       0.709  11.217  19.721  0.00  0.00    +0.000 A 
ATOM     14  C   UNL     1       1.663  11.414  18.686  0.00  0.00    +0.000 A 
ATOM     15  O   UNL     1       2.350  12.422  18.541  0.00  0.00    +0.000 OA
ATOM     16  N   UNL     1       1.758  10.314  17.885  0.00  0.00    +0.000 N 
ATOM     17  H   UNL     1       0.854  10.256  17.415  0.00  0.00    +0.000 HD
ENDROOT
BRANCH   3  18
ATOM     18  C   UNL     1       4.718   5.205  17.622  0.00  0.00    +0.000 C 
ATOM     19  O   UNL     1       5.945   5.133  17.724  0.00  0.00    +0.000 OA
ATOM     20  N   UNL     1       3.951   4.042  17.599  0.00  0.00    +0.000 N 
ATOM     21  C   UNL     1       4.659   2.794  17.927  0.00  0.00    +0.000 C 
ATOM     22  C   UNL     1       3.694   1.921  18.757  0.00  0.00    +0.000 C 
ATOM     23  C   UNL     1       2.539   1.404  17.868  0.00  0.00    +0.000 C 
ATOM     24  C   UNL     1       1.930   2.793  18.178  0.00  0.00    +0.000 C 
ATOM     25  C   UNL     1       2.519   3.895  17.255  0.00  0.00    +0.000 C 
ATOM     26  N   UNL     1       2.679   2.781  19.484  0.00  0.00    +0.000 NA
BRANCH  26  27
ATOM     27  C   UNL     1       2.008   2.059  20.578  0.00  0.00    +0.000 C 
BRANCH  27  28
ATOM     28  C   UNL     1       1.391   2.980  21.652  0.00  0.00    +0.000 C 
ATOM     29  F   UNL     1       0.646   2.312  22.561  0.00  0.00    +0.000 F 
ATOM     30  F   UNL     1       2.352   3.653  22.327  0.00  0.00    +0.000 F 
ATOM     31  F   UNL     1       0.583   3.902  21.075  0.00  0.00    +0.000 F 
ENDBRANCH  27  28
ENDBRANCH  26  27
ENDBRANCH   3  18
TORSDOF 3
ENDMDL
MODEL 7
REMARK VINA RESULT:      -6.8      4.531      8.868
REMARK  Name = 
REMARK  4 active torsions:
REMARK  status: ('A' for Active; 'I' for Inactive)
REMARK    1  A    between atoms: C_1  and  C_2
REMARK    2  A    between atoms: C_3  and  C_4
REMARK    3  A    between atoms: N_12  and  C_13
REMARK    4  A    between atoms: C_13  and  C_14
REMARK                            x       y       z     vdW  Elec       q    Type
REMARK                         _______ _______ _______ _____ _____    ______ ____
ROOT
ATOM      1  C   UNL     1       0.604   8.174  21.971  0.00  0.00    +0.000 C 
ATOM      2  C   UNL     1       1.065   8.686  20.650  0.00  0.00    +0.000 A 
ATOM      3  C   UNL     1       1.057   9.969  20.108  0.00  0.00    +0.000 A 
ATOM      4  C   UNL     1       1.656   9.794  18.845  0.00  0.00    +0.000 A 
ATOM      5  N   UNL     1       1.957   8.526  18.572  0.00  0.00    +0.000 NA
ATOM      6  N   UNL     1       1.634   7.850  19.709  0.00  0.00    +0.000 N 
ATOM      7  C   UNL     1       1.900   6.468  19.805  0.00  0.00    +0.000 A 
ATOM      8  N   UNL     1       1.810   5.777  20.907  0.00  0.00    +0.000 NA
ATOM      9  N   UNL     1       1.952   4.451  20.695  0.00  0.00    +0.000 N 
ATOM     10  C   UNL     1       2.204   3.482  21.623  0.00  0.00    +0.000 A 
ATOM     11  C   UNL     1       2.169   2.260  20.978  0.00  0.00    +0.000 A 
ATOM     12  C   UNL     1       1.857   2.503  19.619  0.00  0.00    +0.000 A 
ATOM     13  C   UNL     1       1.860   3.871  19.463  0.00  0.00    +0.000 A 
ATOM     14  C   UNL     1       1.775   4.727  18.331  0.00  0.00    +0.000 A 
ATOM     15  O   UNL     1       1.257   4.429  17.258  0.00  0.00    +0.000 OA
ATOM     16  N   UNL     1       2.307   5.954  18.598  0.00  0.00    +0.000 N 
ATOM     17  H   UNL     1       3.303   5.781  18.734  0.00  0.00    +0.000 HD
ENDROOT
BRANCH   3  18
ATOM     18  C   UNL     1       0.642  11.171  20.822  0.00  0.00    +0.000 C 
ATOM     19  O   UNL     1       0.704  11.184  22.053  0.00  0.00    +0.000 OA
ATOM     20  N   UNL     1       0.197  12.298  20.134  0.00  0.00    +0.000 N 
ATOM     21  C   UNL     1       0.040  13.524  20.935  0.00  0.00    +0.000 C 
ATOM     22  C   UNL     1       0.497  14.709  20.059  0.00  0.00    +0.000 C 
ATOM     23  C   UNL     1      -0.514  14.949  18.913  0.00  0.00    +0.000 C 
ATOM     24  C   UNL     1       0.289  13.819  18.222  0.00  0.00    +0.000 C 
ATOM     25  C   UNL     1      -0.169  12.416  18.706  0.00  0.00    +0.000 C 
ATOM     26  N   UNL     1       1.494  14.253  19.012  0.00  0.00    +0.000 NA
BRANCH  26  27
ATOM     27  C   UNL     1       2.250  15.374  18.427  0.00  0.00    +0.000 C 
BRANCH  27  28
ATOM     28  C   UNL     1       3.716  15.031  18.087  0.00  0.00    +0.000 C 
ATOM     29  F   UNL     1       4.112  15.520  16.890  0.00  0.00    +0.000 F 
ATOM     30  F   UNL     1       4.561  15.517  19.026  0.00  0.00    +0.000 F 
ATOM     31  F   UNL     1       3.890  13.688  18.044  0.00  0.00    +0.000 F 
ENDBRANCH  27  28
ENDBRANCH  26  27
ENDBRANCH   3  18
TORSDOF 3
ENDMDL
MODEL 8
REMARK VINA RESULT:      -6.8      3.509      4.754
REMARK  Name = 
REMARK  4 active torsions:
REMARK  status: ('A' for Active; 'I' for Inactive)
REMARK    1  A    between atoms: C_1  and  C_2
REMARK    2  A    between atoms: C_3  and  C_4
REMARK    3  A    between atoms: N_12  and  C_13
REMARK    4  A    between atoms: C_13  and  C_14
REMARK                            x       y       z     vdW  Elec       q    Type
REMARK                         _______ _______ _______ _____ _____    ______ ____
ROOT
ATOM      1  C   UNL     1       1.926   8.590  18.069  0.00  0.00    +0.000 C 
ATOM      2  C   UNL     1       1.891   7.693  19.258  0.00  0.00    +0.000 A 
ATOM      3  C   UNL     1       2.165   6.335  19.392  0.00  0.00    +0.000 A 
ATOM      4  C   UNL     1       1.981   6.099  20.769  0.00  0.00    +0.000 A 
ATOM      5  N   UNL     1       1.570   7.171  21.441  0.00  0.00    +0.000 NA
ATOM      6  N   UNL     1       1.560   8.168  20.513  0.00  0.00    +0.000 N 
ATOM      7  C   UNL     1       1.243   9.486  20.899  0.00  0.00    +0.000 A 
ATOM      8  N   UNL     1       1.394  10.534  20.137  0.00  0.00    +0.000 NA
ATOM      9  N   UNL     1       0.861  11.648  20.682  0.00  0.00    +0.000 N 
ATOM     10  C   UNL     1       1.086  12.944  20.314  0.00  0.00    +0.000 A 
ATOM     11  C   UNL     1       0.258  13.748  21.074  0.00  0.00    +0.000 A 
ATOM     12  C   UNL     1      -0.513  12.901  21.907  0.00  0.00    +0.000 A 
ATOM     13  C   UNL     1      -0.018  11.630  21.726  0.00  0.00    +0.000 A 
ATOM     14  C   UNL     1      -0.253  10.387  22.374  0.00  0.00    +0.000 A 
ATOM     15  O   UNL     1      -1.277  10.090  22.984  0.00  0.00    +0.000 OA
ATOM     16  N   UNL     1       0.794   9.531  22.197  0.00  0.00    +0.000 N 
ATOM     17  H   UNL     1       1.569   9.960  22.704  0.00  0.00    +0.000 HD
ENDROOT
BRANCH   3  18
ATOM     18  C   UNL     1       2.663   5.476  18.323  0.00  0.00    +0.000 C 
ATOM     19  O   UNL     1       1.887   5.124  17.433  0.00  0.00    +0.000 OA
ATOM     20  N   UNL     1       3.995   5.070  18.289  0.00  0.00    +0.000 N 
ATOM     21  C   UNL     1       4.440   4.417  17.047  0.00  0.00    +0.000 C 
ATOM     22  C   UNL     1       5.881   4.893  16.766  0.00  0.00    +0.000 C 
ATOM     23  C   UNL     1       6.856   4.292  17.805  0.00  0.00    +0.000 C 
ATOM     24  C   UNL     1       6.375   5.485  18.666  0.00  0.00    +0.000 C 
ATOM     25  C   UNL     1       5.016   5.182  19.354  0.00  0.00    +0.000 C 
ATOM     26  N   UNL     1       6.133   6.250  17.393  0.00  0.00    +0.000 NA
BRANCH  26  27
ATOM     27  C   UNL     1       7.320   6.918  16.833  0.00  0.00    +0.000 C 
BRANCH  27  28
ATOM     28  C   UNL     1       7.827   8.106  17.679  0.00  0.00    +0.000 C 
ATOM     29  F   UNL     1       8.457   7.722  18.811  0.00  0.00    +0.000 F 
ATOM     30  F   UNL     1       8.689   8.873  16.972  0.00  0.00    +0.000 F 
ATOM     31  F   UNL     1       6.792   8.898  18.049  0.00  0.00    +0.000 F 
ENDBRANCH  27  28
ENDBRANCH  26  27
ENDBRANCH   3  18
TORSDOF 3
ENDMDL
MODEL 9
REMARK VINA RESULT:      -6.7      4.361      8.620
REMARK  Name = 
REMARK  4 active torsions:
REMARK  status: ('A' for Active; 'I' for Inactive)
REMARK    1  A    between atoms: C_1  and  C_2
REMARK    2  A    between atoms: C_3  and  C_4
REMARK    3  A    between atoms: N_12  and  C_13
REMARK    4  A    between atoms: C_13  and  C_14
REMARK                            x       y       z     vdW  Elec       q    Type
REMARK                         _______ _______ _______ _____ _____    ______ ____
ROOT
ATOM      1  C   UNL     1       0.658   8.638  21.414  0.00  0.00    +0.000 C 
ATOM      2  C   UNL     1       1.147   8.983  20.051  0.00  0.00    +0.000 A 
ATOM      3  C   UNL     1       1.140  10.186  19.349  0.00  0.00    +0.000 A 
ATOM      4  C   UNL     1       1.774   9.859  18.134  0.00  0.00    +0.000 A 
ATOM      5  N   UNL     1       2.097   8.572  18.033  0.00  0.00    +0.000 NA
ATOM      6  N   UNL     1       1.751   8.042  19.239  0.00  0.00    +0.000 N 
ATOM      7  C   UNL     1       2.029   6.688  19.518  0.00  0.00    +0.000 A 
ATOM      8  N   UNL     1       1.918   6.142  20.697  0.00  0.00    +0.000 NA
ATOM      9  N   UNL     1       2.081   4.802  20.660  0.00  0.00    +0.000 N 
ATOM     10  C   UNL     1       2.319   3.963  21.711  0.00  0.00    +0.000 A 
ATOM     11  C   UNL     1       2.315   2.669  21.227  0.00  0.00    +0.000 A 
ATOM     12  C   UNL     1       2.036   2.731  19.841  0.00  0.00    +0.000 A 
ATOM     13  C   UNL     1       2.028   4.068  19.511  0.00  0.00    +0.000 A 
ATOM     14  C   UNL     1       1.964   4.771  18.277  0.00  0.00    +0.000 A 
ATOM     15  O   UNL     1       1.477   4.331  17.238  0.00  0.00    +0.000 OA
ATOM     16  N   UNL     1       2.474   6.029  18.397  0.00  0.00    +0.000 N 
ATOM     17  H   UNL     1       3.469   5.890  18.579  0.00  0.00    +0.000 HD
ENDROOT
BRANCH   3  18
ATOM     18  C   UNL     1       0.692  11.463  19.892  0.00  0.00    +0.000 C 
ATOM     19  O   UNL     1      -0.100  11.464  20.837  0.00  0.00    +0.000 OA
ATOM     20  N   UNL     1       1.158  12.669  19.371  0.00  0.00    +0.000 N 
ATOM     21  C   UNL     1       0.833  13.877  20.148  0.00  0.00    +0.000 C 
ATOM     22  C   UNL     1       2.057  14.813  20.078  0.00  0.00    +0.000 C 
ATOM     23  C   UNL     1       2.211  15.388  18.650  0.00  0.00    +0.000 C 
ATOM     24  C   UNL     1       2.927  14.041  18.388  0.00  0.00    +0.000 C 
ATOM     25  C   UNL     1       1.911  12.897  18.119  0.00  0.00    +0.000 C 
ATOM     26  N   UNL     1       3.329  14.023  19.839  0.00  0.00    +0.000 NA
BRANCH  26  27
ATOM     27  C   UNL     1       4.541  14.794  20.158  0.00  0.00    +0.000 C 
BRANCH  27  28
ATOM     28  C   UNL     1       5.126  14.495  21.555  0.00  0.00    +0.000 C 
ATOM     29  F   UNL     1       4.992  15.527  22.419  0.00  0.00    +0.000 F 
ATOM     30  F   UNL     1       4.527  13.417  22.112  0.00  0.00    +0.000 F 
ATOM     31  F   UNL     1       6.449  14.221  21.464  0.00  0.00    +0.000 F 
ENDBRANCH  27  28
ENDBRANCH  26  27
ENDBRANCH   3  18
TORSDOF 3
ENDMDL
