MODEL 1
REMARK VINA RESULT:      -7.1      0.000      0.000
REMARK  Name = 
REMARK  10 active torsions:
REMARK  status: ('A' for Active; 'I' for Inactive)
REMARK    1  A    between atoms: C_1  and  N_2
REMARK    2  A    between atoms: N_2  and  C_3
REMARK    3  A    between atoms: C_3  and  C_4
REMARK    4  A    between atoms: C_4  and  C_5
REMARK    5  A    between atoms: C_5  and  O_6
REMARK    6  A    between atoms: C_5  and  C_20
REMARK    7  A    between atoms: O_6  and  C_7
REMARK    8  A    between atoms: C_12  and  O_13
REMARK    9  A    between atoms: C_14  and  O_15
REMARK   10  A    between atoms: O_15  and  C_16
REMARK                            x       y       z     vdW  Elec       q    Type
REMARK                         _______ _______ _______ _____ _____    ______ ____
ROOT
ATOM      1  C   UNL     1       4.011   4.144  17.321  0.00  0.00    +0.000 A 
ATOM      2  C   UNL     1       3.903   2.859  17.854  0.00  0.00    +0.000 A 
ATOM      3  C   UNL     1       3.295   2.670  19.088  0.00  0.00    +0.000 A 
ATOM      4  C   UNL     1       2.789   3.760  19.795  0.00  0.00    +0.000 A 
ATOM      5  C   UNL     1       2.816   5.071  19.260  0.00  0.00    +0.000 A 
ATOM      6  C   UNL     1       2.257   6.208  19.911  0.00  0.00    +0.000 A 
ATOM      7  C   UNL     1       2.259   7.485  19.318  0.00  0.00    +0.000 A 
ATOM      8  C   UNL     1       2.859   7.645  18.076  0.00  0.00    +0.000 A 
ATOM      9  C   UNL     1       3.450   6.551  17.436  0.00  0.00    +0.000 A 
ATOM     10  C   UNL     1       3.438   5.255  18.000  0.00  0.00    +0.000 A 
ENDROOT
BRANCH   6  11
ATOM     11  O   UNL     1       1.668   6.123  21.153  0.00  0.00    +0.000 OA
ATOM     12  H   UNL     1       0.977   6.790  21.242  0.00  0.00    +0.000 HD
ENDBRANCH   6  11
BRANCH   7  13
ATOM     13  O   UNL     1       1.644   8.485  20.028  0.00  0.00    +0.000 OA
ATOM     14  C   UNL     1       1.049   9.544  19.293  0.00  0.00    +0.000 C 
ENDBRANCH   7  13
BRANCH   1  15
ATOM     15  O   UNL     1       4.754   4.420  16.197  0.00  0.00    +0.000 OA
BRANCH  15  16
ATOM     16  C   UNL     1       6.161   4.107  16.202  0.00  0.00    +0.000 C 
BRANCH  16  17
ATOM     17  C   UNL     1       6.859   5.030  17.183  0.00  0.00    +0.000 A 
ATOM     18  C   UNL     1       7.425   4.741  18.411  0.00  0.00    +0.000 A 
ATOM     19  C   UNL     1       7.993   5.888  19.039  0.00  0.00    +0.000 A 
ATOM     20  C   UNL     1       7.851   7.021  18.270  0.00  0.00    +0.000 A 
ATOM     21  S   UNL     1       7.070   6.693  16.788  0.00  0.00    +0.000 S 
ENDBRANCH  16  17
BRANCH  16  22
ATOM     22  C   UNL     1       6.625   4.352  14.753  0.00  0.00    +0.000 C 
BRANCH  22  23
ATOM     23  C   UNL     1       5.641   3.977  13.645  0.00  0.00    +0.000 C 
BRANCH  23  25
ATOM     24  C   UNL     1       7.184   3.871  11.797  0.00  0.00    +0.000 C 
ATOM     25  N   UNL     1       6.253   3.116  12.630  0.00  0.00    +0.000 NA
ATOM     26  H   UNL     1       6.777   2.368  13.082  0.00  0.00    +0.000 HD
ENDBRANCH  23  25
ENDBRANCH  22  23
ENDBRANCH  16  22
ENDBRANCH  15  16
ENDBRANCH   1  15
TORSDOF 8
ENDMDL
MODEL 2
REMARK VINA RESULT:      -7.1      1.052      1.263
REMARK  Name = 
REMARK  10 active torsions:
REMARK  status: ('A' for Active; 'I' for Inactive)
REMARK    1  A    between atoms: C_1  and  N_2
REMARK    2  A    between atoms: N_2  and  C_3
REMARK    3  A    between atoms: C_3  and  C_4
REMARK    4  A    between atoms: C_4  and  C_5
REMARK    5  A    between atoms: C_5  and  O_6
REMARK    6  A    between atoms: C_5  and  C_20
REMARK    7  A    between atoms: O_6  and  C_7
REMARK    8  A    between atoms: C_12  and  O_13
REMARK    9  A    between atoms: C_14  and  O_15
REMARK   10  A    between atoms: O_15  and  C_16
REMARK                            x       y       z     vdW  Elec       q    Type
REMARK                         _______ _______ _______ _____ _____    ______ ____
ROOT
ATOM      1  C   UNL     1       4.132   4.702  17.962  0.00  0.00    +0.000 A 
ATOM      2  C   UNL     1       4.060   3.557  18.756  0.00  0.00    +0.000 A 
ATOM      3  C   UNL     1       3.377   3.593  19.964  0.00  0.00    +0.000 A 
ATOM      4  C   UNL     1       2.759   4.770  20.385  0.00  0.00    +0.000 A 
ATOM      5  C   UNL     1       2.749   5.934  19.580  0.00  0.00    +0.000 A 
ATOM      6  C   UNL     1       2.080   7.142  19.933  0.00  0.00    +0.000 A 
ATOM      7  C   UNL     1       2.051   8.258  19.076  0.00  0.00    +0.000 A 
ATOM      8  C   UNL     1       2.729   8.191  17.866  0.00  0.00    +0.000 A 
ATOM      9  C   UNL     1       3.426   7.031  17.516  0.00  0.00    +0.000 A 
ATOM     10  C   UNL     1       3.448   5.889  18.348  0.00  0.00    +0.000 A 
ENDROOT
BRANCH   6  11
ATOM     11  O   UNL     1       1.409   7.282  21.127  0.00  0.00    +0.000 OA
ATOM     12  H   UNL     1       0.822   8.046  21.093  0.00  0.00    +0.000 HD
ENDBRANCH   6  11
BRANCH   7  13
ATOM     13  O   UNL     1       1.330   9.340  19.514  0.00  0.00    +0.000 OA
ATOM     14  C   UNL     1       0.838  10.242  18.535  0.00  0.00    +0.000 C 
ENDBRANCH   7  13
BRANCH   1  15
ATOM     15  O   UNL     1       4.936   4.784  16.850  0.00  0.00    +0.000 OA
BRANCH  15  16
ATOM     16  C   UNL     1       6.349   4.535  16.996  0.00  0.00    +0.000 C 
BRANCH  16  17
ATOM     17  C   UNL     1       7.021   5.816  17.454  0.00  0.00    +0.000 A 
ATOM     18  C   UNL     1       7.059   7.056  16.841  0.00  0.00    +0.000 A 
ATOM     19  C   UNL     1       7.796   8.018  17.591  0.00  0.00    +0.000 A 
ATOM     20  C   UNL     1       8.295   7.489  18.760  0.00  0.00    +0.000 A 
ATOM     21  S   UNL     1       7.846   5.855  18.965  0.00  0.00    +0.000 S 
ENDBRANCH  16  17
BRANCH  16  22
ATOM     22  C   UNL     1       6.822   4.108  15.594  0.00  0.00    +0.000 C 
BRANCH  22  23
ATOM     23  C   UNL     1       5.842   4.329  14.441  0.00  0.00    +0.000 C 
BRANCH  23  25
ATOM     24  C   UNL     1       6.884   3.977  12.298  0.00  0.00    +0.000 C 
ATOM     25  N   UNL     1       6.057   3.384  13.344  0.00  0.00    +0.000 NA
ATOM     26  H   UNL     1       6.539   2.556  13.689  0.00  0.00    +0.000 HD
ENDBRANCH  23  25
ENDBRANCH  22  23
ENDBRANCH  16  22
ENDBRANCH  15  16
ENDBRANCH   1  15
TORSDOF 8
ENDMDL
MODEL 3
REMARK VINA RESULT:      -7.0      0.972      1.221
REMARK  Name = 
REMARK  10 active torsions:
REMARK  status: ('A' for Active; 'I' for Inactive)
REMARK    1  A    between atoms: C_1  and  N_2
REMARK    2  A    between atoms: N_2  and  C_3
REMARK    3  A    between atoms: C_3  and  C_4
REMARK    4  A    between atoms: C_4  and  C_5
REMARK    5  A    between atoms: C_5  and  O_6
REMARK    6  A    between atoms: C_5  and  C_20
REMARK    7  A    between atoms: O_6  and  C_7
REMARK    8  A    between atoms: C_12  and  O_13
REMARK    9  A    between atoms: C_14  and  O_15
REMARK   10  A    between atoms: O_15  and  C_16
REMARK                            x       y       z     vdW  Elec       q    Type
REMARK                         _______ _______ _______ _____ _____    ______ ____
ROOT
ATOM      1  C   UNL     1       4.069   3.870  17.104  0.00  0.00    +0.000 A 
ATOM      2  C   UNL     1       4.012   2.482  17.227  0.00  0.00    +0.000 A 
ATOM      3  C   UNL     1       3.392   1.909  18.329  0.00  0.00    +0.000 A 
ATOM      4  C   UNL     1       2.823   2.716  19.312  0.00  0.00    +0.000 A 
ATOM      5  C   UNL     1       2.798   4.127  19.194  0.00  0.00    +0.000 A 
ATOM      6  C   UNL     1       2.175   4.995  20.137  0.00  0.00    +0.000 A 
ATOM      7  C   UNL     1       2.128   6.389  19.951  0.00  0.00    +0.000 A 
ATOM      8  C   UNL     1       2.741   6.937  18.833  0.00  0.00    +0.000 A 
ATOM      9  C   UNL     1       3.394   6.109  17.914  0.00  0.00    +0.000 A 
ATOM     10  C   UNL     1       3.433   4.705  18.066  0.00  0.00    +0.000 A 
ENDROOT
BRANCH   6  11
ATOM     11  O   UNL     1       1.569   4.519  21.278  0.00  0.00    +0.000 OA
ATOM     12  H   UNL     1       1.990   4.891  22.061  0.00  0.00    +0.000 HD
ENDBRANCH   6  11
BRANCH   7  13
ATOM     13  O   UNL     1       1.455   7.106  20.908  0.00  0.00    +0.000 OA
ATOM     14  C   UNL     1       1.332   8.508  20.715  0.00  0.00    +0.000 C 
ENDBRANCH   7  13
BRANCH   1  15
ATOM     15  O   UNL     1       4.818   4.500  16.138  0.00  0.00    +0.000 OA
BRANCH  15  16
ATOM     16  C   UNL     1       6.248   4.315  16.139  0.00  0.00    +0.000 C 
BRANCH  16  17
ATOM     17  C   UNL     1       6.877   5.416  16.971  0.00  0.00    +0.000 A 
ATOM     18  C   UNL     1       6.932   6.777  16.731  0.00  0.00    +0.000 A 
ATOM     19  C   UNL     1       7.615   7.491  17.759  0.00  0.00    +0.000 A 
ATOM     20  C   UNL     1       8.058   6.655  18.760  0.00  0.00    +0.000 A 
ATOM     21  S   UNL     1       7.620   5.030  18.476  0.00  0.00    +0.000 S 
ENDBRANCH  16  17
BRANCH  16  22
ATOM     22  C   UNL     1       6.660   4.409  14.657  0.00  0.00    +0.000 C 
BRANCH  22  23
ATOM     23  C   UNL     1       5.641   3.914  13.629  0.00  0.00    +0.000 C 
BRANCH  23  25
ATOM     24  C   UNL     1       7.056   3.713  11.689  0.00  0.00    +0.000 C 
ATOM     25  N   UNL     1       6.237   2.993  12.660  0.00  0.00    +0.000 NA
ATOM     26  H   UNL     1       6.839   2.326  13.141  0.00  0.00    +0.000 HD
ENDBRANCH  23  25
ENDBRANCH  22  23
ENDBRANCH  16  22
ENDBRANCH  15  16
ENDBRANCH   1  15
TORSDOF 8
ENDMDL
MODEL 4
REMARK VINA RESULT:      -6.9      3.033      5.875
REMARK  Name = 
REMARK  10 active torsions:
REMARK  status: ('A' for Active; 'I' for Inactive)
REMARK    1  A    between atoms: C_1  and  N_2
REMARK    2  A    between atoms: N_2  and  C_3
REMARK    3  A    between atoms: C_3  and  C_4
REMARK    4  A    between atoms: C_4  and  C_5
REMARK    5  A    between atoms: C_5  and  O_6
REMARK    6  A    between atoms: C_5  and  C_20
REMARK    7  A    between atoms: O_6  and  C_7
REMARK    8  A    between atoms: C_12  and  O_13
REMARK    9  A    between atoms: C_14  and  O_15
REMARK   10  A    between atoms: O_15  and  C_16
REMARK                            x       y       z     vdW  Elec       q    Type
REMARK                         _______ _______ _______ _____ _____    ______ ____
ROOT
ATOM      1  C   UNL     1       2.013   7.976  19.459  0.00  0.00    +0.000 A 
ATOM      2  C   UNL     1       2.259   8.365  18.142  0.00  0.00    +0.000 A 
ATOM      3  C   UNL     1       1.792   9.589  17.682  0.00  0.00    +0.000 A 
ATOM      4  C   UNL     1       1.081  10.433  18.534  0.00  0.00    +0.000 A 
ATOM      5  C   UNL     1       0.868  10.109  19.896  0.00  0.00    +0.000 A 
ATOM      6  C   UNL     1       0.205  10.962  20.824  0.00  0.00    +0.000 A 
ATOM      7  C   UNL     1       0.063  10.622  22.182  0.00  0.00    +0.000 A 
ATOM      8  C   UNL     1       0.552   9.399  22.621  0.00  0.00    +0.000 A 
ATOM      9  C   UNL     1       1.171   8.527  21.719  0.00  0.00    +0.000 A 
ATOM     10  C   UNL     1       1.348   8.857  20.357  0.00  0.00    +0.000 A 
ENDROOT
BRANCH   6  11
ATOM     11  O   UNL     1      -0.324  12.178  20.450  0.00  0.00    +0.000 OA
ATOM     12  H   UNL     1       0.202  12.567  19.742  0.00  0.00    +0.000 HD
ENDBRANCH   6  11
BRANCH   7  13
ATOM     13  O   UNL     1      -0.551  11.553  22.980  0.00  0.00    +0.000 OA
ATOM     14  C   UNL     1      -1.938  11.387  23.238  0.00  0.00    +0.000 C 
ENDBRANCH   7  13
BRANCH   1  15
ATOM     15  O   UNL     1       2.288   6.711  19.923  0.00  0.00    +0.000 OA
BRANCH  15  16
ATOM     16  C   UNL     1       2.850   5.746  19.011  0.00  0.00    +0.000 C 
BRANCH  16  17
ATOM     17  C   UNL     1       2.058   4.457  19.125  0.00  0.00    +0.000 A 
ATOM     18  C   UNL     1       1.197   4.039  20.124  0.00  0.00    +0.000 A 
ATOM     19  C   UNL     1       0.637   2.754  19.866  0.00  0.00    +0.000 A 
ATOM     20  C   UNL     1       1.079   2.228  18.673  0.00  0.00    +0.000 A 
ATOM     21  S   UNL     1       2.134   3.293  17.857  0.00  0.00    +0.000 S 
ENDBRANCH  16  17
BRANCH  16  22
ATOM     22  C   UNL     1       4.308   5.566  19.475  0.00  0.00    +0.000 C 
BRANCH  22  23
ATOM     23  C   UNL     1       5.372   5.487  18.379  0.00  0.00    +0.000 C 
BRANCH  23  25
ATOM     24  C   UNL     1       7.548   4.651  17.770  0.00  0.00    +0.000 C 
ATOM     25  N   UNL     1       6.633   4.929  18.872  0.00  0.00    +0.000 NA
ATOM     26  H   UNL     1       7.088   5.596  19.493  0.00  0.00    +0.000 HD
ENDBRANCH  23  25
ENDBRANCH  22  23
ENDBRANCH  16  22
ENDBRANCH  15  16
ENDBRANCH   1  15
TORSDOF 8
ENDMDL
MODEL 5
REMARK VINA RESULT:      -6.9      1.425      2.063
REMARK  Name = 
REMARK  10 active torsions:
REMARK  status: ('A' for Active; 'I' for Inactive)
REMARK    1  A    between atoms: C_1  and  N_2
REMARK    2  A    between atoms: N_2  and  C_3
REMARK    3  A    between atoms: C_3  and  C_4
REMARK    4  A    between atoms: C_4  and  C_5
REMARK    5  A    between atoms: C_5  and  O_6
REMARK    6  A    between atoms: C_5  and  C_20
REMARK    7  A    between atoms: O_6  and  C_7
REMARK    8  A    between atoms: C_12  and  O_13
REMARK    9  A    between atoms: C_14  and  O_15
REMARK   10  A    between atoms: O_15  and  C_16
REMARK                            x       y       z     vdW  Elec       q    Type
REMARK                         _______ _______ _______ _____ _____    ______ ____
ROOT
ATOM      1  C   UNL     1       3.154   5.858  18.165  0.00  0.00    +0.000 A 
ATOM      2  C   UNL     1       3.125   4.716  18.965  0.00  0.00    +0.000 A 
ATOM      3  C   UNL     1       2.552   4.768  20.228  0.00  0.00    +0.000 A 
ATOM      4  C   UNL     1       2.000   5.959  20.699  0.00  0.00    +0.000 A 
ATOM      5  C   UNL     1       1.946   7.123  19.894  0.00  0.00    +0.000 A 
ATOM      6  C   UNL     1       1.338   8.345  20.302  0.00  0.00    +0.000 A 
ATOM      7  C   UNL     1       1.260   9.462  19.448  0.00  0.00    +0.000 A 
ATOM      8  C   UNL     1       1.828   9.379  18.184  0.00  0.00    +0.000 A 
ATOM      9  C   UNL     1       2.466   8.203  17.777  0.00  0.00    +0.000 A 
ATOM     10  C   UNL     1       2.534   7.061  18.606  0.00  0.00    +0.000 A 
ENDROOT
BRANCH   6  11
ATOM     11  O   UNL     1       0.777   8.502  21.549  0.00  0.00    +0.000 OA
ATOM     12  H   UNL     1       1.047   9.344  21.935  0.00  0.00    +0.000 HD
ENDBRANCH   6  11
BRANCH   7  13
ATOM     13  O   UNL     1       0.605  10.560  19.944  0.00  0.00    +0.000 OA
ATOM     14  C   UNL     1       0.963  11.831  19.422  0.00  0.00    +0.000 C 
ENDBRANCH   7  13
BRANCH   1  15
ATOM     15  O   UNL     1       3.860   5.922  16.987  0.00  0.00    +0.000 OA
BRANCH  15  16
ATOM     16  C   UNL     1       5.083   5.166  16.870  0.00  0.00    +0.000 C 
BRANCH  16  17
ATOM     17  C   UNL     1       6.223   6.002  17.421  0.00  0.00    +0.000 A 
ATOM     18  C   UNL     1       6.624   7.279  17.071  0.00  0.00    +0.000 A 
ATOM     19  C   UNL     1       7.748   7.728  17.825  0.00  0.00    +0.000 A 
ATOM     20  C   UNL     1       8.170   6.784  18.734  0.00  0.00    +0.000 A 
ATOM     21  S   UNL     1       7.194   5.384  18.701  0.00  0.00    +0.000 S 
ENDBRANCH  16  17
BRANCH  16  22
ATOM     22  C   UNL     1       5.241   4.902  15.360  0.00  0.00    +0.000 C 
BRANCH  22  23
ATOM     23  C   UNL     1       6.505   4.161  14.922  0.00  0.00    +0.000 C 
BRANCH  23  25
ATOM     24  C   UNL     1       6.674   3.939  12.529  0.00  0.00    +0.000 C 
ATOM     25  N   UNL     1       6.264   3.290  13.770  0.00  0.00    +0.000 NA
ATOM     26  H   UNL     1       6.805   2.432  13.866  0.00  0.00    +0.000 HD
ENDBRANCH  23  25
ENDBRANCH  22  23
ENDBRANCH  16  22
ENDBRANCH  15  16
ENDBRANCH   1  15
TORSDOF 8
ENDMDL
MODEL 6
REMARK VINA RESULT:      -6.7      3.454      6.109
REMARK  Name = 
REMARK  10 active torsions:
REMARK  status: ('A' for Active; 'I' for Inactive)
REMARK    1  A    between atoms: C_1  and  N_2
REMARK    2  A    between atoms: N_2  and  C_3
REMARK    3  A    between atoms: C_3  and  C_4
REMARK    4  A    between atoms: C_4  and  C_5
REMARK    5  A    between atoms: C_5  and  O_6
REMARK    6  A    between atoms: C_5  and  C_20
REMARK    7  A    between atoms: O_6  and  C_7
REMARK    8  A    between atoms: C_12  and  O_13
REMARK    9  A    between atoms: C_14  and  O_15
REMARK   10  A    between atoms: O_15  and  C_16
REMARK                            x       y       z     vdW  Elec       q    Type
REMARK                         _______ _______ _______ _____ _____    ______ ____
ROOT
ATOM      1  C   UNL     1       1.933   8.072  19.508  0.00  0.00    +0.000 A 
ATOM      2  C   UNL     1       2.115   8.470  18.184  0.00  0.00    +0.000 A 
ATOM      3  C   UNL     1       1.583   9.675  17.744  0.00  0.00    +0.000 A 
ATOM      4  C   UNL     1       0.871  10.490  18.623  0.00  0.00    +0.000 A 
ATOM      5  C   UNL     1       0.722  10.157  19.991  0.00  0.00    +0.000 A 
ATOM      6  C   UNL     1       0.060  10.983  20.944  0.00  0.00    +0.000 A 
ATOM      7  C   UNL     1      -0.017  10.637  22.307  0.00  0.00    +0.000 A 
ATOM      8  C   UNL     1       0.536   9.434  22.725  0.00  0.00    +0.000 A 
ATOM      9  C   UNL     1       1.156   8.587  21.799  0.00  0.00    +0.000 A 
ATOM     10  C   UNL     1       1.268   8.925  20.432  0.00  0.00    +0.000 A 
ENDROOT
BRANCH   6  11
ATOM     11  O   UNL     1      -0.530  12.176  20.593  0.00  0.00    +0.000 OA
ATOM     12  H   UNL     1      -1.261  12.376  21.188  0.00  0.00    +0.000 HD
ENDBRANCH   6  11
BRANCH   7  13
ATOM     13  O   UNL     1      -0.638  11.542  23.129  0.00  0.00    +0.000 OA
ATOM     14  C   UNL     1      -2.043  11.425  23.294  0.00  0.00    +0.000 C 
ENDBRANCH   7  13
BRANCH   1  15
ATOM     15  O   UNL     1       2.276   6.819  19.959  0.00  0.00    +0.000 OA
BRANCH  15  16
ATOM     16  C   UNL     1       2.708   5.831  19.001  0.00  0.00    +0.000 C 
BRANCH  16  17
ATOM     17  C   UNL     1       1.888   4.570  19.205  0.00  0.00    +0.000 A 
ATOM     18  C   UNL     1       1.328   4.064  20.364  0.00  0.00    +0.000 A 
ATOM     19  C   UNL     1       0.622   2.845  20.147  0.00  0.00    +0.000 A 
ATOM     20  C   UNL     1       0.655   2.457  18.827  0.00  0.00    +0.000 A 
ATOM     21  S   UNL     1       1.503   3.574  17.854  0.00  0.00    +0.000 S 
ENDBRANCH  16  17
BRANCH  16  22
ATOM     22  C   UNL     1       4.199   5.603  19.312  0.00  0.00    +0.000 C 
BRANCH  22  23
ATOM     23  C   UNL     1       4.872   4.418  18.617  0.00  0.00    +0.000 C 
BRANCH  23  25
ATOM     24  C   UNL     1       4.519   2.209  19.510  0.00  0.00    +0.000 C 
ATOM     25  N   UNL     1       5.342   3.412  19.571  0.00  0.00    +0.000 NA
ATOM     26  H   UNL     1       6.300   3.145  19.347  0.00  0.00    +0.000 HD
ENDBRANCH  23  25
ENDBRANCH  22  23
ENDBRANCH  16  22
ENDBRANCH  15  16
ENDBRANCH   1  15
TORSDOF 8
ENDMDL
MODEL 7
REMARK VINA RESULT:      -6.7      1.985      4.514
REMARK  Name = 
REMARK  10 active torsions:
REMARK  status: ('A' for Active; 'I' for Inactive)
REMARK    1  A    between atoms: C_1  and  N_2
REMARK    2  A    between atoms: N_2  and  C_3
REMARK    3  A    between atoms: C_3  and  C_4
REMARK    4  A    between atoms: C_4  and  C_5
REMARK    5  A    between atoms: C_5  and  O_6
REMARK    6  A    between atoms: C_5  and  C_20
REMARK    7  A    between atoms: O_6  and  C_7
REMARK    8  A    between atoms: C_12  and  O_13
REMARK    9  A    between atoms: C_14  and  O_15
REMARK   10  A    between atoms: O_15  and  C_16
REMARK                            x       y       z     vdW  Elec       q    Type
REMARK                         _______ _______ _______ _____ _____    ______ ____
ROOT
ATOM      1  C   UNL     1       4.300   5.521  17.068  0.00  0.00    +0.000 A 
ATOM      2  C   UNL     1       4.236   6.915  17.060  0.00  0.00    +0.000 A 
ATOM      3  C   UNL     1       3.332   7.571  17.884  0.00  0.00    +0.000 A 
ATOM      4  C   UNL     1       2.491   6.842  18.724  0.00  0.00    +0.000 A 
ATOM      5  C   UNL     1       2.570   5.431  18.814  0.00  0.00    +0.000 A 
ATOM      6  C   UNL     1       1.780   4.644  19.699  0.00  0.00    +0.000 A 
ATOM      7  C   UNL     1       1.931   3.247  19.794  0.00  0.00    +0.000 A 
ATOM      8  C   UNL     1       2.852   2.616  18.970  0.00  0.00    +0.000 A 
ATOM      9  C   UNL     1       3.611   3.364  18.064  0.00  0.00    +0.000 A 
ATOM     10  C   UNL     1       3.496   4.769  17.969  0.00  0.00    +0.000 A 
ENDROOT
BRANCH   6  11
ATOM     11  O   UNL     1       0.832   5.203  20.527  0.00  0.00    +0.000 OA
ATOM     12  H   UNL     1       0.955   4.897  21.433  0.00  0.00    +0.000 HD
ENDBRANCH   6  11
BRANCH   7  13
ATOM     13  O   UNL     1       1.143   2.613  20.722  0.00  0.00    +0.000 OA
ATOM     14  C   UNL     1       1.691   2.399  22.014  0.00  0.00    +0.000 C 
ENDBRANCH   7  13
BRANCH   1  15
ATOM     15  O   UNL     1       5.040   4.808  16.155  0.00  0.00    +0.000 OA
BRANCH  15  16
ATOM     16  C   UNL     1       6.004   5.509  15.344  0.00  0.00    +0.000 C 
BRANCH  16  17
ATOM     17  C   UNL     1       6.217   4.727  14.061  0.00  0.00    +0.000 A 
ATOM     18  C   UNL     1       5.418   3.758  13.480  0.00  0.00    +0.000 A 
ATOM     19  C   UNL     1       5.962   3.255  12.262  0.00  0.00    +0.000 A 
ATOM     20  C   UNL     1       7.159   3.856  11.943  0.00  0.00    +0.000 A 
ATOM     21  S   UNL     1       7.601   5.044  13.087  0.00  0.00    +0.000 S 
ENDBRANCH  16  17
BRANCH  16  22
ATOM     22  C   UNL     1       7.282   5.559  16.204  0.00  0.00    +0.000 C 
BRANCH  22  23
ATOM     23  C   UNL     1       7.523   4.377  17.144  0.00  0.00    +0.000 C 
BRANCH  23  25
ATOM     24  C   UNL     1       7.693   6.260  18.637  0.00  0.00    +0.000 C 
ATOM     25  N   UNL     1       7.726   4.805  18.529  0.00  0.00    +0.000 NA
ATOM     26  H   UNL     1       6.982   4.433  19.118  0.00  0.00    +0.000 HD
ENDBRANCH  23  25
ENDBRANCH  22  23
ENDBRANCH  16  22
ENDBRANCH  15  16
ENDBRANCH   1  15
TORSDOF 8
ENDMDL
MODEL 8
REMARK VINA RESULT:      -6.7      2.569      3.781
REMARK  Name = 
REMARK  10 active torsions:
REMARK  status: ('A' for Active; 'I' for Inactive)
REMARK    1  A    between atoms: C_1  and  N_2
REMARK    2  A    between atoms: N_2  and  C_3
REMARK    3  A    between atoms: C_3  and  C_4
REMARK    4  A    between atoms: C_4  and  C_5
REMARK    5  A    between atoms: C_5  and  O_6
REMARK    6  A    between atoms: C_5  and  C_20
REMARK    7  A    between atoms: O_6  and  C_7
REMARK    8  A    between atoms: C_12  and  O_13
REMARK    9  A    between atoms: C_14  and  O_15
REMARK   10  A    between atoms: O_15  and  C_16
REMARK                            x       y       z     vdW  Elec       q    Type
REMARK                         _______ _______ _______ _____ _____    ______ ____
ROOT
ATOM      1  C   UNL     1       2.527   6.304  18.980  0.00  0.00    +0.000 A 
ATOM      2  C   UNL     1       2.148   5.540  20.084  0.00  0.00    +0.000 A 
ATOM      3  C   UNL     1       1.477   6.137  21.142  0.00  0.00    +0.000 A 
ATOM      4  C   UNL     1       1.177   7.498  21.105  0.00  0.00    +0.000 A 
ATOM      5  C   UNL     1       1.482   8.296  19.975  0.00  0.00    +0.000 A 
ATOM      6  C   UNL     1       1.142   9.674  19.859  0.00  0.00    +0.000 A 
ATOM      7  C   UNL     1       1.417  10.416  18.694  0.00  0.00    +0.000 A 
ATOM      8  C   UNL     1       2.075   9.792  17.643  0.00  0.00    +0.000 A 
ATOM      9  C   UNL     1       2.455   8.450  17.751  0.00  0.00    +0.000 A 
ATOM     10  C   UNL     1       2.167   7.678  18.899  0.00  0.00    +0.000 A 
ENDROOT
BRANCH   6  11
ATOM     11  O   UNL     1       0.510  10.359  20.872  0.00  0.00    +0.000 OA
ATOM     12  H   UNL     1       0.490   9.826  21.675  0.00  0.00    +0.000 HD
ENDBRANCH   6  11
BRANCH   7  13
ATOM     13  O   UNL     1       0.993  11.720  18.691  0.00  0.00    +0.000 OA
ATOM     14  C   UNL     1       1.968  12.728  18.469  0.00  0.00    +0.000 C 
ENDBRANCH   7  13
BRANCH   1  15
ATOM     15  O   UNL     1       3.344   5.818  17.987  0.00  0.00    +0.000 OA
BRANCH  15  16
ATOM     16  C   UNL     1       4.400   4.903  18.343  0.00  0.00    +0.000 C 
BRANCH  16  17
ATOM     17  C   UNL     1       5.722   5.644  18.285  0.00  0.00    +0.000 A 
ATOM     18  C   UNL     1       6.834   5.521  19.099  0.00  0.00    +0.000 A 
ATOM     19  C   UNL     1       7.893   6.398  18.721  0.00  0.00    +0.000 A 
ATOM     20  C   UNL     1       7.563   7.162  17.624  0.00  0.00    +0.000 A 
ATOM     21  S   UNL     1       6.002   6.796  17.037  0.00  0.00    +0.000 S 
ENDBRANCH  16  17
BRANCH  16  22
ATOM     22  C   UNL     1       4.323   3.782  17.288  0.00  0.00    +0.000 C 
BRANCH  22  23
ATOM     23  C   UNL     1       3.394   2.608  17.600  0.00  0.00    +0.000 C 
BRANCH  23  25
ATOM     24  C   UNL     1       1.210   2.388  18.593  0.00  0.00    +0.000 C 
ATOM     25  N   UNL     1       1.981   2.982  17.506  0.00  0.00    +0.000 NA
ATOM     26  H   UNL     1       1.886   3.995  17.574  0.00  0.00    +0.000 HD
ENDBRANCH  23  25
ENDBRANCH  22  23
ENDBRANCH  16  22
ENDBRANCH  15  16
ENDBRANCH   1  15
TORSDOF 8
ENDMDL
MODEL 9
REMARK VINA RESULT:      -6.7      1.476      2.340
REMARK  Name = 
REMARK  10 active torsions:
REMARK  status: ('A' for Active; 'I' for Inactive)
REMARK    1  A    between atoms: C_1  and  N_2
REMARK    2  A    between atoms: N_2  and  C_3
REMARK    3  A    between atoms: C_3  and  C_4
REMARK    4  A    between atoms: C_4  and  C_5
REMARK    5  A    between atoms: C_5  and  O_6
REMARK    6  A    between atoms: C_5  and  C_20
REMARK    7  A    between atoms: O_6  and  C_7
REMARK    8  A    between atoms: C_12  and  O_13
REMARK    9  A    between atoms: C_14  and  O_15
REMARK   10  A    between atoms: O_15  and  C_16
REMARK                            x       y       z     vdW  Elec       q    Type
REMARK                         _______ _______ _______ _____ _____    ______ ____
ROOT
ATOM      1  C   UNL     1       2.882   6.070  18.478  0.00  0.00    +0.000 A 
ATOM      2  C   UNL     1       2.696   5.058  19.420  0.00  0.00    +0.000 A 
ATOM      3  C   UNL     1       2.057   5.337  20.620  0.00  0.00    +0.000 A 
ATOM      4  C   UNL     1       1.596   6.626  20.886  0.00  0.00    +0.000 A 
ATOM      5  C   UNL     1       1.702   7.666  19.931  0.00  0.00    +0.000 A 
ATOM      6  C   UNL     1       1.192   8.982  20.126  0.00  0.00    +0.000 A 
ATOM      7  C   UNL     1       1.272   9.969  19.126  0.00  0.00    +0.000 A 
ATOM      8  C   UNL     1       1.902   9.661  17.928  0.00  0.00    +0.000 A 
ATOM      9  C   UNL     1       2.446   8.388  17.730  0.00  0.00    +0.000 A 
ATOM     10  C   UNL     1       2.356   7.372  18.708  0.00  0.00    +0.000 A 
ENDROOT
BRANCH   6  11
ATOM     11  O   UNL     1       0.576   9.360  21.298  0.00  0.00    +0.000 OA
ATOM     12  H   UNL     1       0.195  10.241  21.207  0.00  0.00    +0.000 HD
ENDBRANCH   6  11
BRANCH   7  13
ATOM     13  O   UNL     1       0.698  11.180  19.422  0.00  0.00    +0.000 OA
ATOM     14  C   UNL     1      -0.493  11.530  18.733  0.00  0.00    +0.000 C 
ENDBRANCH   7  13
BRANCH   1  15
ATOM     15  O   UNL     1       3.658   5.905  17.355  0.00  0.00    +0.000 OA
BRANCH  15  16
ATOM     16  C   UNL     1       4.713   4.923  17.380  0.00  0.00    +0.000 C 
BRANCH  16  17
ATOM     17  C   UNL     1       5.979   5.584  17.892  0.00  0.00    +0.000 A 
ATOM     18  C   UNL     1       6.856   5.161  18.874  0.00  0.00    +0.000 A 
ATOM     19  C   UNL     1       7.941   6.065  19.070  0.00  0.00    +0.000 A 
ATOM     20  C   UNL     1       7.866   7.151  18.227  0.00  0.00    +0.000 A 
ATOM     21  S   UNL     1       6.517   7.060  17.185  0.00  0.00    +0.000 S 
ENDBRANCH  16  17
BRANCH  16  22
ATOM     22  C   UNL     1       4.858   4.462  15.917  0.00  0.00    +0.000 C 
BRANCH  22  23
ATOM     23  C   UNL     1       6.186   3.809  15.531  0.00  0.00    +0.000 C 
BRANCH  23  25
ATOM     24  C   UNL     1       6.122   3.664  13.127  0.00  0.00    +0.000 C 
ATOM     25  N   UNL     1       6.719   4.340  14.275  0.00  0.00    +0.000 NA
ATOM     26  H   UNL     1       6.501   5.332  14.199  0.00  0.00    +0.000 HD
ENDBRANCH  23  25
ENDBRANCH  22  23
ENDBRANCH  16  22
ENDBRANCH  15  16
ENDBRANCH   1  15
TORSDOF 8
ENDMDL
