MODEL 1
REMARK VINA RESULT:      -7.9      0.000      0.000
REMARK  Name = 
REMARK  10 active torsions:
REMARK  status: ('A' for Active; 'I' for Inactive)
REMARK    1  A    between atoms: C_1  and  C_2
REMARK    2  A    between atoms: C_2  and  C_3
REMARK    3  A    between atoms: C_9  and  C_10
REMARK    4  A    between atoms: C_10  and  C_11
REMARK    5  A    between atoms: N_13  and  C_14
REMARK    6  A    between atoms: N_13  and  C_24
REMARK    7  A    between atoms: C_14  and  C_15
REMARK    8  A    between atoms: C_18  and  N_19
REMARK    9  A    between atoms: N_19  and  C_20
REMARK   10  A    between atoms: N_19  and  C_21
REMARK                            x       y       z     vdW  Elec       q    Type
REMARK                         _______ _______ _______ _____ _____    ______ ____
ROOT
ATOM      1  C   UNL     1       3.431   7.032  18.041  0.00  0.00    +0.000 C 
ATOM      2  O   UNL     1       4.446   7.720  17.913  0.00  0.00    +0.000 OA
ATOM      3  N   UNL     1       3.479   5.632  18.325  0.00  0.00    +0.000 N 
ENDROOT
BRANCH   3   4
ATOM      4  C   UNL     1       2.340   4.987  19.014  0.00  0.00    +0.000 C 
ATOM      5  C   UNL     1       2.545   4.446  20.439  0.00  0.00    +0.000 C 
ATOM      6  C   UNL     1       3.036   3.006  20.349  0.00  0.00    +0.000 C 
ATOM      7  S   UNL     1       2.266   2.325  18.902  0.00  0.00    +0.000 S 
ATOM      8  O   UNL     1       1.104   1.566  19.313  0.00  0.00    +0.000 OA
ATOM      9  O   UNL     1       3.295   1.768  18.050  0.00  0.00    +0.000 OA
ATOM     10  C   UNL     1       1.705   3.852  18.199  0.00  0.00    +0.000 C 
ENDBRANCH   3   4
BRANCH   1  11
ATOM     11  C   UNL     1       2.043   7.691  18.029  0.00  0.00    +0.000 C 
BRANCH  11  18
ATOM     12  C   UNL     1      -1.046  11.184  18.723  0.00  0.00    +0.000 A 
ATOM     13  C   UNL     1      -1.254  11.412  20.092  0.00  0.00    +0.000 A 
ATOM     14  C   UNL     1      -0.536  10.712  21.070  0.00  0.00    +0.000 A 
ATOM     15  C   UNL     1       0.386   9.771  20.614  0.00  0.00    +0.000 A 
ATOM     16  O   UNL     1       1.174   8.991  21.402  0.00  0.00    +0.000 OA
ATOM     17  C   UNL     1       1.896   8.187  20.577  0.00  0.00    +0.000 A 
ATOM     18  C   UNL     1       1.586   8.422  19.252  0.00  0.00    +0.000 A 
ATOM     19  C   UNL     1       0.614   9.485  19.276  0.00  0.00    +0.000 A 
ATOM     20  C   UNL     1      -0.116  10.209  18.308  0.00  0.00    +0.000 A 
BRANCH  12  22
ATOM     21  C   UNL     1      -3.052  11.190  17.205  0.00  0.00    +0.000 C 
ATOM     22  C   UNL     1      -1.836  11.962  17.696  0.00  0.00    +0.000 C 
ENDBRANCH  12  22
ENDBRANCH  11  18
ENDBRANCH   1  11
BRANCH   3  23
ATOM     23  C   UNL     1       4.831   5.018  18.389  0.00  0.00    +0.000 C 
BRANCH  23  24
ATOM     24  C   UNL     1       5.465   4.724  17.052  0.00  0.00    +0.000 A 
ATOM     25  C   UNL     1       6.799   5.057  16.832  0.00  0.00    +0.000 A 
ATOM     26  C   UNL     1       7.360   4.978  15.553  0.00  0.00    +0.000 A 
ATOM     27  C   UNL     1       6.635   4.532  14.440  0.00  0.00    +0.000 A 
ATOM     28  C   UNL     1       5.339   4.058  14.719  0.00  0.00    +0.000 A 
ATOM     29  C   UNL     1       4.752   4.162  15.993  0.00  0.00    +0.000 A 
BRANCH  27  30
ATOM     30  N   UNL     1       7.137   4.628  13.148  0.00  0.00    +0.000 N 
ATOM     31  C   UNL     1       8.224   5.535  12.789  0.00  0.00    +0.000 C 
ATOM     32  C   UNL     1       6.780   3.667  12.110  0.00  0.00    +0.000 C 
ENDBRANCH  27  30
ENDBRANCH  23  24
ENDBRANCH   3  23
TORSDOF 7
ENDMDL
MODEL 2
REMARK VINA RESULT:      -7.9      0.850      1.276
REMARK  Name = 
REMARK  10 active torsions:
REMARK  status: ('A' for Active; 'I' for Inactive)
REMARK    1  A    between atoms: C_1  and  C_2
REMARK    2  A    between atoms: C_2  and  C_3
REMARK    3  A    between atoms: C_9  and  C_10
REMARK    4  A    between atoms: C_10  and  C_11
REMARK    5  A    between atoms: N_13  and  C_14
REMARK    6  A    between atoms: N_13  and  C_24
REMARK    7  A    between atoms: C_14  and  C_15
REMARK    8  A    between atoms: C_18  and  N_19
REMARK    9  A    between atoms: N_19  and  C_20
REMARK   10  A    between atoms: N_19  and  C_21
REMARK                            x       y       z     vdW  Elec       q    Type
REMARK                         _______ _______ _______ _____ _____    ______ ____
ROOT
ATOM      1  C   UNL     1       2.980   7.370  17.911  0.00  0.00    +0.000 C 
ATOM      2  O   UNL     1       3.894   8.173  17.712  0.00  0.00    +0.000 OA
ATOM      3  N   UNL     1       3.212   6.035  18.363  0.00  0.00    +0.000 N 
ENDROOT
BRANCH   3   4
ATOM      4  C   UNL     1       2.152   5.323  19.112  0.00  0.00    +0.000 C 
ATOM      5  C   UNL     1       2.469   4.789  20.519  0.00  0.00    +0.000 C 
ATOM      6  C   UNL     1       3.035   3.380  20.391  0.00  0.00    +0.000 C 
ATOM      7  S   UNL     1       2.223   2.662  18.987  0.00  0.00    +0.000 S 
ATOM      8  O   UNL     1       1.130   1.836  19.458  0.00  0.00    +0.000 OA
ATOM      9  O   UNL     1       3.231   2.167  18.073  0.00  0.00    +0.000 OA
ATOM     10  C   UNL     1       1.537   4.157  18.327  0.00  0.00    +0.000 C 
ENDBRANCH   3   4
BRANCH   1  11
ATOM     11  C   UNL     1       1.516   7.822  17.801  0.00  0.00    +0.000 C 
BRANCH  11  18
ATOM     12  C   UNL     1      -2.220  10.679  17.468  0.00  0.00    +0.000 A 
ATOM     13  C   UNL     1      -2.272  11.573  18.548  0.00  0.00    +0.000 A 
ATOM     14  C   UNL     1      -1.261  11.611  19.517  0.00  0.00    +0.000 A 
ATOM     15  C   UNL     1      -0.210  10.710  19.361  0.00  0.00    +0.000 A 
ATOM     16  O   UNL     1       0.859  10.590  20.194  0.00  0.00    +0.000 OA
ATOM     17  C   UNL     1       1.630   9.578  19.714  0.00  0.00    +0.000 A 
ATOM     18  C   UNL     1       1.076   9.023  18.578  0.00  0.00    +0.000 A 
ATOM     19  C   UNL     1      -0.119   9.787  18.329  0.00  0.00    +0.000 A 
ATOM     20  C   UNL     1      -1.145   9.773  17.358  0.00  0.00    +0.000 A 
BRANCH  12  22
ATOM     21  C   UNL     1      -2.815  10.294  15.054  0.00  0.00    +0.000 C 
ATOM     22  C   UNL     1      -3.325  10.669  16.438  0.00  0.00    +0.000 C 
ENDBRANCH  12  22
ENDBRANCH  11  18
ENDBRANCH   1  11
BRANCH   3  23
ATOM     23  C   UNL     1       4.633   5.627  18.520  0.00  0.00    +0.000 C 
BRANCH  23  24
ATOM     24  C   UNL     1       5.302   5.144  17.257  0.00  0.00    +0.000 A 
ATOM     25  C   UNL     1       6.612   5.527  16.979  0.00  0.00    +0.000 A 
ATOM     26  C   UNL     1       7.193   5.260  15.735  0.00  0.00    +0.000 A 
ATOM     27  C   UNL     1       6.515   4.570  14.721  0.00  0.00    +0.000 A 
ATOM     28  C   UNL     1       5.253   4.063  15.082  0.00  0.00    +0.000 A 
ATOM     29  C   UNL     1       4.644   4.352  16.317  0.00  0.00    +0.000 A 
BRANCH  27  30
ATOM     30  N   UNL     1       7.025   4.468  13.433  0.00  0.00    +0.000 N 
ATOM     31  C   UNL     1       6.442   3.592  12.420  0.00  0.00    +0.000 C 
ATOM     32  C   UNL     1       8.028   5.399  12.927  0.00  0.00    +0.000 C 
ENDBRANCH  27  30
ENDBRANCH  23  24
ENDBRANCH   3  23
TORSDOF 7
ENDMDL
MODEL 3
REMARK VINA RESULT:      -7.8      1.987      8.149
REMARK  Name = 
REMARK  10 active torsions:
REMARK  status: ('A' for Active; 'I' for Inactive)
REMARK    1  A    between atoms: C_1  and  C_2
REMARK    2  A    between atoms: C_2  and  C_3
REMARK    3  A    between atoms: C_9  and  C_10
REMARK    4  A    between atoms: C_10  and  C_11
REMARK    5  A    between atoms: N_13  and  C_14
REMARK    6  A    between atoms: N_13  and  C_24
REMARK    7  A    between atoms: C_14  and  C_15
REMARK    8  A    between atoms: C_18  and  N_19
REMARK    9  A    between atoms: N_19  and  C_20
REMARK   10  A    between atoms: N_19  and  C_21
REMARK                            x       y       z     vdW  Elec       q    Type
REMARK                         _______ _______ _______ _____ _____    ______ ____
ROOT
ATOM      1  C   UNL     1       4.360   6.019  17.658  0.00  0.00    +0.000 C 
ATOM      2  O   UNL     1       4.991   7.074  17.577  0.00  0.00    +0.000 OA
ATOM      3  N   UNL     1       3.408   5.766  18.693  0.00  0.00    +0.000 N 
ENDROOT
BRANCH   3   4
ATOM      4  C   UNL     1       2.306   4.808  18.455  0.00  0.00    +0.000 C 
ATOM      5  C   UNL     1       1.252   4.600  19.556  0.00  0.00    +0.000 C 
ATOM      6  C   UNL     1       1.732   3.497  20.490  0.00  0.00    +0.000 C 
ATOM      7  S   UNL     1       2.645   2.367  19.470  0.00  0.00    +0.000 S 
ATOM      8  O   UNL     1       1.781   1.258  19.123  0.00  0.00    +0.000 OA
ATOM      9  O   UNL     1       3.956   2.176  20.052  0.00  0.00    +0.000 OA
ATOM     10  C   UNL     1       2.797   3.412  18.047  0.00  0.00    +0.000 C 
ENDBRANCH   3   4
BRANCH   1  11
ATOM     11  C   UNL     1       4.479   4.959  16.551  0.00  0.00    +0.000 C 
BRANCH  11  18
ATOM     12  C   UNL     1       5.366   3.455  12.172  0.00  0.00    +0.000 A 
ATOM     13  C   UNL     1       6.660   3.813  11.765  0.00  0.00    +0.000 A 
ATOM     14  C   UNL     1       7.549   4.458  12.634  0.00  0.00    +0.000 A 
ATOM     15  C   UNL     1       7.080   4.736  13.916  0.00  0.00    +0.000 A 
ATOM     16  O   UNL     1       7.786   5.357  14.900  0.00  0.00    +0.000 OA
ATOM     17  C   UNL     1       6.963   5.470  15.975  0.00  0.00    +0.000 A 
ATOM     18  C   UNL     1       5.716   4.938  15.710  0.00  0.00    +0.000 A 
ATOM     19  C   UNL     1       5.803   4.429  14.365  0.00  0.00    +0.000 A 
ATOM     20  C   UNL     1       4.927   3.771  13.474  0.00  0.00    +0.000 A 
BRANCH  12  22
ATOM     21  C   UNL     1       3.544   3.734  10.460  0.00  0.00    +0.000 C 
ATOM     22  C   UNL     1       4.435   2.755  11.209  0.00  0.00    +0.000 C 
ENDBRANCH  12  22
ENDBRANCH  11  18
ENDBRANCH   1  11
BRANCH   3  23
ATOM     23  C   UNL     1       3.261   6.824  19.727  0.00  0.00    +0.000 C 
BRANCH  23  24
ATOM     24  C   UNL     1       2.173   7.834  19.458  0.00  0.00    +0.000 A 
ATOM     25  C   UNL     1       2.010   8.349  18.174  0.00  0.00    +0.000 A 
ATOM     26  C   UNL     1       1.146   9.421  17.931  0.00  0.00    +0.000 A 
ATOM     27  C   UNL     1       0.376  10.010  18.942  0.00  0.00    +0.000 A 
ATOM     28  C   UNL     1       0.444   9.373  20.195  0.00  0.00    +0.000 A 
ATOM     29  C   UNL     1       1.333   8.315  20.461  0.00  0.00    +0.000 A 
BRANCH  27  30
ATOM     30  N   UNL     1      -0.337  11.184  18.734  0.00  0.00    +0.000 N 
ATOM     31  C   UNL     1       0.297  12.500  18.709  0.00  0.00    +0.000 C 
ATOM     32  C   UNL     1      -1.728  11.172  18.292  0.00  0.00    +0.000 C 
ENDBRANCH  27  30
ENDBRANCH  23  24
ENDBRANCH   3  23
TORSDOF 7
ENDMDL
MODEL 4
REMARK VINA RESULT:      -7.8      2.067      8.155
REMARK  Name = 
REMARK  10 active torsions:
REMARK  status: ('A' for Active; 'I' for Inactive)
REMARK    1  A    between atoms: C_1  and  C_2
REMARK    2  A    between atoms: C_2  and  C_3
REMARK    3  A    between atoms: C_9  and  C_10
REMARK    4  A    between atoms: C_10  and  C_11
REMARK    5  A    between atoms: N_13  and  C_14
REMARK    6  A    between atoms: N_13  and  C_24
REMARK    7  A    between atoms: C_14  and  C_15
REMARK    8  A    between atoms: C_18  and  N_19
REMARK    9  A    between atoms: N_19  and  C_20
REMARK   10  A    between atoms: N_19  and  C_21
REMARK                            x       y       z     vdW  Elec       q    Type
REMARK                         _______ _______ _______ _____ _____    ______ ____
ROOT
ATOM      1  C   UNL     1       4.406   5.757  17.649  0.00  0.00    +0.000 C 
ATOM      2  O   UNL     1       4.749   6.931  17.498  0.00  0.00    +0.000 OA
ATOM      3  N   UNL     1       3.702   5.303  18.807  0.00  0.00    +0.000 N 
ENDROOT
BRANCH   3   4
ATOM      4  C   UNL     1       2.838   4.105  18.713  0.00  0.00    +0.000 C 
ATOM      5  C   UNL     1       1.311   4.287  18.742  0.00  0.00    +0.000 C 
ATOM      6  C   UNL     1       0.843   4.254  20.191  0.00  0.00    +0.000 C 
ATOM      7  S   UNL     1       1.937   3.133  21.025  0.00  0.00    +0.000 S 
ATOM      8  O   UNL     1       1.288   1.842  21.121  0.00  0.00    +0.000 OA
ATOM      9  O   UNL     1       2.499   3.806  22.177  0.00  0.00    +0.000 OA
ATOM     10  C   UNL     1       3.174   3.034  19.759  0.00  0.00    +0.000 C 
ENDBRANCH   3   4
BRANCH   1  11
ATOM     11  C   UNL     1       4.614   4.738  16.518  0.00  0.00    +0.000 C 
BRANCH  11  18
ATOM     12  C   UNL     1       5.597   3.368  12.115  0.00  0.00    +0.000 A 
ATOM     13  C   UNL     1       6.837   3.869  11.694  0.00  0.00    +0.000 A 
ATOM     14  C   UNL     1       7.663   4.603  12.555  0.00  0.00    +0.000 A 
ATOM     15  C   UNL     1       7.184   4.819  13.846  0.00  0.00    +0.000 A 
ATOM     16  O   UNL     1       7.832   5.508  14.824  0.00  0.00    +0.000 OA
ATOM     17  C   UNL     1       7.017   5.523  15.912  0.00  0.00    +0.000 A 
ATOM     18  C   UNL     1       5.833   4.859  15.659  0.00  0.00    +0.000 A 
ATOM     19  C   UNL     1       5.956   4.371  14.309  0.00  0.00    +0.000 A 
ATOM     20  C   UNL     1       5.144   3.626  13.426  0.00  0.00    +0.000 A 
BRANCH  12  22
ATOM     21  C   UNL     1       3.484   3.339  10.750  0.00  0.00    +0.000 C 
ATOM     22  C   UNL     1       4.734   2.576  11.160  0.00  0.00    +0.000 C 
ENDBRANCH  12  22
ENDBRANCH  11  18
ENDBRANCH   1  11
BRANCH   3  23
ATOM     23  C   UNL     1       3.458   6.312  19.870  0.00  0.00    +0.000 C 
BRANCH  23  24
ATOM     24  C   UNL     1       2.428   7.362  19.530  0.00  0.00    +0.000 A 
ATOM     25  C   UNL     1       2.293   7.796  18.214  0.00  0.00    +0.000 A 
ATOM     26  C   UNL     1       1.491   8.897  17.897  0.00  0.00    +0.000 A 
ATOM     27  C   UNL     1       0.757   9.597  18.864  0.00  0.00    +0.000 A 
ATOM     28  C   UNL     1       0.792   9.044  20.158  0.00  0.00    +0.000 A 
ATOM     29  C   UNL     1       1.619   7.957  20.497  0.00  0.00    +0.000 A 
BRANCH  27  30
ATOM     30  N   UNL     1       0.112  10.792  18.575  0.00  0.00    +0.000 N 
ATOM     31  C   UNL     1      -1.293  10.856  18.181  0.00  0.00    +0.000 C 
ATOM     32  C   UNL     1       0.718  12.085  18.873  0.00  0.00    +0.000 C 
ENDBRANCH  27  30
ENDBRANCH  23  24
ENDBRANCH   3  23
TORSDOF 7
ENDMDL
MODEL 5
REMARK VINA RESULT:      -7.6      1.568      2.061
REMARK  Name = 
REMARK  10 active torsions:
REMARK  status: ('A' for Active; 'I' for Inactive)
REMARK    1  A    between atoms: C_1  and  C_2
REMARK    2  A    between atoms: C_2  and  C_3
REMARK    3  A    between atoms: C_9  and  C_10
REMARK    4  A    between atoms: C_10  and  C_11
REMARK    5  A    between atoms: N_13  and  C_14
REMARK    6  A    between atoms: N_13  and  C_24
REMARK    7  A    between atoms: C_14  and  C_15
REMARK    8  A    between atoms: C_18  and  N_19
REMARK    9  A    between atoms: N_19  and  C_20
REMARK   10  A    between atoms: N_19  and  C_21
REMARK                            x       y       z     vdW  Elec       q    Type
REMARK                         _______ _______ _______ _____ _____    ______ ____
ROOT
ATOM      1  C   UNL     1       3.356   7.170  18.017  0.00  0.00    +0.000 C 
ATOM      2  O   UNL     1       4.368   7.857  17.869  0.00  0.00    +0.000 OA
ATOM      3  N   UNL     1       3.409   5.780  18.347  0.00  0.00    +0.000 N 
ENDROOT
BRANCH   3   4
ATOM      4  C   UNL     1       2.270   5.153  19.053  0.00  0.00    +0.000 C 
ATOM      5  C   UNL     1       2.508   4.531  20.440  0.00  0.00    +0.000 C 
ATOM      6  C   UNL     1       2.926   3.078  20.258  0.00  0.00    +0.000 C 
ATOM      7  S   UNL     1       2.064   2.507  18.816  0.00  0.00    +0.000 S 
ATOM      8  O   UNL     1       0.885   1.781  19.240  0.00  0.00    +0.000 OA
ATOM      9  O   UNL     1       3.029   1.947  17.892  0.00  0.00    +0.000 OA
ATOM     10  C   UNL     1       1.547   4.091  18.213  0.00  0.00    +0.000 C 
ENDBRANCH   3   4
BRANCH   1  11
ATOM     11  C   UNL     1       1.965   7.821  17.978  0.00  0.00    +0.000 C 
BRANCH  11  18
ATOM     12  C   UNL     1       0.105  10.401  21.458  0.00  0.00    +0.000 A 
ATOM     13  C   UNL     1       0.409  11.762  21.299  0.00  0.00    +0.000 A 
ATOM     14  C   UNL     1       1.107  12.231  20.178  0.00  0.00    +0.000 A 
ATOM     15  C   UNL     1       1.493  11.278  19.238  0.00  0.00    +0.000 A 
ATOM     16  O   UNL     1       2.178  11.531  18.090  0.00  0.00    +0.000 OA
ATOM     17  C   UNL     1       2.389  10.337  17.476  0.00  0.00    +0.000 A 
ATOM     18  C   UNL     1       1.858   9.296  18.211  0.00  0.00    +0.000 A 
ATOM     19  C   UNL     1       1.243   9.918  19.356  0.00  0.00    +0.000 A 
ATOM     20  C   UNL     1       0.530   9.469  20.489  0.00  0.00    +0.000 A 
BRANCH  12  22
ATOM     21  C   UNL     1      -1.549  11.020  23.249  0.00  0.00    +0.000 C 
ATOM     22  C   UNL     1      -0.654   9.931  22.677  0.00  0.00    +0.000 C 
ENDBRANCH  12  22
ENDBRANCH  11  18
ENDBRANCH   1  11
BRANCH   3  23
ATOM     23  C   UNL     1       4.763   5.174  18.437  0.00  0.00    +0.000 C 
BRANCH  23  24
ATOM     24  C   UNL     1       5.399   4.832  17.112  0.00  0.00    +0.000 A 
ATOM     25  C   UNL     1       6.728   5.177  16.874  0.00  0.00    +0.000 A 
ATOM     26  C   UNL     1       7.288   5.051  15.599  0.00  0.00    +0.000 A 
ATOM     27  C   UNL     1       6.569   4.544  14.508  0.00  0.00    +0.000 A 
ATOM     28  C   UNL     1       5.282   4.062  14.811  0.00  0.00    +0.000 A 
ATOM     29  C   UNL     1       4.695   4.212  16.081  0.00  0.00    +0.000 A 
BRANCH  27  30
ATOM     30  N   UNL     1       7.068   4.591  13.213  0.00  0.00    +0.000 N 
ATOM     31  C   UNL     1       8.168   5.469  12.822  0.00  0.00    +0.000 C 
ATOM     32  C   UNL     1       6.692   3.603  12.207  0.00  0.00    +0.000 C 
ENDBRANCH  27  30
ENDBRANCH  23  24
ENDBRANCH   3  23
TORSDOF 7
ENDMDL
MODEL 6
REMARK VINA RESULT:      -7.5      1.582      2.549
REMARK  Name = 
REMARK  10 active torsions:
REMARK  status: ('A' for Active; 'I' for Inactive)
REMARK    1  A    between atoms: C_1  and  C_2
REMARK    2  A    between atoms: C_2  and  C_3
REMARK    3  A    between atoms: C_9  and  C_10
REMARK    4  A    between atoms: C_10  and  C_11
REMARK    5  A    between atoms: N_13  and  C_14
REMARK    6  A    between atoms: N_13  and  C_24
REMARK    7  A    between atoms: C_14  and  C_15
REMARK    8  A    between atoms: C_18  and  N_19
REMARK    9  A    between atoms: N_19  and  C_20
REMARK   10  A    between atoms: N_19  and  C_21
REMARK                            x       y       z     vdW  Elec       q    Type
REMARK                         _______ _______ _______ _____ _____    ______ ____
ROOT
ATOM      1  C   UNL     1       4.248   6.140  18.981  0.00  0.00    +0.000 C 
ATOM      2  O   UNL     1       5.127   6.971  18.744  0.00  0.00    +0.000 OA
ATOM      3  N   UNL     1       4.462   4.733  18.852  0.00  0.00    +0.000 N 
ENDROOT
BRANCH   3   4
ATOM      4  C   UNL     1       3.646   3.794  19.652  0.00  0.00    +0.000 C 
ATOM      5  C   UNL     1       3.729   2.289  19.341  0.00  0.00    +0.000 C 
ATOM      6  C   UNL     1       2.693   1.953  18.275  0.00  0.00    +0.000 C 
ATOM      7  S   UNL     1       1.328   3.048  18.569  0.00  0.00    +0.000 S 
ATOM      8  O   UNL     1       0.317   2.334  19.321  0.00  0.00    +0.000 OA
ATOM      9  O   UNL     1       1.028   3.753  17.341  0.00  0.00    +0.000 OA
ATOM     10  C   UNL     1       2.156   4.157  19.677  0.00  0.00    +0.000 C 
ENDBRANCH   3   4
BRANCH   1  11
ATOM     11  C   UNL     1       2.898   6.586  19.563  0.00  0.00    +0.000 C 
BRANCH  11  18
ATOM     12  C   UNL     1       0.020   9.856  21.367  0.00  0.00    +0.000 A 
ATOM     13  C   UNL     1      -0.204  10.895  20.451  0.00  0.00    +0.000 A 
ATOM     14  C   UNL     1       0.324  10.856  19.155  0.00  0.00    +0.000 A 
ATOM     15  C   UNL     1       1.090   9.740  18.825  0.00  0.00    +0.000 A 
ATOM     16  O   UNL     1       1.689   9.519  17.624  0.00  0.00    +0.000 OA
ATOM     17  C   UNL     1       2.368   8.345  17.723  0.00  0.00    +0.000 A 
ATOM     18  C   UNL     1       2.230   7.793  18.981  0.00  0.00    +0.000 A 
ATOM     19  C   UNL     1       1.366   8.696  19.696  0.00  0.00    +0.000 A 
ATOM     20  C   UNL     1       0.816   8.753  20.996  0.00  0.00    +0.000 A 
BRANCH  12  22
ATOM     21  C   UNL     1      -1.195  11.286  23.042  0.00  0.00    +0.000 C 
ATOM     22  C   UNL     1      -0.570   9.929  22.757  0.00  0.00    +0.000 C 
ENDBRANCH  12  22
ENDBRANCH  11  18
ENDBRANCH   1  11
BRANCH   3  23
ATOM     23  C   UNL     1       5.793   4.312  18.341  0.00  0.00    +0.000 C 
BRANCH  23  24
ATOM     24  C   UNL     1       5.953   4.377  16.843  0.00  0.00    +0.000 A 
ATOM     25  C   UNL     1       4.905   3.973  16.018  0.00  0.00    +0.000 A 
ATOM     26  C   UNL     1       5.084   3.837  14.638  0.00  0.00    +0.000 A 
ATOM     27  C   UNL     1       6.300   4.130  14.005  0.00  0.00    +0.000 A 
ATOM     28  C   UNL     1       7.292   4.681  14.839  0.00  0.00    +0.000 A 
ATOM     29  C   UNL     1       7.136   4.792  16.232  0.00  0.00    +0.000 A 
BRANCH  27  30
ATOM     30  N   UNL     1       6.528   3.821  12.671  0.00  0.00    +0.000 N 
ATOM     31  C   UNL     1       5.749   2.819  11.948  0.00  0.00    +0.000 C 
ATOM     32  C   UNL     1       7.397   4.637  11.829  0.00  0.00    +0.000 C 
ENDBRANCH  27  30
ENDBRANCH  23  24
ENDBRANCH   3  23
TORSDOF 7
ENDMDL
MODEL 7
REMARK VINA RESULT:      -7.4      2.401      8.231
REMARK  Name = 
REMARK  10 active torsions:
REMARK  status: ('A' for Active; 'I' for Inactive)
REMARK    1  A    between atoms: C_1  and  C_2
REMARK    2  A    between atoms: C_2  and  C_3
REMARK    3  A    between atoms: C_9  and  C_10
REMARK    4  A    between atoms: C_10  and  C_11
REMARK    5  A    between atoms: N_13  and  C_14
REMARK    6  A    between atoms: N_13  and  C_24
REMARK    7  A    between atoms: C_14  and  C_15
REMARK    8  A    between atoms: C_18  and  N_19
REMARK    9  A    between atoms: N_19  and  C_20
REMARK   10  A    between atoms: N_19  and  C_21
REMARK                            x       y       z     vdW  Elec       q    Type
REMARK                         _______ _______ _______ _____ _____    ______ ____
ROOT
ATOM      1  C   UNL     1       4.184   4.976  17.072  0.00  0.00    +0.000 C 
ATOM      2  O   UNL     1       3.882   5.803  16.211  0.00  0.00    +0.000 OA
ATOM      3  N   UNL     1       3.263   4.530  18.070  0.00  0.00    +0.000 N 
ENDROOT
BRANCH   3   4
ATOM      4  C   UNL     1       3.441   3.197  18.686  0.00  0.00    +0.000 C 
ATOM      5  C   UNL     1       2.253   2.219  18.697  0.00  0.00    +0.000 C 
ATOM      6  C   UNL     1       1.433   2.462  19.958  0.00  0.00    +0.000 C 
ATOM      7  S   UNL     1       2.599   2.952  21.202  0.00  0.00    +0.000 S 
ATOM      8  O   UNL     1       2.918   1.797  22.016  0.00  0.00    +0.000 OA
ATOM      9  O   UNL     1       2.163   4.208  21.775  0.00  0.00    +0.000 OA
ATOM     10  C   UNL     1       3.971   3.261  20.124  0.00  0.00    +0.000 C 
ENDBRANCH   3   4
BRANCH   1  11
ATOM     11  C   UNL     1       5.553   4.278  17.030  0.00  0.00    +0.000 C 
BRANCH  11  18
ATOM     12  C   UNL     1       5.971   3.406  12.416  0.00  0.00    +0.000 A 
ATOM     13  C   UNL     1       6.986   4.186  11.843  0.00  0.00    +0.000 A 
ATOM     14  C   UNL     1       7.789   5.031  12.620  0.00  0.00    +0.000 A 
ATOM     15  C   UNL     1       7.521   5.065  13.987  0.00  0.00    +0.000 A 
ATOM     16  O   UNL     1       8.183   5.821  14.904  0.00  0.00    +0.000 OA
ATOM     17  C   UNL     1       7.595   5.597  16.109  0.00  0.00    +0.000 A 
ATOM     18  C   UNL     1       6.544   4.709  15.996  0.00  0.00    +0.000 A 
ATOM     19  C   UNL     1       6.515   4.337  14.604  0.00  0.00    +0.000 A 
ATOM     20  C   UNL     1       5.723   3.485  13.803  0.00  0.00    +0.000 A 
BRANCH  12  22
ATOM     21  C   UNL     1       3.855   3.187  11.074  0.00  0.00    +0.000 C 
ATOM     22  C   UNL     1       5.127   2.501  11.548  0.00  0.00    +0.000 C 
ENDBRANCH  12  22
ENDBRANCH  11  18
ENDBRANCH   1  11
BRANCH   3  23
ATOM     23  C   UNL     1       1.922   5.173  18.065  0.00  0.00    +0.000 C 
BRANCH  23  24
ATOM     24  C   UNL     1       1.880   6.568  18.637  0.00  0.00    +0.000 A 
ATOM     25  C   UNL     1       1.841   6.748  20.018  0.00  0.00    +0.000 A 
ATOM     26  C   UNL     1       1.608   8.009  20.575  0.00  0.00    +0.000 A 
ATOM     27  C   UNL     1       1.437   9.158  19.790  0.00  0.00    +0.000 A 
ATOM     28  C   UNL     1       1.633   8.974  18.408  0.00  0.00    +0.000 A 
ATOM     29  C   UNL     1       1.836   7.706  17.833  0.00  0.00    +0.000 A 
BRANCH  27  30
ATOM     30  N   UNL     1       1.026  10.367  20.336  0.00  0.00    +0.000 N 
ATOM     31  C   UNL     1       0.507  10.484  21.696  0.00  0.00    +0.000 C 
ATOM     32  C   UNL     1       1.302  11.641  19.680  0.00  0.00    +0.000 C 
ENDBRANCH  27  30
ENDBRANCH  23  24
ENDBRANCH   3  23
TORSDOF 7
ENDMDL
MODEL 8
REMARK VINA RESULT:      -7.3      3.507      8.736
REMARK  Name = 
REMARK  10 active torsions:
REMARK  status: ('A' for Active; 'I' for Inactive)
REMARK    1  A    between atoms: C_1  and  C_2
REMARK    2  A    between atoms: C_2  and  C_3
REMARK    3  A    between atoms: C_9  and  C_10
REMARK    4  A    between atoms: C_10  and  C_11
REMARK    5  A    between atoms: N_13  and  C_14
REMARK    6  A    between atoms: N_13  and  C_24
REMARK    7  A    between atoms: C_14  and  C_15
REMARK    8  A    between atoms: C_18  and  N_19
REMARK    9  A    between atoms: N_19  and  C_20
REMARK   10  A    between atoms: N_19  and  C_21
REMARK                            x       y       z     vdW  Elec       q    Type
REMARK                         _______ _______ _______ _____ _____    ______ ____
ROOT
ATOM      1  C   UNL     1       2.191   8.662  18.187  0.00  0.00    +0.000 C 
ATOM      2  O   UNL     1       1.845   8.712  17.006  0.00  0.00    +0.000 OA
ATOM      3  N   UNL     1       1.399   9.204  19.246  0.00  0.00    +0.000 N 
ENDROOT
BRANCH   3   4
ATOM      4  C   UNL     1       1.530   8.652  20.613  0.00  0.00    +0.000 C 
ATOM      5  C   UNL     1       0.465   7.663  21.119  0.00  0.00    +0.000 C 
ATOM      6  C   UNL     1      -0.664   8.452  21.770  0.00  0.00    +0.000 C 
ATOM      7  S   UNL     1       0.105   9.873  22.505  0.00  0.00    +0.000 S 
ATOM      8  O   UNL     1       0.306   9.610  23.915  0.00  0.00    +0.000 OA
ATOM      9  O   UNL     1      -0.567  11.062  22.025  0.00  0.00    +0.000 OA
ATOM     10  C   UNL     1       1.673   9.734  21.691  0.00  0.00    +0.000 C 
ENDBRANCH   3   4
BRANCH   1  11
ATOM     11  C   UNL     1       3.453   7.884  18.592  0.00  0.00    +0.000 C 
BRANCH  11  18
ATOM     12  C   UNL     1       1.694   3.560  19.250  0.00  0.00    +0.000 A 
ATOM     13  C   UNL     1       2.148   2.672  18.263  0.00  0.00    +0.000 A 
ATOM     14  C   UNL     1       3.073   3.070  17.289  0.00  0.00    +0.000 A 
ATOM     15  C   UNL     1       3.509   4.393  17.343  0.00  0.00    +0.000 A 
ATOM     16  O   UNL     1       4.397   4.968  16.489  0.00  0.00    +0.000 OA
ATOM     17  C   UNL     1       4.523   6.271  16.858  0.00  0.00    +0.000 A 
ATOM     18  C   UNL     1       3.720   6.564  17.942  0.00  0.00    +0.000 A 
ATOM     19  C   UNL     1       3.075   5.320  18.279  0.00  0.00    +0.000 A 
ATOM     20  C   UNL     1       2.149   4.895  19.257  0.00  0.00    +0.000 A 
BRANCH  12  22
ATOM     21  C   UNL     1       1.379   2.675  21.584  0.00  0.00    +0.000 C 
ATOM     22  C   UNL     1       0.700   3.095  20.289  0.00  0.00    +0.000 C 
ENDBRANCH  12  22
ENDBRANCH  11  18
ENDBRANCH   1  11
BRANCH   3  23
ATOM     23  C   UNL     1       0.151   9.906  18.845  0.00  0.00    +0.000 C 
BRANCH  23  24
ATOM     24  C   UNL     1       0.275  11.403  18.710  0.00  0.00    +0.000 A 
ATOM     25  C   UNL     1       1.535  11.997  18.741  0.00  0.00    +0.000 A 
ATOM     26  C   UNL     1       1.675  13.387  18.813  0.00  0.00    +0.000 A 
ATOM     27  C   UNL     1       0.574  14.254  18.821  0.00  0.00    +0.000 A 
ATOM     28  C   UNL     1      -0.677  13.637  18.635  0.00  0.00    +0.000 A 
ATOM     29  C   UNL     1      -0.835  12.239  18.594  0.00  0.00    +0.000 A 
BRANCH  27  30
ATOM     30  N   UNL     1       0.710  15.613  19.075  0.00  0.00    +0.000 N 
ATOM     31  C   UNL     1       1.994  16.306  19.001  0.00  0.00    +0.000 C 
ATOM     32  C   UNL     1      -0.448  16.492  19.203  0.00  0.00    +0.000 C 
ENDBRANCH  27  30
ENDBRANCH  23  24
ENDBRANCH   3  23
TORSDOF 7
ENDMDL
MODEL 9
REMARK VINA RESULT:      -7.2      0.762      1.001
REMARK  Name = 
REMARK  10 active torsions:
REMARK  status: ('A' for Active; 'I' for Inactive)
REMARK    1  A    between atoms: C_1  and  C_2
REMARK    2  A    between atoms: C_2  and  C_3
REMARK    3  A    between atoms: C_9  and  C_10
REMARK    4  A    between atoms: C_10  and  C_11
REMARK    5  A    between atoms: N_13  and  C_14
REMARK    6  A    between atoms: N_13  and  C_24
REMARK    7  A    between atoms: C_14  and  C_15
REMARK    8  A    between atoms: C_18  and  N_19
REMARK    9  A    between atoms: N_19  and  C_20
REMARK   10  A    between atoms: N_19  and  C_21
REMARK                            x       y       z     vdW  Elec       q    Type
REMARK                         _______ _______ _______ _____ _____    ______ ____
ROOT
ATOM      1  C   UNL     1       3.311   7.151  18.075  0.00  0.00    +0.000 C 
ATOM      2  O   UNL     1       3.953   8.100  17.623  0.00  0.00    +0.000 OA
ATOM      3  N   UNL     1       3.913   5.894  18.392  0.00  0.00    +0.000 N 
ENDROOT
BRANCH   3   4
ATOM      4  C   UNL     1       3.291   5.023  19.414  0.00  0.00    +0.000 C 
ATOM      5  C   UNL     1       4.100   3.839  19.972  0.00  0.00    +0.000 C 
ATOM      6  C   UNL     1       3.857   2.622  19.088  0.00  0.00    +0.000 C 
ATOM      7  S   UNL     1       2.185   2.772  18.512  0.00  0.00    +0.000 S 
ATOM      8  O   UNL     1       1.336   1.942  19.341  0.00  0.00    +0.000 OA
ATOM      9  O   UNL     1       2.185   2.684  17.067  0.00  0.00    +0.000 OA
ATOM     10  C   UNL     1       1.930   4.461  18.983  0.00  0.00    +0.000 C 
ENDBRANCH   3   4
BRANCH   1  11
ATOM     11  C   UNL     1       1.829   7.324  18.444  0.00  0.00    +0.000 C 
BRANCH  11  18
ATOM     12  C   UNL     1      -0.915  11.137  18.835  0.00  0.00    +0.000 A 
ATOM     13  C   UNL     1      -1.059  11.522  20.177  0.00  0.00    +0.000 A 
ATOM     14  C   UNL     1      -0.376  10.863  21.207  0.00  0.00    +0.000 A 
ATOM     15  C   UNL     1       0.444   9.800  20.833  0.00  0.00    +0.000 A 
ATOM     16  O   UNL     1       1.183   9.036  21.681  0.00  0.00    +0.000 OA
ATOM     17  C   UNL     1       1.806   8.089  20.929  0.00  0.00    +0.000 A 
ATOM     18  C   UNL     1       1.478   8.215  19.594  0.00  0.00    +0.000 A 
ATOM     19  C   UNL     1       0.604   9.359  19.527  0.00  0.00    +0.000 A 
ATOM     20  C   UNL     1      -0.087  10.044  18.504  0.00  0.00    +0.000 A 
BRANCH  12  22
ATOM     21  C   UNL     1      -3.130  11.474  17.692  0.00  0.00    +0.000 C 
ATOM     22  C   UNL     1      -1.664  11.875  17.750  0.00  0.00    +0.000 C 
ENDBRANCH  12  22
ENDBRANCH  11  18
ENDBRANCH   1  11
BRANCH   3  23
ATOM     23  C   UNL     1       5.360   5.757  18.081  0.00  0.00    +0.000 C 
BRANCH  23  24
ATOM     24  C   UNL     1       5.671   5.093  16.763  0.00  0.00    +0.000 A 
ATOM     25  C   UNL     1       6.963   5.156  16.245  0.00  0.00    +0.000 A 
ATOM     26  C   UNL     1       7.241   4.722  14.945  0.00  0.00    +0.000 A 
ATOM     27  C   UNL     1       6.258   4.173  14.109  0.00  0.00    +0.000 A 
ATOM     28  C   UNL     1       5.000   3.981  14.710  0.00  0.00    +0.000 A 
ATOM     29  C   UNL     1       4.699   4.442  16.005  0.00  0.00    +0.000 A 
BRANCH  27  30
ATOM     30  N   UNL     1       6.496   3.916  12.766  0.00  0.00    +0.000 N 
ATOM     31  C   UNL     1       5.632   3.055  11.961  0.00  0.00    +0.000 C 
ATOM     32  C   UNL     1       7.485   4.668  12.001  0.00  0.00    +0.000 C 
ENDBRANCH  27  30
ENDBRANCH  23  24
ENDBRANCH   3  23
TORSDOF 7
ENDMDL
