MODEL 1
REMARK VINA RESULT:      -9.6      0.000      0.000
REMARK  Name = 
REMARK  8 active torsions:
REMARK  status: ('A' for Active; 'I' for Inactive)
REMARK    1  A    between atoms: C_1  and  C_2
REMARK    2  A    between atoms: C_2  and  C_3
REMARK    3  A    between atoms: C_2  and  N_17
REMARK    4  A    between atoms: C_6  and  C_7
REMARK    5  A    between atoms: C_12  and  C_13
REMARK    6  A    between atoms: C_19  and  C_20
REMARK    7  A    between atoms: C_21  and  C_22
REMARK    8  A    between atoms: C_25  and  C_26
REMARK                            x       y       z     vdW  Elec       q    Type
REMARK                         _______ _______ _______ _____ _____    ______ ____
ROOT
ATOM      1  N   UNL     1       6.388   6.207  17.233  0.00  0.00    +0.000 N 
ATOM      2  C   UNL     1       6.725   7.529  17.070  0.00  0.00    +0.000 A 
ATOM      3  C   UNL     1       7.738   7.781  17.964  0.00  0.00    +0.000 A 
ATOM      4  C   UNL     1       7.953   6.553  18.617  0.00  0.00    +0.000 A 
ATOM      5  N   UNL     1       7.147   5.584  18.162  0.00  0.00    +0.000 NA
ENDROOT
BRANCH   1   7
ATOM      6  C   UNL     1       6.155   4.498  15.466  0.00  0.00    +0.000 C 
ATOM      7  C   UNL     1       5.420   5.464  16.411  0.00  0.00    +0.000 C 
BRANCH   7   8
ATOM      8  C   UNL     1       4.298   4.805  17.229  0.00  0.00    +0.000 A 
ATOM      9  C   UNL     1       4.306   3.402  17.398  0.00  0.00    +0.000 A 
ATOM     10  C   UNL     1       3.269   2.722  18.039  0.00  0.00    +0.000 A 
ATOM     11  C   UNL     1       2.186   3.420  18.569  0.00  0.00    +0.000 A 
ATOM     12  C   UNL     1       2.180   4.819  18.454  0.00  0.00    +0.000 A 
ATOM     13  C   UNL     1       3.221   5.531  17.801  0.00  0.00    +0.000 A 
BRANCH  11  14
ATOM     14  C   UNL     1       1.057   2.693  19.259  0.00  0.00    +0.000 C 
ATOM     15  F   UNL     1       0.312   3.490  20.074  0.00  0.00    +0.000 F 
ATOM     16  F   UNL     1       0.180   2.136  18.379  0.00  0.00    +0.000 F 
ATOM     17  F   UNL     1       1.501   1.671  20.043  0.00  0.00    +0.000 F 
ENDBRANCH  11  14
BRANCH  13  18
ATOM     18  C   UNL     1       3.062   7.042  17.760  0.00  0.00    +0.000 C 
ATOM     19  F   UNL     1       3.740   7.728  18.715  0.00  0.00    +0.000 F 
ATOM     20  F   UNL     1       3.485   7.557  16.570  0.00  0.00    +0.000 F 
ATOM     21  F   UNL     1       1.762   7.428  17.887  0.00  0.00    +0.000 F 
ENDBRANCH  13  18
ENDBRANCH   7   8
ENDBRANCH   1   7
BRANCH   3  22
ATOM     22  C   UNL     1       8.433   9.011  18.155  0.00  0.00    +0.000 C 
ATOM     23  C   UNL     1       8.985  10.075  18.178  0.00  0.00    +0.000 C 
BRANCH  23  24
ATOM     24  C   UNL     1       9.575  11.354  17.982  0.00  0.00    +0.000 A 
ATOM     25  N   UNL     1      10.864  11.567  17.847  0.00  0.00    +0.000 NA
ATOM     26  N   UNL     1      11.161  12.923  17.782  0.00  0.00    +0.000 NA
ATOM     27  C   UNL     1      10.083  13.681  17.892  0.00  0.00    +0.000 A 
ATOM     28  S   UNL     1       8.621  12.774  17.974  0.00  0.00    +0.000 S 
BRANCH  27  29
ATOM     29  C   UNL     1      10.051  15.141  17.999  0.00  0.00    +0.000 A 
ATOM     30  C   UNL     1      11.192  15.888  18.263  0.00  0.00    +0.000 A 
ATOM     31  N   UNL     1      11.161  17.233  18.464  0.00  0.00    +0.000 NA
ATOM     32  C   UNL     1       9.937  17.804  18.393  0.00  0.00    +0.000 A 
ATOM     33  C   UNL     1       8.799  17.075  18.111  0.00  0.00    +0.000 A 
ATOM     34  N   UNL     1       8.829  15.739  17.906  0.00  0.00    +0.000 NA
ENDBRANCH  27  29
ENDBRANCH  23  24
ENDBRANCH   3  22
TORSDOF 7
ENDMDL
MODEL 2
REMARK VINA RESULT:      -9.5      0.982      1.101
REMARK  Name = 
REMARK  8 active torsions:
REMARK  status: ('A' for Active; 'I' for Inactive)
REMARK    1  A    between atoms: C_1  and  C_2
REMARK    2  A    between atoms: C_2  and  C_3
REMARK    3  A    between atoms: C_2  and  N_17
REMARK    4  A    between atoms: C_6  and  C_7
REMARK    5  A    between atoms: C_12  and  C_13
REMARK    6  A    between atoms: C_19  and  C_20
REMARK    7  A    between atoms: C_21  and  C_22
REMARK    8  A    between atoms: C_25  and  C_26
REMARK                            x       y       z     vdW  Elec       q    Type
REMARK                         _______ _______ _______ _____ _____    ______ ____
ROOT
ATOM      1  N   UNL     1       6.475   6.120  17.359  0.00  0.00    +0.000 N 
ATOM      2  C   UNL     1       6.812   7.449  17.265  0.00  0.00    +0.000 A 
ATOM      3  C   UNL     1       7.851   7.645  18.144  0.00  0.00    +0.000 A 
ATOM      4  C   UNL     1       8.078   6.379  18.717  0.00  0.00    +0.000 A 
ATOM      5  N   UNL     1       7.256   5.442  18.227  0.00  0.00    +0.000 NA
ENDROOT
BRANCH   1   7
ATOM      6  C   UNL     1       6.181   4.454  15.561  0.00  0.00    +0.000 C 
ATOM      7  C   UNL     1       5.481   5.430  16.521  0.00  0.00    +0.000 C 
BRANCH   7   8
ATOM      8  C   UNL     1       4.332   4.801  17.324  0.00  0.00    +0.000 A 
ATOM      9  C   UNL     1       4.335   3.405  17.547  0.00  0.00    +0.000 A 
ATOM     10  C   UNL     1       3.277   2.748  18.178  0.00  0.00    +0.000 A 
ATOM     11  C   UNL     1       2.175   3.464  18.642  0.00  0.00    +0.000 A 
ATOM     12  C   UNL     1       2.173   4.856  18.472  0.00  0.00    +0.000 A 
ATOM     13  C   UNL     1       3.235   5.545  17.829  0.00  0.00    +0.000 A 
BRANCH  11  14
ATOM     14  C   UNL     1       1.023   2.760  19.319  0.00  0.00    +0.000 C 
ATOM     15  F   UNL     1       0.245   3.589  20.070  0.00  0.00    +0.000 F 
ATOM     16  F   UNL     1       0.184   2.162  18.432  0.00  0.00    +0.000 F 
ATOM     17  F   UNL     1       1.441   1.777  20.164  0.00  0.00    +0.000 F 
ENDBRANCH  11  14
BRANCH  13  18
ATOM     18  C   UNL     1       3.076   7.053  17.724  0.00  0.00    +0.000 C 
ATOM     19  F   UNL     1       3.711   7.777  18.681  0.00  0.00    +0.000 F 
ATOM     20  F   UNL     1       3.549   7.525  16.535  0.00  0.00    +0.000 F 
ATOM     21  F   UNL     1       1.771   7.440  17.780  0.00  0.00    +0.000 F 
ENDBRANCH  13  18
ENDBRANCH   7   8
ENDBRANCH   1   7
BRANCH   3  22
ATOM     22  C   UNL     1       8.556   8.860  18.389  0.00  0.00    +0.000 C 
ATOM     23  C   UNL     1       9.018   9.944  18.606  0.00  0.00    +0.000 C 
BRANCH  23  24
ATOM     24  C   UNL     1       9.346  11.302  18.872  0.00  0.00    +0.000 A 
ATOM     25  N   UNL     1       9.226  11.880  20.046  0.00  0.00    +0.000 NA
ATOM     26  N   UNL     1       9.513  13.238  19.985  0.00  0.00    +0.000 NA
ATOM     27  C   UNL     1       9.818  13.636  18.762  0.00  0.00    +0.000 A 
ATOM     28  S   UNL     1       9.878  12.344  17.624  0.00  0.00    +0.000 S 
BRANCH  27  29
ATOM     29  C   UNL     1      10.040  15.015  18.322  0.00  0.00    +0.000 A 
ATOM     30  C   UNL     1       9.223  16.061  18.732  0.00  0.00    +0.000 A 
ATOM     31  N   UNL     1       9.354  17.328  18.254  0.00  0.00    +0.000 NA
ATOM     32  C   UNL     1      10.338  17.507  17.343  0.00  0.00    +0.000 A 
ATOM     33  C   UNL     1      11.169  16.479  16.943  0.00  0.00    +0.000 A 
ATOM     34  N   UNL     1      11.042  15.221  17.421  0.00  0.00    +0.000 NA
ENDBRANCH  27  29
ENDBRANCH  23  24
ENDBRANCH   3  22
TORSDOF 7
ENDMDL
MODEL 3
REMARK VINA RESULT:      -9.3      0.724      1.162
REMARK  Name = 
REMARK  8 active torsions:
REMARK  status: ('A' for Active; 'I' for Inactive)
REMARK    1  A    between atoms: C_1  and  C_2
REMARK    2  A    between atoms: C_2  and  C_3
REMARK    3  A    between atoms: C_2  and  N_17
REMARK    4  A    between atoms: C_6  and  C_7
REMARK    5  A    between atoms: C_12  and  C_13
REMARK    6  A    between atoms: C_19  and  C_20
REMARK    7  A    between atoms: C_21  and  C_22
REMARK    8  A    between atoms: C_25  and  C_26
REMARK                            x       y       z     vdW  Elec       q    Type
REMARK                         _______ _______ _______ _____ _____    ______ ____
ROOT
ATOM      1  N   UNL     1       6.346   6.195  17.267  0.00  0.00    +0.000 N 
ATOM      2  C   UNL     1       6.736   7.499  17.079  0.00  0.00    +0.000 A 
ATOM      3  C   UNL     1       7.759   7.725  17.968  0.00  0.00    +0.000 A 
ATOM      4  C   UNL     1       7.922   6.502  18.645  0.00  0.00    +0.000 A 
ATOM      5  N   UNL     1       7.078   5.560  18.208  0.00  0.00    +0.000 NA
ENDROOT
BRANCH   1   7
ATOM      6  C   UNL     1       6.046   4.506  15.490  0.00  0.00    +0.000 C 
ATOM      7  C   UNL     1       5.348   5.477  16.458  0.00  0.00    +0.000 C 
BRANCH   7   8
ATOM      8  C   UNL     1       4.230   4.831  17.292  0.00  0.00    +0.000 A 
ATOM      9  C   UNL     1       4.253   3.434  17.504  0.00  0.00    +0.000 A 
ATOM     10  C   UNL     1       3.222   2.762  18.163  0.00  0.00    +0.000 A 
ATOM     11  C   UNL     1       2.130   3.464  18.668  0.00  0.00    +0.000 A 
ATOM     12  C   UNL     1       2.109   4.858  18.510  0.00  0.00    +0.000 A 
ATOM     13  C   UNL     1       3.144   5.561  17.838  0.00  0.00    +0.000 A 
BRANCH  11  14
ATOM     14  C   UNL     1       1.006   2.745  19.377  0.00  0.00    +0.000 C 
ATOM     15  F   UNL     1       1.425   1.691  20.130  0.00  0.00    +0.000 F 
ATOM     16  F   UNL     1       0.319   3.559  20.223  0.00  0.00    +0.000 F 
ATOM     17  F   UNL     1       0.085   2.241  18.510  0.00  0.00    +0.000 F 
ENDBRANCH  11  14
BRANCH  13  18
ATOM     18  C   UNL     1       2.968   7.069  17.750  0.00  0.00    +0.000 C 
ATOM     19  F   UNL     1       3.490   7.655  16.642  0.00  0.00    +0.000 F 
ATOM     20  F   UNL     1       1.651   7.420  17.763  0.00  0.00    +0.000 F 
ATOM     21  F   UNL     1       3.533   7.717  18.806  0.00  0.00    +0.000 F 
ENDBRANCH  13  18
ENDBRANCH   7   8
ENDBRANCH   1   7
BRANCH   3  22
ATOM     22  C   UNL     1       8.504   8.929  18.137  0.00  0.00    +0.000 C 
ATOM     23  C   UNL     1       9.002  10.009  18.288  0.00  0.00    +0.000 C 
BRANCH  23  24
ATOM     24  C   UNL     1       9.375  11.369  18.477  0.00  0.00    +0.000 A 
ATOM     25  N   UNL     1      10.408  11.767  19.184  0.00  0.00    +0.000 NA
ATOM     26  N   UNL     1      10.463  13.151  19.285  0.00  0.00    +0.000 NA
ATOM     27  C   UNL     1       9.456  13.743  18.667  0.00  0.00    +0.000 A 
ATOM     28  S   UNL     1       8.433  12.640  17.827  0.00  0.00    +0.000 S 
BRANCH  27  29
ATOM     29  C   UNL     1       9.136  15.172  18.689  0.00  0.00    +0.000 A 
ATOM     30  C   UNL     1      10.019  16.119  19.193  0.00  0.00    +0.000 A 
ATOM     31  N   UNL     1       9.698  17.435  19.313  0.00  0.00    +0.000 NA
ATOM     32  C   UNL     1       8.450  17.769  18.910  0.00  0.00    +0.000 A 
ATOM     33  C   UNL     1       7.571  16.840  18.389  0.00  0.00    +0.000 A 
ATOM     34  N   UNL     1       7.892  15.533  18.265  0.00  0.00    +0.000 NA
ENDBRANCH  27  29
ENDBRANCH  23  24
ENDBRANCH   3  22
TORSDOF 7
ENDMDL
MODEL 4
REMARK VINA RESULT:      -9.3      0.982      1.357
REMARK  Name = 
REMARK  8 active torsions:
REMARK  status: ('A' for Active; 'I' for Inactive)
REMARK    1  A    between atoms: C_1  and  C_2
REMARK    2  A    between atoms: C_2  and  C_3
REMARK    3  A    between atoms: C_2  and  N_17
REMARK    4  A    between atoms: C_6  and  C_7
REMARK    5  A    between atoms: C_12  and  C_13
REMARK    6  A    between atoms: C_19  and  C_20
REMARK    7  A    between atoms: C_21  and  C_22
REMARK    8  A    between atoms: C_25  and  C_26
REMARK                            x       y       z     vdW  Elec       q    Type
REMARK                         _______ _______ _______ _____ _____    ______ ____
ROOT
ATOM      1  N   UNL     1       6.185   6.545  17.302  0.00  0.00    +0.000 N 
ATOM      2  C   UNL     1       6.582   7.851  17.464  0.00  0.00    +0.000 A 
ATOM      3  C   UNL     1       7.755   7.810  18.179  0.00  0.00    +0.000 A 
ATOM      4  C   UNL     1       7.994   6.440  18.397  0.00  0.00    +0.000 A 
ATOM      5  N   UNL     1       7.052   5.664  17.847  0.00  0.00    +0.000 NA
ENDROOT
BRANCH   1   7
ATOM      6  C   UNL     1       5.513   5.484  15.176  0.00  0.00    +0.000 C 
ATOM      7  C   UNL     1       5.034   6.095  16.504  0.00  0.00    +0.000 C 
BRANCH   7   8
ATOM      8  C   UNL     1       4.056   5.203  17.285  0.00  0.00    +0.000 A 
ATOM      9  C   UNL     1       4.248   3.803  17.277  0.00  0.00    +0.000 A 
ATOM     10  C   UNL     1       3.347   2.923  17.877  0.00  0.00    +0.000 A 
ATOM     11  C   UNL     1       2.221   3.406  18.541  0.00  0.00    +0.000 A 
ATOM     12  C   UNL     1       2.035   4.795  18.602  0.00  0.00    +0.000 A 
ATOM     13  C   UNL     1       2.936   5.709  17.994  0.00  0.00    +0.000 A 
BRANCH  11  14
ATOM     14  C   UNL     1       1.237   2.460  19.188  0.00  0.00    +0.000 C 
ATOM     15  F   UNL     1       1.636   1.158  19.163  0.00  0.00    +0.000 F 
ATOM     16  F   UNL     1       1.012   2.757  20.497  0.00  0.00    +0.000 F 
ATOM     17  F   UNL     1       0.018   2.487  18.582  0.00  0.00    +0.000 F 
ENDBRANCH  11  14
BRANCH  13  18
ATOM     18  C   UNL     1       2.589   7.180  18.151  0.00  0.00    +0.000 C 
ATOM     19  F   UNL     1       3.569   8.053  17.803  0.00  0.00    +0.000 F 
ATOM     20  F   UNL     1       1.509   7.523  17.392  0.00  0.00    +0.000 F 
ATOM     21  F   UNL     1       2.254   7.499  19.432  0.00  0.00    +0.000 F 
ENDBRANCH  13  18
ENDBRANCH   7   8
ENDBRANCH   1   7
BRANCH   3  22
ATOM     22  C   UNL     1       8.560   8.917  18.578  0.00  0.00    +0.000 C 
ATOM     23  C   UNL     1       9.206   9.906  18.785  0.00  0.00    +0.000 C 
BRANCH  23  24
ATOM     24  C   UNL     1       9.905  11.144  18.817  0.00  0.00    +0.000 A 
ATOM     25  N   UNL     1      10.860  11.438  19.669  0.00  0.00    +0.000 NA
ATOM     26  N   UNL     1      11.284  12.754  19.538  0.00  0.00    +0.000 NA
ATOM     27  C   UNL     1      10.616  13.409  18.604  0.00  0.00    +0.000 A 
ATOM     28  S   UNL     1       9.496  12.417  17.750  0.00  0.00    +0.000 S 
BRANCH  27  29
ATOM     29  C   UNL     1      10.713  14.838  18.300  0.00  0.00    +0.000 A 
ATOM     30  C   UNL     1       9.995  15.794  19.009  0.00  0.00    +0.000 A 
ATOM     31  N   UNL     1       9.998  17.112  18.675  0.00  0.00    +0.000 NA
ATOM     32  C   UNL     1      10.748  17.439  17.597  0.00  0.00    +0.000 A 
ATOM     33  C   UNL     1      11.482  16.500  16.899  0.00  0.00    +0.000 A 
ATOM     34  N   UNL     1      11.484  15.191  17.233  0.00  0.00    +0.000 NA
ENDBRANCH  27  29
ENDBRANCH  23  24
ENDBRANCH   3  22
TORSDOF 7
ENDMDL
MODEL 5
REMARK VINA RESULT:      -9.2      1.028      1.262
REMARK  Name = 
REMARK  8 active torsions:
REMARK  status: ('A' for Active; 'I' for Inactive)
REMARK    1  A    between atoms: C_1  and  C_2
REMARK    2  A    between atoms: C_2  and  C_3
REMARK    3  A    between atoms: C_2  and  N_17
REMARK    4  A    between atoms: C_6  and  C_7
REMARK    5  A    between atoms: C_12  and  C_13
REMARK    6  A    between atoms: C_19  and  C_20
REMARK    7  A    between atoms: C_21  and  C_22
REMARK    8  A    between atoms: C_25  and  C_26
REMARK                            x       y       z     vdW  Elec       q    Type
REMARK                         _______ _______ _______ _____ _____    ______ ____
ROOT
ATOM      1  N   UNL     1       6.183   6.755  17.168  0.00  0.00    +0.000 N 
ATOM      2  C   UNL     1       6.543   8.075  17.297  0.00  0.00    +0.000 A 
ATOM      3  C   UNL     1       7.730   8.083  17.989  0.00  0.00    +0.000 A 
ATOM      4  C   UNL     1       8.014   6.726  18.230  0.00  0.00    +0.000 A 
ATOM      5  N   UNL     1       7.085   5.911  17.713  0.00  0.00    +0.000 NA
ENDROOT
BRANCH   1   7
ATOM      6  C   UNL     1       5.509   5.548  15.122  0.00  0.00    +0.000 C 
ATOM      7  C   UNL     1       5.030   6.255  16.402  0.00  0.00    +0.000 C 
BRANCH   7   8
ATOM      8  C   UNL     1       4.046   5.426  17.242  0.00  0.00    +0.000 A 
ATOM      9  C   UNL     1       4.169   4.019  17.252  0.00  0.00    +0.000 A 
ATOM     10  C   UNL     1       3.254   3.194  17.909  0.00  0.00    +0.000 A 
ATOM     11  C   UNL     1       2.184   3.744  18.612  0.00  0.00    +0.000 A 
ATOM     12  C   UNL     1       2.069   5.142  18.654  0.00  0.00    +0.000 A 
ATOM     13  C   UNL     1       2.986   5.999  17.990  0.00  0.00    +0.000 A 
BRANCH  11  14
ATOM     14  C   UNL     1       1.185   2.860  19.320  0.00  0.00    +0.000 C 
ATOM     15  F   UNL     1       0.320   2.232  18.475  0.00  0.00    +0.000 F 
ATOM     16  F   UNL     1       1.782   1.875  20.044  0.00  0.00    +0.000 F 
ATOM     17  F   UNL     1       0.409   3.554  20.198  0.00  0.00    +0.000 F 
ENDBRANCH  11  14
BRANCH  13  18
ATOM     18  C   UNL     1       2.717   7.489  18.132  0.00  0.00    +0.000 C 
ATOM     19  F   UNL     1       1.995   7.851  19.223  0.00  0.00    +0.000 F 
ATOM     20  F   UNL     1       3.877   8.201  18.209  0.00  0.00    +0.000 F 
ATOM     21  F   UNL     1       2.044   7.997  17.063  0.00  0.00    +0.000 F 
ENDBRANCH  13  18
ENDBRANCH   7   8
ENDBRANCH   1   7
BRANCH   3  22
ATOM     22  C   UNL     1       8.509   9.222  18.351  0.00  0.00    +0.000 C 
ATOM     23  C   UNL     1       9.210  10.180  18.518  0.00  0.00    +0.000 C 
BRANCH  23  24
ATOM     24  C   UNL     1      10.098  11.291  18.491  0.00  0.00    +0.000 A 
ATOM     25  N   UNL     1      11.253  11.335  19.113  0.00  0.00    +0.000 NA
ATOM     26  N   UNL     1      11.854  12.583  19.002  0.00  0.00    +0.000 NA
ATOM     27  C   UNL     1      11.115  13.439  18.317  0.00  0.00    +0.000 A 
ATOM     28  S   UNL     1       9.682  12.733  17.671  0.00  0.00    +0.000 S 
BRANCH  27  29
ATOM     29  C   UNL     1      11.382  14.866  18.127  0.00  0.00    +0.000 A 
ATOM     30  C   UNL     1      12.159  15.597  19.018  0.00  0.00    +0.000 A 
ATOM     31  N   UNL     1      12.333  16.941  18.910  0.00  0.00    +0.000 NA
ATOM     32  C   UNL     1      11.695  17.530  17.872  0.00  0.00    +0.000 A 
ATOM     33  C   UNL     1      10.938  16.811  16.969  0.00  0.00    +0.000 A 
ATOM     34  N   UNL     1      10.768  15.474  17.073  0.00  0.00    +0.000 NA
ENDBRANCH  27  29
ENDBRANCH  23  24
ENDBRANCH   3  22
TORSDOF 7
ENDMDL
MODEL 6
REMARK VINA RESULT:      -8.8      1.651      1.918
REMARK  Name = 
REMARK  8 active torsions:
REMARK  status: ('A' for Active; 'I' for Inactive)
REMARK    1  A    between atoms: C_1  and  C_2
REMARK    2  A    between atoms: C_2  and  C_3
REMARK    3  A    between atoms: C_2  and  N_17
REMARK    4  A    between atoms: C_6  and  C_7
REMARK    5  A    between atoms: C_12  and  C_13
REMARK    6  A    between atoms: C_19  and  C_20
REMARK    7  A    between atoms: C_21  and  C_22
REMARK    8  A    between atoms: C_25  and  C_26
REMARK                            x       y       z     vdW  Elec       q    Type
REMARK                         _______ _______ _______ _____ _____    ______ ____
ROOT
ATOM      1  N   UNL     1       6.466   6.149  17.345  0.00  0.00    +0.000 N 
ATOM      2  C   UNL     1       6.791   7.442  17.010  0.00  0.00    +0.000 A 
ATOM      3  C   UNL     1       7.771   7.833  17.890  0.00  0.00    +0.000 A 
ATOM      4  C   UNL     1       7.980   6.711  18.715  0.00  0.00    +0.000 A 
ATOM      5  N   UNL     1       7.202   5.675  18.374  0.00  0.00    +0.000 NA
ENDROOT
BRANCH   1   7
ATOM      6  C   UNL     1       6.311   4.182  15.860  0.00  0.00    +0.000 C 
ATOM      7  C   UNL     1       5.536   5.282  16.605  0.00  0.00    +0.000 C 
BRANCH   7   8
ATOM      8  C   UNL     1       4.373   4.756  17.462  0.00  0.00    +0.000 A 
ATOM      9  C   UNL     1       4.350   3.390  17.822  0.00  0.00    +0.000 A 
ATOM     10  C   UNL     1       3.279   2.817  18.510  0.00  0.00    +0.000 A 
ATOM     11  C   UNL     1       2.190   3.595  18.897  0.00  0.00    +0.000 A 
ATOM     12  C   UNL     1       2.213   4.964  18.591  0.00  0.00    +0.000 A 
ATOM     13  C   UNL     1       3.290   5.567  17.887  0.00  0.00    +0.000 A 
BRANCH  11  14
ATOM     14  C   UNL     1       1.024   2.983  19.637  0.00  0.00    +0.000 C 
ATOM     15  F   UNL     1       0.181   2.276  18.834  0.00  0.00    +0.000 F 
ATOM     16  F   UNL     1       1.420   2.123  20.613  0.00  0.00    +0.000 F 
ATOM     17  F   UNL     1       0.252   3.921  20.253  0.00  0.00    +0.000 F 
ENDBRANCH  11  14
BRANCH  13  18
ATOM     18  C   UNL     1       3.158   7.059  17.632  0.00  0.00    +0.000 C 
ATOM     19  F   UNL     1       3.883   7.859  18.456  0.00  0.00    +0.000 F 
ATOM     20  F   UNL     1       3.548   7.388  16.368  0.00  0.00    +0.000 F 
ATOM     21  F   UNL     1       1.871   7.491  17.745  0.00  0.00    +0.000 F 
ENDBRANCH  13  18
ENDBRANCH   7   8
ENDBRANCH   1   7
BRANCH   3  22
ATOM     22  C   UNL     1       8.443   9.089  17.930  0.00  0.00    +0.000 C 
ATOM     23  C   UNL     1       9.005  10.133  18.108  0.00  0.00    +0.000 C 
BRANCH  23  24
ATOM     24  C   UNL     1       9.650  11.323  18.545  0.00  0.00    +0.000 A 
ATOM     25  N   UNL     1      10.828  11.727  18.128  0.00  0.00    +0.000 NA
ATOM     26  N   UNL     1      11.257  12.861  18.807  0.00  0.00    +0.000 NA
ATOM     27  C   UNL     1      10.393  13.255  19.727  0.00  0.00    +0.000 A 
ATOM     28  S   UNL     1       8.945  12.321  19.742  0.00  0.00    +0.000 S 
BRANCH  27  29
ATOM     29  C   UNL     1      10.589  14.325  20.707  0.00  0.00    +0.000 A 
ATOM     30  C   UNL     1       9.870  14.378  21.895  0.00  0.00    +0.000 A 
ATOM     31  N   UNL     1       9.967  15.417  22.768  0.00  0.00    +0.000 NA
ATOM     32  C   UNL     1      10.815  16.407  22.403  0.00  0.00    +0.000 A 
ATOM     33  C   UNL     1      11.549  16.354  21.235  0.00  0.00    +0.000 A 
ATOM     34  N   UNL     1      11.457  15.320  20.369  0.00  0.00    +0.000 NA
ENDBRANCH  27  29
ENDBRANCH  23  24
ENDBRANCH   3  22
TORSDOF 7
ENDMDL
MODEL 7
REMARK VINA RESULT:      -8.4      1.949      2.777
REMARK  Name = 
REMARK  8 active torsions:
REMARK  status: ('A' for Active; 'I' for Inactive)
REMARK    1  A    between atoms: C_1  and  C_2
REMARK    2  A    between atoms: C_2  and  C_3
REMARK    3  A    between atoms: C_2  and  N_17
REMARK    4  A    between atoms: C_6  and  C_7
REMARK    5  A    between atoms: C_12  and  C_13
REMARK    6  A    between atoms: C_19  and  C_20
REMARK    7  A    between atoms: C_21  and  C_22
REMARK    8  A    between atoms: C_25  and  C_26
REMARK                            x       y       z     vdW  Elec       q    Type
REMARK                         _______ _______ _______ _____ _____    ______ ____
ROOT
ATOM      1  N   UNL     1       7.564   6.996  17.793  0.00  0.00    +0.000 N 
ATOM      2  C   UNL     1       8.485   7.708  18.524  0.00  0.00    +0.000 A 
ATOM      3  C   UNL     1       8.289   9.030  18.206  0.00  0.00    +0.000 A 
ATOM      4  C   UNL     1       7.226   9.023  17.284  0.00  0.00    +0.000 A 
ATOM      5  N   UNL     1       6.766   7.788  17.044  0.00  0.00    +0.000 NA
ENDROOT
BRANCH   1   7
ATOM      6  C   UNL     1       8.231   4.936  18.979  0.00  0.00    +0.000 C 
ATOM      7  C   UNL     1       7.332   5.547  17.891  0.00  0.00    +0.000 C 
BRANCH   7   8
ATOM      8  C   UNL     1       5.848   5.170  18.022  0.00  0.00    +0.000 A 
ATOM      9  C   UNL     1       5.219   5.292  19.282  0.00  0.00    +0.000 A 
ATOM     10  C   UNL     1       3.905   4.874  19.503  0.00  0.00    +0.000 A 
ATOM     11  C   UNL     1       3.147   4.340  18.463  0.00  0.00    +0.000 A 
ATOM     12  C   UNL     1       3.737   4.253  17.193  0.00  0.00    +0.000 A 
ATOM     13  C   UNL     1       5.073   4.667  16.946  0.00  0.00    +0.000 A 
BRANCH  11  14
ATOM     14  C   UNL     1       1.728   3.880  18.695  0.00  0.00    +0.000 C 
ATOM     15  F   UNL     1       0.965   3.877  17.566  0.00  0.00    +0.000 F 
ATOM     16  F   UNL     1       1.664   2.615  19.192  0.00  0.00    +0.000 F 
ATOM     17  F   UNL     1       1.066   4.668  19.588  0.00  0.00    +0.000 F 
ENDBRANCH  11  14
BRANCH  13  18
ATOM     18  C   UNL     1       5.560   4.503  15.516  0.00  0.00    +0.000 C 
ATOM     19  F   UNL     1       6.655   3.715  15.357  0.00  0.00    +0.000 F 
ATOM     20  F   UNL     1       4.598   3.957  14.718  0.00  0.00    +0.000 F 
ATOM     21  F   UNL     1       5.882   5.696  14.940  0.00  0.00    +0.000 F 
ENDBRANCH  13  18
ENDBRANCH   7   8
ENDBRANCH   1   7
BRANCH   3  22
ATOM     22  C   UNL     1       8.992  10.156  18.727  0.00  0.00    +0.000 C 
ATOM     23  C   UNL     1       9.551  11.170  19.041  0.00  0.00    +0.000 C 
BRANCH  23  24
ATOM     24  C   UNL     1      10.148  12.450  19.204  0.00  0.00    +0.000 A 
ATOM     25  N   UNL     1      10.656  12.897  20.330  0.00  0.00    +0.000 NA
ATOM     26  N   UNL     1      11.068  14.219  20.223  0.00  0.00    +0.000 NA
ATOM     27  C   UNL     1      10.834  14.725  19.024  0.00  0.00    +0.000 A 
ATOM     28  S   UNL     1      10.191  13.574  17.915  0.00  0.00    +0.000 S 
BRANCH  27  29
ATOM     29  C   UNL     1      11.018  16.119  18.614  0.00  0.00    +0.000 A 
ATOM     30  C   UNL     1      10.004  17.062  18.725  0.00  0.00    +0.000 A 
ATOM     31  N   UNL     1      10.126  18.333  18.257  0.00  0.00    +0.000 NA
ATOM     32  C   UNL     1      11.309  18.625  17.667  0.00  0.00    +0.000 A 
ATOM     33  C   UNL     1      12.331  17.702  17.570  0.00  0.00    +0.000 A 
ATOM     34  N   UNL     1      12.212  16.440  18.039  0.00  0.00    +0.000 NA
ENDBRANCH  27  29
ENDBRANCH  23  24
ENDBRANCH   3  22
TORSDOF 7
ENDMDL
MODEL 8
REMARK VINA RESULT:      -8.3      5.105     11.084
REMARK  Name = 
REMARK  8 active torsions:
REMARK  status: ('A' for Active; 'I' for Inactive)
REMARK    1  A    between atoms: C_1  and  C_2
REMARK    2  A    between atoms: C_2  and  C_3
REMARK    3  A    between atoms: C_2  and  N_17
REMARK    4  A    between atoms: C_6  and  C_7
REMARK    5  A    between atoms: C_12  and  C_13
REMARK    6  A    between atoms: C_19  and  C_20
REMARK    7  A    between atoms: C_21  and  C_22
REMARK    8  A    between atoms: C_25  and  C_26
REMARK                            x       y       z     vdW  Elec       q    Type
REMARK                         _______ _______ _______ _____ _____    ______ ____
ROOT
ATOM      1  N   UNL     1       9.711  12.378  18.975  0.00  0.00    +0.000 N 
ATOM      2  C   UNL     1       8.944  11.618  18.125  0.00  0.00    +0.000 A 
ATOM      3  C   UNL     1       9.061  10.320  18.560  0.00  0.00    +0.000 A 
ATOM      4  C   UNL     1       9.910  10.392  19.680  0.00  0.00    +0.000 A 
ATOM      5  N   UNL     1      10.294  11.647  19.950  0.00  0.00    +0.000 NA
ENDROOT
BRANCH   1   7
ATOM      6  C   UNL     1      10.517  14.321  17.682  0.00  0.00    +0.000 C 
ATOM      7  C   UNL     1       9.804  13.847  18.959  0.00  0.00    +0.000 C 
BRANCH   7   8
ATOM      8  C   UNL     1       8.464  14.550  19.224  0.00  0.00    +0.000 A 
ATOM      9  C   UNL     1       7.797  15.183  18.150  0.00  0.00    +0.000 A 
ATOM     10  C   UNL     1       6.630  15.926  18.331  0.00  0.00    +0.000 A 
ATOM     11  C   UNL     1       6.057  16.049  19.595  0.00  0.00    +0.000 A 
ATOM     12  C   UNL     1       6.676  15.390  20.668  0.00  0.00    +0.000 A 
ATOM     13  C   UNL     1       7.867  14.632  20.508  0.00  0.00    +0.000 A 
BRANCH  11  14
ATOM     14  C   UNL     1       4.798  16.857  19.801  0.00  0.00    +0.000 C 
ATOM     15  F   UNL     1       5.033  18.143  20.183  0.00  0.00    +0.000 F 
ATOM     16  F   UNL     1       4.038  16.934  18.675  0.00  0.00    +0.000 F 
ATOM     17  F   UNL     1       3.992  16.325  20.762  0.00  0.00    +0.000 F 
ENDBRANCH  11  14
BRANCH  13  18
ATOM     18  C   UNL     1       8.411  13.985  21.771  0.00  0.00    +0.000 C 
ATOM     19  F   UNL     1       9.752  14.098  21.956  0.00  0.00    +0.000 F 
ATOM     20  F   UNL     1       7.842  14.516  22.891  0.00  0.00    +0.000 F 
ATOM     21  F   UNL     1       8.147  12.649  21.822  0.00  0.00    +0.000 F 
ENDBRANCH  13  18
ENDBRANCH   7   8
ENDBRANCH   1   7
BRANCH   3  22
ATOM     22  C   UNL     1       8.430   9.166  18.009  0.00  0.00    +0.000 C 
ATOM     23  C   UNL     1       7.808   8.202  17.659  0.00  0.00    +0.000 C 
BRANCH  23  24
ATOM     24  C   UNL     1       6.943   7.097  17.434  0.00  0.00    +0.000 A 
ATOM     25  N   UNL     1       6.095   7.006  16.434  0.00  0.00    +0.000 NA
ATOM     26  N   UNL     1       5.303   5.868  16.529  0.00  0.00    +0.000 NA
ATOM     27  C   UNL     1       5.570   5.156  17.610  0.00  0.00    +0.000 A 
ATOM     28  S   UNL     1       6.889   5.781  18.525  0.00  0.00    +0.000 S 
BRANCH  27  29
ATOM     29  C   UNL     1       4.837   3.980  18.085  0.00  0.00    +0.000 A 
ATOM     30  C   UNL     1       3.857   3.363  17.318  0.00  0.00    +0.000 A 
ATOM     31  N   UNL     1       3.098   2.334  17.783  0.00  0.00    +0.000 NA
ATOM     32  C   UNL     1       3.358   1.947  19.053  0.00  0.00    +0.000 A 
ATOM     33  C   UNL     1       4.344   2.540  19.817  0.00  0.00    +0.000 A 
ATOM     34  N   UNL     1       5.101   3.559  19.354  0.00  0.00    +0.000 NA
ENDBRANCH  27  29
ENDBRANCH  23  24
ENDBRANCH   3  22
TORSDOF 7
ENDMDL
MODEL 9
REMARK VINA RESULT:      -8.3      7.551     10.969
REMARK  Name = 
REMARK  8 active torsions:
REMARK  status: ('A' for Active; 'I' for Inactive)
REMARK    1  A    between atoms: C_1  and  C_2
REMARK    2  A    between atoms: C_2  and  C_3
REMARK    3  A    between atoms: C_2  and  N_17
REMARK    4  A    between atoms: C_6  and  C_7
REMARK    5  A    between atoms: C_12  and  C_13
REMARK    6  A    between atoms: C_19  and  C_20
REMARK    7  A    between atoms: C_21  and  C_22
REMARK    8  A    between atoms: C_25  and  C_26
REMARK                            x       y       z     vdW  Elec       q    Type
REMARK                         _______ _______ _______ _____ _____    ______ ____
ROOT
ATOM      1  N   UNL     1      -0.544  11.309  22.103  0.00  0.00    +0.000 N 
ATOM      2  C   UNL     1       0.019  10.538  21.115  0.00  0.00    +0.000 A 
ATOM      3  C   UNL     1       0.423   9.372  21.721  0.00  0.00    +0.000 A 
ATOM      4  C   UNL     1       0.057   9.524  23.071  0.00  0.00    +0.000 A 
ATOM      5  N   UNL     1      -0.551  10.694  23.307  0.00  0.00    +0.000 NA
ENDROOT
BRANCH   1   7
ATOM      6  C   UNL     1      -0.260  13.592  21.206  0.00  0.00    +0.000 C 
ATOM      7  C   UNL     1      -1.213  12.604  21.900  0.00  0.00    +0.000 C 
BRANCH   7   8
ATOM      8  C   UNL     1      -2.589  12.485  21.227  0.00  0.00    +0.000 A 
ATOM      9  C   UNL     1      -2.654  12.257  19.834  0.00  0.00    +0.000 A 
ATOM     10  C   UNL     1      -3.863  12.239  19.136  0.00  0.00    +0.000 A 
ATOM     11  C   UNL     1      -5.070  12.421  19.807  0.00  0.00    +0.000 A 
ATOM     12  C   UNL     1      -5.033  12.602  21.198  0.00  0.00    +0.000 A 
ATOM     13  C   UNL     1      -3.814  12.629  21.928  0.00  0.00    +0.000 A 
BRANCH  11  14
ATOM     14  C   UNL     1      -6.382  12.409  19.060  0.00  0.00    +0.000 C 
ATOM     15  F   UNL     1      -7.135  13.526  19.263  0.00  0.00    +0.000 F 
ATOM     16  F   UNL     1      -6.214  12.312  17.713  0.00  0.00    +0.000 F 
ATOM     17  F   UNL     1      -7.173  11.359  19.416  0.00  0.00    +0.000 F 
ENDBRANCH  11  14
BRANCH  13  18
ATOM     18  C   UNL     1      -3.948  12.838  23.427  0.00  0.00    +0.000 C 
ATOM     19  F   UNL     1      -5.219  12.859  23.904  0.00  0.00    +0.000 F 
ATOM     20  F   UNL     1      -3.311  11.857  24.128  0.00  0.00    +0.000 F 
ATOM     21  F   UNL     1      -3.385  14.009  23.838  0.00  0.00    +0.000 F 
ENDBRANCH  13  18
ENDBRANCH   7   8
ENDBRANCH   1   7
BRANCH   3  22
ATOM     22  C   UNL     1       1.047   8.250  21.101  0.00  0.00    +0.000 C 
ATOM     23  C   UNL     1       1.664   7.401  20.521  0.00  0.00    +0.000 C 
BRANCH  23  24
ATOM     24  C   UNL     1       2.527   6.569  19.755  0.00  0.00    +0.000 A 
ATOM     25  N   UNL     1       2.918   5.369  20.117  0.00  0.00    +0.000 NA
ATOM     26  N   UNL     1       3.844   4.837  19.229  0.00  0.00    +0.000 NA
ATOM     27  C   UNL     1       4.132   5.667  18.241  0.00  0.00    +0.000 A 
ATOM     28  S   UNL     1       3.199   7.115  18.280  0.00  0.00    +0.000 S 
BRANCH  27  29
ATOM     29  C   UNL     1       5.159   5.481  17.214  0.00  0.00    +0.000 A 
ATOM     30  C   UNL     1       5.091   6.114  15.979  0.00  0.00    +0.000 A 
ATOM     31  N   UNL     1       5.982   5.874  14.980  0.00  0.00    +0.000 NA
ATOM     32  C   UNL     1       6.947   4.970  15.265  0.00  0.00    +0.000 A 
ATOM     33  C   UNL     1       7.036   4.350  16.495  0.00  0.00    +0.000 A 
ATOM     34  N   UNL     1       6.154   4.592  17.491  0.00  0.00    +0.000 NA
ENDBRANCH  27  29
ENDBRANCH  23  24
ENDBRANCH   3  22
TORSDOF 7
ENDMDL
