MODEL 1
REMARK VINA RESULT:      -8.3      0.000      0.000
REMARK  Name = 
REMARK  4 active torsions:
REMARK  status: ('A' for Active; 'I' for Inactive)
REMARK    1  A    between atoms: C_1  and  C_2
REMARK    2  A    between atoms: C_2  and  C_3
REMARK    3  A    between atoms: C_2  and  C_12
REMARK    4  A    between atoms: C_2  and  C_18
REMARK                            x       y       z     vdW  Elec       q    Type
REMARK                         _______ _______ _______ _____ _____    ______ ____
ROOT
ATOM      1  C   UNL     1       5.434   5.336  19.319  0.00  0.00    +0.000 C 
ATOM      2  C   UNL     1       4.326   5.363  18.227  0.00  0.00    +0.000 C 
ENDROOT
BRANCH   2   3
ATOM      3  C   UNL     1       5.135   5.446  16.895  0.00  0.00    +0.000 C 
ATOM      4  O   UNL     1       6.074   6.221  16.811  0.00  0.00    +0.000 OA
ATOM      5  N   UNL     1       4.809   4.687  15.804  0.00  0.00    +0.000 N 
ATOM      6  C   UNL     1       5.637   4.602  14.635  0.00  0.00    +0.000 A 
ATOM      7  C   UNL     1       5.310   3.715  13.595  0.00  0.00    +0.000 A 
ATOM      8  C   UNL     1       6.168   3.597  12.497  0.00  0.00    +0.000 A 
ATOM      9  C   UNL     1       7.334   4.359  12.433  0.00  0.00    +0.000 A 
ATOM     10  C   UNL     1       7.635   5.233  13.479  0.00  0.00    +0.000 A 
ATOM     11  N   UNL     1       6.788   5.330  14.535  0.00  0.00    +0.000 NA
ATOM     12  H   UNL     1       3.981   4.071  15.848  0.00  0.00    +0.000 HD
ENDBRANCH   2   3
BRANCH   2  13
ATOM     13  C   UNL     1       3.442   4.059  18.274  0.00  0.00    +0.000 A 
ATOM     14  C   UNL     1       2.040   4.081  18.044  0.00  0.00    +0.000 A 
ATOM     15  C   UNL     1       1.252   2.930  18.198  0.00  0.00    +0.000 A 
ATOM     16  C   UNL     1       1.829   1.727  18.595  0.00  0.00    +0.000 A 
ATOM     17  C   UNL     1       3.201   1.656  18.794  0.00  0.00    +0.000 A 
ATOM     18  C   UNL     1       3.999   2.792  18.614  0.00  0.00    +0.000 A 
ENDBRANCH   2  13
BRANCH   2  19
ATOM     19  C   UNL     1       3.472   6.634  18.503  0.00  0.00    +0.000 A 
ATOM     20  C   UNL     1       2.755   6.826  19.708  0.00  0.00    +0.000 A 
ATOM     21  C   UNL     1       1.865   7.891  19.856  0.00  0.00    +0.000 A 
ATOM     22  C   UNL     1       1.682   8.803  18.822  0.00  0.00    +0.000 A 
ATOM     23  C   UNL     1       2.413   8.668  17.643  0.00  0.00    +0.000 A 
ATOM     24  C   UNL     1       3.305   7.603  17.484  0.00  0.00    +0.000 A 
ENDBRANCH   2  19
TORSDOF 3
ENDMDL
MODEL 2
REMARK VINA RESULT:      -8.3      2.180      6.103
REMARK  Name = 
REMARK  4 active torsions:
REMARK  status: ('A' for Active; 'I' for Inactive)
REMARK    1  A    between atoms: C_1  and  C_2
REMARK    2  A    between atoms: C_2  and  C_3
REMARK    3  A    between atoms: C_2  and  C_12
REMARK    4  A    between atoms: C_2  and  C_18
REMARK                            x       y       z     vdW  Elec       q    Type
REMARK                         _______ _______ _______ _____ _____    ______ ____
ROOT
ATOM      1  C   UNL     1       4.573   6.890  15.880  0.00  0.00    +0.000 C 
ATOM      2  C   UNL     1       5.432   5.630  16.190  0.00  0.00    +0.000 C 
ENDROOT
BRANCH   2   3
ATOM      3  C   UNL     1       4.426   4.674  16.903  0.00  0.00    +0.000 C 
ATOM      4  O   UNL     1       4.502   3.472  16.710  0.00  0.00    +0.000 OA
ATOM      5  N   UNL     1       3.441   5.148  17.727  0.00  0.00    +0.000 N 
ATOM      6  C   UNL     1       2.623   4.293  18.539  0.00  0.00    +0.000 A 
ATOM      7  C   UNL     1       1.708   4.843  19.453  0.00  0.00    +0.000 A 
ATOM      8  C   UNL     1       0.971   3.993  20.284  0.00  0.00    +0.000 A 
ATOM      9  C   UNL     1       1.139   2.611  20.200  0.00  0.00    +0.000 A 
ATOM     10  C   UNL     1       2.054   2.091  19.282  0.00  0.00    +0.000 A 
ATOM     11  N   UNL     1       2.758   2.935  18.486  0.00  0.00    +0.000 NA
ATOM     12  H   UNL     1       3.334   6.168  17.850  0.00  0.00    +0.000 HD
ENDBRANCH   2   3
BRANCH   2  13
ATOM     13  C   UNL     1       5.994   4.980  14.867  0.00  0.00    +0.000 A 
ATOM     14  C   UNL     1       7.275   5.302  14.346  0.00  0.00    +0.000 A 
ATOM     15  C   UNL     1       7.714   4.798  13.112  0.00  0.00    +0.000 A 
ATOM     16  C   UNL     1       6.891   3.970  12.354  0.00  0.00    +0.000 A 
ATOM     17  C   UNL     1       5.646   3.602  12.847  0.00  0.00    +0.000 A 
ATOM     18  C   UNL     1       5.212   4.076  14.090  0.00  0.00    +0.000 A 
ENDBRANCH   2  13
BRANCH   2  19
ATOM     19  C   UNL     1       6.586   6.106  17.118  0.00  0.00    +0.000 A 
ATOM     20  C   UNL     1       7.150   5.282  18.121  0.00  0.00    +0.000 A 
ATOM     21  C   UNL     1       8.061   5.793  19.047  0.00  0.00    +0.000 A 
ATOM     22  C   UNL     1       8.451   7.127  18.986  0.00  0.00    +0.000 A 
ATOM     23  C   UNL     1       7.951   7.949  17.979  0.00  0.00    +0.000 A 
ATOM     24  C   UNL     1       7.036   7.448  17.048  0.00  0.00    +0.000 A 
ENDBRANCH   2  19
TORSDOF 3
ENDMDL
MODEL 3
REMARK VINA RESULT:      -8.2      0.149      1.018
REMARK  Name = 
REMARK  4 active torsions:
REMARK  status: ('A' for Active; 'I' for Inactive)
REMARK    1  A    between atoms: C_1  and  C_2
REMARK    2  A    between atoms: C_2  and  C_3
REMARK    3  A    between atoms: C_2  and  C_12
REMARK    4  A    between atoms: C_2  and  C_18
REMARK                            x       y       z     vdW  Elec       q    Type
REMARK                         _______ _______ _______ _____ _____    ______ ____
ROOT
ATOM      1  C   UNL     1       5.258   5.514  19.318  0.00  0.00    +0.000 C 
ATOM      2  C   UNL     1       4.185   5.406  18.196  0.00  0.00    +0.000 C 
ENDROOT
BRANCH   2   3
ATOM      3  C   UNL     1       5.026   5.490  16.885  0.00  0.00    +0.000 C 
ATOM      4  O   UNL     1       5.955   6.279  16.817  0.00  0.00    +0.000 OA
ATOM      5  N   UNL     1       4.740   4.715  15.793  0.00  0.00    +0.000 N 
ATOM      6  C   UNL     1       5.599   4.632  14.646  0.00  0.00    +0.000 A 
ATOM      7  C   UNL     1       5.313   3.731  13.607  0.00  0.00    +0.000 A 
ATOM      8  C   UNL     1       6.200   3.616  12.532  0.00  0.00    +0.000 A 
ATOM      9  C   UNL     1       7.356   4.395  12.491  0.00  0.00    +0.000 A 
ATOM     10  C   UNL     1       7.616   5.284  13.535  0.00  0.00    +0.000 A 
ATOM     11  N   UNL     1       6.740   5.378  14.568  0.00  0.00    +0.000 NA
ATOM     12  H   UNL     1       3.921   4.087  15.821  0.00  0.00    +0.000 HD
ENDBRANCH   2   3
BRANCH   2  13
ATOM     13  C   UNL     1       3.400   4.041  18.282  0.00  0.00    +0.000 A 
ATOM     14  C   UNL     1       2.000   3.955  18.059  0.00  0.00    +0.000 A 
ATOM     15  C   UNL     1       1.299   2.753  18.247  0.00  0.00    +0.000 A 
ATOM     16  C   UNL     1       1.965   1.606  18.672  0.00  0.00    +0.000 A 
ATOM     17  C   UNL     1       3.340   1.642  18.864  0.00  0.00    +0.000 A 
ATOM     18  C   UNL     1       4.050   2.828  18.651  0.00  0.00    +0.000 A 
ENDBRANCH   2  13
BRANCH   2  19
ATOM     19  C   UNL     1       3.230   6.620  18.387  0.00  0.00    +0.000 A 
ATOM     20  C   UNL     1       3.068   7.627  17.406  0.00  0.00    +0.000 A 
ATOM     21  C   UNL     1       2.339   8.786  17.676  0.00  0.00    +0.000 A 
ATOM     22  C   UNL     1       1.736   8.964  18.918  0.00  0.00    +0.000 A 
ATOM     23  C   UNL     1       1.837   7.966  19.885  0.00  0.00    +0.000 A 
ATOM     24  C   UNL     1       2.567   6.803  19.625  0.00  0.00    +0.000 A 
ENDBRANCH   2  19
TORSDOF 3
ENDMDL
MODEL 4
REMARK VINA RESULT:      -8.2      1.950      6.235
REMARK  Name = 
REMARK  4 active torsions:
REMARK  status: ('A' for Active; 'I' for Inactive)
REMARK    1  A    between atoms: C_1  and  C_2
REMARK    2  A    between atoms: C_2  and  C_3
REMARK    3  A    between atoms: C_2  and  C_12
REMARK    4  A    between atoms: C_2  and  C_18
REMARK                            x       y       z     vdW  Elec       q    Type
REMARK                         _______ _______ _______ _____ _____    ______ ____
ROOT
ATOM      1  C   UNL     1       5.302   5.129  19.323  0.00  0.00    +0.000 C 
ATOM      2  C   UNL     1       4.394   5.132  18.059  0.00  0.00    +0.000 C 
ENDROOT
BRANCH   2   3
ATOM      3  C   UNL     1       3.659   6.505  18.146  0.00  0.00    +0.000 C 
ATOM      4  O   UNL     1       3.713   7.275  17.201  0.00  0.00    +0.000 OA
ATOM      5  N   UNL     1       2.968   6.884  19.265  0.00  0.00    +0.000 N 
ATOM      6  C   UNL     1       2.132   8.050  19.310  0.00  0.00    +0.000 A 
ATOM      7  C   UNL     1       1.355   8.324  20.449  0.00  0.00    +0.000 A 
ATOM      8  C   UNL     1       0.495   9.426  20.444  0.00  0.00    +0.000 A 
ATOM      9  C   UNL     1       0.415  10.250  19.322  0.00  0.00    +0.000 A 
ATOM     10  C   UNL     1       1.199   9.955  18.205  0.00  0.00    +0.000 A 
ATOM     11  N   UNL     1       2.026   8.880  18.231  0.00  0.00    +0.000 NA
ATOM     12  H   UNL     1       2.966   6.263  20.091  0.00  0.00    +0.000 HD
ENDBRANCH   2   3
BRANCH   2  13
ATOM     13  C   UNL     1       5.251   5.028  16.739  0.00  0.00    +0.000 A 
ATOM     14  C   UNL     1       4.724   4.497  15.531  0.00  0.00    +0.000 A 
ATOM     15  C   UNL     1       5.531   4.311  14.397  0.00  0.00    +0.000 A 
ATOM     16  C   UNL     1       6.884   4.635  14.433  0.00  0.00    +0.000 A 
ATOM     17  C   UNL     1       7.428   5.191  15.584  0.00  0.00    +0.000 A 
ATOM     18  C   UNL     1       6.624   5.408  16.708  0.00  0.00    +0.000 A 
ENDBRANCH   2  13
BRANCH   2  19
ATOM     19  C   UNL     1       3.436   3.915  18.207  0.00  0.00    +0.000 A 
ATOM     20  C   UNL     1       2.033   4.025  18.061  0.00  0.00    +0.000 A 
ATOM     21  C   UNL     1       1.190   2.956  18.367  0.00  0.00    +0.000 A 
ATOM     22  C   UNL     1       1.719   1.746  18.805  0.00  0.00    +0.000 A 
ATOM     23  C   UNL     1       3.100   1.593  18.911  0.00  0.00    +0.000 A 
ATOM     24  C   UNL     1       3.953   2.658  18.609  0.00  0.00    +0.000 A 
ENDBRANCH   2  19
TORSDOF 3
ENDMDL
MODEL 5
REMARK VINA RESULT:      -8.2      0.645      1.513
REMARK  Name = 
REMARK  4 active torsions:
REMARK  status: ('A' for Active; 'I' for Inactive)
REMARK    1  A    between atoms: C_1  and  C_2
REMARK    2  A    between atoms: C_2  and  C_3
REMARK    3  A    between atoms: C_2  and  C_12
REMARK    4  A    between atoms: C_2  and  C_18
REMARK                            x       y       z     vdW  Elec       q    Type
REMARK                         _______ _______ _______ _____ _____    ______ ____
ROOT
ATOM      1  C   UNL     1       5.838   5.777  19.109  0.00  0.00    +0.000 C 
ATOM      2  C   UNL     1       4.709   5.441  18.092  0.00  0.00    +0.000 C 
ENDROOT
BRANCH   2   3
ATOM      3  C   UNL     1       5.434   5.516  16.712  0.00  0.00    +0.000 C 
ATOM      4  O   UNL     1       6.322   6.336  16.545  0.00  0.00    +0.000 OA
ATOM      5  N   UNL     1       5.088   4.698  15.670  0.00  0.00    +0.000 N 
ATOM      6  C   UNL     1       5.851   4.613  14.457  0.00  0.00    +0.000 A 
ATOM      7  C   UNL     1       5.514   3.670  13.471  0.00  0.00    +0.000 A 
ATOM      8  C   UNL     1       6.313   3.556  12.329  0.00  0.00    +0.000 A 
ATOM      9  C   UNL     1       7.429   4.376  12.168  0.00  0.00    +0.000 A 
ATOM     10  C   UNL     1       7.741   5.304  13.163  0.00  0.00    +0.000 A 
ATOM     11  N   UNL     1       6.952   5.397  14.263  0.00  0.00    +0.000 NA
ATOM     12  H   UNL     1       4.300   4.041  15.785  0.00  0.00    +0.000 HD
ENDBRANCH   2   3
BRANCH   2  13
ATOM     13  C   UNL     1       4.117   4.002  18.346  0.00  0.00    +0.000 A 
ATOM     14  C   UNL     1       4.643   3.127  19.335  0.00  0.00    +0.000 A 
ATOM     15  C   UNL     1       4.177   1.811  19.474  0.00  0.00    +0.000 A 
ATOM     16  C   UNL     1       3.185   1.320  18.629  0.00  0.00    +0.000 A 
ATOM     17  C   UNL     1       2.620   2.156  17.674  0.00  0.00    +0.000 A 
ATOM     18  C   UNL     1       3.058   3.479  17.549  0.00  0.00    +0.000 A 
ENDBRANCH   2  13
BRANCH   2  19
ATOM     19  C   UNL     1       3.621   6.539  18.270  0.00  0.00    +0.000 A 
ATOM     20  C   UNL     1       3.434   7.588  17.339  0.00  0.00    +0.000 A 
ATOM     21  C   UNL     1       2.569   8.649  17.612  0.00  0.00    +0.000 A 
ATOM     22  C   UNL     1       1.852   8.683  18.805  0.00  0.00    +0.000 A 
ATOM     23  C   UNL     1       1.978   7.637  19.717  0.00  0.00    +0.000 A 
ATOM     24  C   UNL     1       2.844   6.572  19.455  0.00  0.00    +0.000 A 
ENDBRANCH   2  19
TORSDOF 3
ENDMDL
MODEL 6
REMARK VINA RESULT:      -8.1      1.925      6.201
REMARK  Name = 
REMARK  4 active torsions:
REMARK  status: ('A' for Active; 'I' for Inactive)
REMARK    1  A    between atoms: C_1  and  C_2
REMARK    2  A    between atoms: C_2  and  C_3
REMARK    3  A    between atoms: C_2  and  C_12
REMARK    4  A    between atoms: C_2  and  C_18
REMARK                            x       y       z     vdW  Elec       q    Type
REMARK                         _______ _______ _______ _____ _____    ______ ____
ROOT
ATOM      1  C   UNL     1       5.284   5.078  19.384  0.00  0.00    +0.000 C 
ATOM      2  C   UNL     1       4.417   5.071  18.092  0.00  0.00    +0.000 C 
ENDROOT
BRANCH   2   3
ATOM      3  C   UNL     1       3.733   6.473  18.109  0.00  0.00    +0.000 C 
ATOM      4  O   UNL     1       3.878   7.223  17.158  0.00  0.00    +0.000 OA
ATOM      5  N   UNL     1       2.987   6.899  19.176  0.00  0.00    +0.000 N 
ATOM      6  C   UNL     1       2.197   8.097  19.148  0.00  0.00    +0.000 A 
ATOM      7  C   UNL     1       1.361   8.422  20.230  0.00  0.00    +0.000 A 
ATOM      8  C   UNL     1       0.547   9.556  20.153  0.00  0.00    +0.000 A 
ATOM      9  C   UNL     1       0.572  10.362  19.014  0.00  0.00    +0.000 A 
ATOM     10  C   UNL     1       1.413  10.017  17.955  0.00  0.00    +0.000 A 
ATOM     11  N   UNL     1       2.194   8.911  18.052  0.00  0.00    +0.000 NA
ATOM     12  H   UNL     1       2.907   6.294  20.009  0.00  0.00    +0.000 HD
ENDBRANCH   2   3
BRANCH   2  13
ATOM     13  C   UNL     1       5.308   4.890  16.803  0.00  0.00    +0.000 A 
ATOM     14  C   UNL     1       6.670   5.294  16.758  0.00  0.00    +0.000 A 
ATOM     15  C   UNL     1       7.417   5.227  15.572  0.00  0.00    +0.000 A 
ATOM     16  C   UNL     1       6.832   4.768  14.395  0.00  0.00    +0.000 A 
ATOM     17  C   UNL     1       5.515   4.329  14.407  0.00  0.00    +0.000 A 
ATOM     18  C   UNL     1       4.772   4.365  15.592  0.00  0.00    +0.000 A 
ENDBRANCH   2  13
BRANCH   2  19
ATOM     19  C   UNL     1       3.408   3.897  18.249  0.00  0.00    +0.000 A 
ATOM     20  C   UNL     1       2.015   4.054  18.050  0.00  0.00    +0.000 A 
ATOM     21  C   UNL     1       1.122   3.029  18.365  0.00  0.00    +0.000 A 
ATOM     22  C   UNL     1       1.590   1.816  18.864  0.00  0.00    +0.000 A 
ATOM     23  C   UNL     1       2.960   1.616  19.022  0.00  0.00    +0.000 A 
ATOM     24  C   UNL     1       3.863   2.637  18.712  0.00  0.00    +0.000 A 
ENDBRANCH   2  19
TORSDOF 3
ENDMDL
MODEL 7
REMARK VINA RESULT:      -8.0      0.125      1.011
REMARK  Name = 
REMARK  4 active torsions:
REMARK  status: ('A' for Active; 'I' for Inactive)
REMARK    1  A    between atoms: C_1  and  C_2
REMARK    2  A    between atoms: C_2  and  C_3
REMARK    3  A    between atoms: C_2  and  C_12
REMARK    4  A    between atoms: C_2  and  C_18
REMARK                            x       y       z     vdW  Elec       q    Type
REMARK                         _______ _______ _______ _____ _____    ______ ____
ROOT
ATOM      1  C   UNL     1       5.500   5.476  19.358  0.00  0.00    +0.000 C 
ATOM      2  C   UNL     1       4.377   5.430  18.281  0.00  0.00    +0.000 C 
ENDROOT
BRANCH   2   3
ATOM      3  C   UNL     1       5.165   5.491  16.936  0.00  0.00    +0.000 C 
ATOM      4  O   UNL     1       6.108   6.258  16.828  0.00  0.00    +0.000 OA
ATOM      5  N   UNL     1       4.816   4.721  15.859  0.00  0.00    +0.000 N 
ATOM      6  C   UNL     1       5.625   4.615  14.678  0.00  0.00    +0.000 A 
ATOM      7  C   UNL     1       5.275   3.718  13.655  0.00  0.00    +0.000 A 
ATOM      8  C   UNL     1       6.114   3.580  12.545  0.00  0.00    +0.000 A 
ATOM      9  C   UNL     1       7.285   4.332  12.453  0.00  0.00    +0.000 A 
ATOM     10  C   UNL     1       7.608   5.217  13.483  0.00  0.00    +0.000 A 
ATOM     11  N   UNL     1       6.779   5.334  14.551  0.00  0.00    +0.000 NA
ATOM     12  H   UNL     1       3.985   4.112  15.924  0.00  0.00    +0.000 HD
ENDBRANCH   2   3
BRANCH   2  13
ATOM     13  C   UNL     1       3.535   4.101  18.387  0.00  0.00    +0.000 A 
ATOM     14  C   UNL     1       4.139   2.833  18.599  0.00  0.00    +0.000 A 
ATOM     15  C   UNL     1       3.386   1.649  18.581  0.00  0.00    +0.000 A 
ATOM     16  C   UNL     1       2.015   1.687  18.342  0.00  0.00    +0.000 A 
ATOM     17  C   UNL     1       1.382   2.911  18.167  0.00  0.00    +0.000 A 
ATOM     18  C   UNL     1       2.121   4.098  18.213  0.00  0.00    +0.000 A 
ENDBRANCH   2  13
BRANCH   2  19
ATOM     19  C   UNL     1       3.487   6.683  18.525  0.00  0.00    +0.000 A 
ATOM     20  C   UNL     1       2.759   6.882  19.722  0.00  0.00    +0.000 A 
ATOM     21  C   UNL     1       1.840   7.925  19.842  0.00  0.00    +0.000 A 
ATOM     22  C   UNL     1       1.637   8.809  18.786  0.00  0.00    +0.000 A 
ATOM     23  C   UNL     1       2.377   8.667  17.614  0.00  0.00    +0.000 A 
ATOM     24  C   UNL     1       3.298   7.624  17.483  0.00  0.00    +0.000 A 
ENDBRANCH   2  19
TORSDOF 3
ENDMDL
MODEL 8
REMARK VINA RESULT:      -7.9      2.192      6.047
REMARK  Name = 
REMARK  4 active torsions:
REMARK  status: ('A' for Active; 'I' for Inactive)
REMARK    1  A    between atoms: C_1  and  C_2
REMARK    2  A    between atoms: C_2  and  C_3
REMARK    3  A    between atoms: C_2  and  C_12
REMARK    4  A    between atoms: C_2  and  C_18
REMARK                            x       y       z     vdW  Elec       q    Type
REMARK                         _______ _______ _______ _____ _____    ______ ____
ROOT
ATOM      1  C   UNL     1       4.441   6.968  16.082  0.00  0.00    +0.000 C 
ATOM      2  C   UNL     1       5.318   5.703  16.305  0.00  0.00    +0.000 C 
ENDROOT
BRANCH   2   3
ATOM      3  C   UNL     1       4.352   4.718  17.033  0.00  0.00    +0.000 C 
ATOM      4  O   UNL     1       4.453   3.519  16.829  0.00  0.00    +0.000 OA
ATOM      5  N   UNL     1       3.374   5.161  17.882  0.00  0.00    +0.000 N 
ATOM      6  C   UNL     1       2.595   4.281  18.705  0.00  0.00    +0.000 A 
ATOM      7  C   UNL     1       1.687   4.801  19.643  0.00  0.00    +0.000 A 
ATOM      8  C   UNL     1       0.990   3.928  20.483  0.00  0.00    +0.000 A 
ATOM      9  C   UNL     1       1.189   2.551  20.384  0.00  0.00    +0.000 A 
ATOM     10  C   UNL     1       2.096   2.060  19.443  0.00  0.00    +0.000 A 
ATOM     11  N   UNL     1       2.762   2.927  18.639  0.00  0.00    +0.000 NA
ATOM     12  H   UNL     1       3.245   6.177  18.015  0.00  0.00    +0.000 HD
ENDBRANCH   2   3
BRANCH   2  13
ATOM     13  C   UNL     1       5.816   5.102  14.935  0.00  0.00    +0.000 A 
ATOM     14  C   UNL     1       5.007   4.245  14.141  0.00  0.00    +0.000 A 
ATOM     15  C   UNL     1       5.505   3.632  12.981  0.00  0.00    +0.000 A 
ATOM     16  C   UNL     1       6.821   3.842  12.580  0.00  0.00    +0.000 A 
ATOM     17  C   UNL     1       7.632   4.702  13.309  0.00  0.00    +0.000 A 
ATOM     18  C   UNL     1       7.135   5.340  14.451  0.00  0.00    +0.000 A 
ENDBRANCH   2  13
BRANCH   2  19
ATOM     19  C   UNL     1       6.515   6.152  17.192  0.00  0.00    +0.000 A 
ATOM     20  C   UNL     1       7.077   5.325  18.194  0.00  0.00    +0.000 A 
ATOM     21  C   UNL     1       8.032   5.818  19.084  0.00  0.00    +0.000 A 
ATOM     22  C   UNL     1       8.468   7.136  18.989  0.00  0.00    +0.000 A 
ATOM     23  C   UNL     1       7.969   7.958  17.980  0.00  0.00    +0.000 A 
ATOM     24  C   UNL     1       7.011   7.475  17.085  0.00  0.00    +0.000 A 
ENDBRANCH   2  19
TORSDOF 3
ENDMDL
MODEL 9
REMARK VINA RESULT:      -7.9      1.959      6.199
REMARK  Name = 
REMARK  4 active torsions:
REMARK  status: ('A' for Active; 'I' for Inactive)
REMARK    1  A    between atoms: C_1  and  C_2
REMARK    2  A    between atoms: C_2  and  C_3
REMARK    3  A    between atoms: C_2  and  C_12
REMARK    4  A    between atoms: C_2  and  C_18
REMARK                            x       y       z     vdW  Elec       q    Type
REMARK                         _______ _______ _______ _____ _____    ______ ____
ROOT
ATOM      1  C   UNL     1       5.449   5.283  19.335  0.00  0.00    +0.000 C 
ATOM      2  C   UNL     1       4.464   5.202  18.133  0.00  0.00    +0.000 C 
ENDROOT
BRANCH   2   3
ATOM      3  C   UNL     1       3.709   6.566  18.193  0.00  0.00    +0.000 C 
ATOM      4  O   UNL     1       3.784   7.335  17.248  0.00  0.00    +0.000 OA
ATOM      5  N   UNL     1       2.977   6.939  19.288  0.00  0.00    +0.000 N 
ATOM      6  C   UNL     1       2.125   8.094  19.303  0.00  0.00    +0.000 A 
ATOM      7  C   UNL     1       1.308   8.361  20.414  0.00  0.00    +0.000 A 
ATOM      8  C   UNL     1       0.434   9.451  20.379  0.00  0.00    +0.000 A 
ATOM      9  C   UNL     1       0.381  10.272  19.252  0.00  0.00    +0.000 A 
ATOM     10  C   UNL     1       1.205   9.985  18.162  0.00  0.00    +0.000 A 
ATOM     11  N   UNL     1       2.044   8.920  18.219  0.00  0.00    +0.000 NA
ATOM     12  H   UNL     1       2.955   6.320  20.114  0.00  0.00    +0.000 HD
ENDBRANCH   2   3
BRANCH   2  13
ATOM     13  C   UNL     1       5.237   5.039  16.769  0.00  0.00    +0.000 A 
ATOM     14  C   UNL     1       4.637   4.458  15.620  0.00  0.00    +0.000 A 
ATOM     15  C   UNL     1       5.373   4.221  14.448  0.00  0.00    +0.000 A 
ATOM     16  C   UNL     1       6.726   4.543  14.386  0.00  0.00    +0.000 A 
ATOM     17  C   UNL     1       7.339   5.147  15.476  0.00  0.00    +0.000 A 
ATOM     18  C   UNL     1       6.606   5.414  16.637  0.00  0.00    +0.000 A 
ENDBRANCH   2  13
BRANCH   2  19
ATOM     19  C   UNL     1       3.541   3.980  18.408  0.00  0.00    +0.000 A 
ATOM     20  C   UNL     1       4.046   2.696  18.723  0.00  0.00    +0.000 A 
ATOM     21  C   UNL     1       3.203   1.586  18.795  0.00  0.00    +0.000 A 
ATOM     22  C   UNL     1       1.835   1.727  18.577  0.00  0.00    +0.000 A 
ATOM     23  C   UNL     1       1.303   2.988  18.315  0.00  0.00    +0.000 A 
ATOM     24  C   UNL     1       2.140   4.105  18.238  0.00  0.00    +0.000 A 
ENDBRANCH   2  19
TORSDOF 3
ENDMDL
