MODEL 1
REMARK VINA RESULT:      -8.3      0.000      0.000
REMARK  Name = 
REMARK  4 active torsions:
REMARK  status: ('A' for Active; 'I' for Inactive)
REMARK    1  A    between atoms: C_5  and  C_6
REMARK    2  A    between atoms: C_11  and  N_12
REMARK    3  A    between atoms: C_14  and  C_15
REMARK    4  A    between atoms: C_15  and  C_16
REMARK                            x       y       z     vdW  Elec       q    Type
REMARK                         _______ _______ _______ _____ _____    ______ ____
ROOT
ATOM      1  C   UNL     1       6.210   4.620  17.425  0.00  0.00    +0.000 C 
ATOM      2  O   UNL     1       7.171   4.390  18.163  0.00  0.00    +0.000 OA
ATOM      3  N   UNL     1       4.943   4.941  17.947  0.00  0.00    +0.000 N 
ATOM      4  C   UNL     1       4.907   5.399  19.338  0.00  0.00    +0.000 C 
ATOM      5  C   UNL     1       3.641   4.958  20.062  0.00  0.00    +0.000 C 
ATOM      6  C   UNL     1       2.372   5.347  19.299  0.00  0.00    +0.000 C 
ATOM      7  C   UNL     1       2.445   4.839  17.858  0.00  0.00    +0.000 C 
ATOM      8  C   UNL     1       3.744   5.205  17.154  0.00  0.00    +0.000 C 
ENDROOT
BRANCH   1  13
ATOM      9  N   UNL     1       7.402   4.591  11.914  0.00  0.00    +0.000 N 
ATOM     10  C   UNL     1       7.068   4.565  13.264  0.00  0.00    +0.000 A 
ATOM     11  C   UNL     1       6.152   3.639  13.737  0.00  0.00    +0.000 A 
ATOM     12  C   UNL     1       5.813   3.652  15.090  0.00  0.00    +0.000 A 
ATOM     13  C   UNL     1       6.470   4.517  15.963  0.00  0.00    +0.000 A 
ATOM     14  C   UNL     1       7.373   5.410  15.389  0.00  0.00    +0.000 A 
ATOM     15  N   UNL     1       7.682   5.448  14.065  0.00  0.00    +0.000 NA
ATOM     16  H   UNL     1       6.577   4.634  11.327  0.00  0.00    +0.000 HD
ATOM     17  H   UNL     1       8.009   5.395  11.775  0.00  0.00    +0.000 HD
ENDBRANCH   1  13
BRANCH   6  18
ATOM     18  N   UNL     1       2.058   6.763  19.420  0.00  0.00    +0.000 N 
ATOM     19  C   UNL     1       2.148   7.716  18.444  0.00  0.00    +0.000 A 
ATOM     20  C   UNL     1       1.741   8.877  19.067  0.00  0.00    +0.000 A 
ATOM     21  N   UNL     1       1.416   8.591  20.368  0.00  0.00    +0.000 NA
ATOM     22  N   UNL     1       1.615   7.296  20.571  0.00  0.00    +0.000 NA
BRANCH  20  23
ATOM     23  C   UNL     1       1.568  10.242  18.515  0.00  0.00    +0.000 C 
BRANCH  23  24
ATOM     24  C   UNL     1       0.088  10.532  18.511  0.00  0.00    +0.000 A 
ATOM     25  C   UNL     1      -0.453  11.521  19.348  0.00  0.00    +0.000 A 
ATOM     26  C   UNL     1      -1.818  11.812  19.313  0.00  0.00    +0.000 A 
ATOM     27  C   UNL     1      -2.658  11.124  18.440  0.00  0.00    +0.000 A 
ATOM     28  C   UNL     1      -2.135  10.133  17.609  0.00  0.00    +0.000 A 
ATOM     29  C   UNL     1      -0.774   9.836  17.648  0.00  0.00    +0.000 A 
ENDBRANCH  23  24
ENDBRANCH  20  23
ENDBRANCH   6  18
TORSDOF 4
ENDMDL
MODEL 2
REMARK VINA RESULT:      -8.1      4.814      8.166
REMARK  Name = 
REMARK  4 active torsions:
REMARK  status: ('A' for Active; 'I' for Inactive)
REMARK    1  A    between atoms: C_5  and  C_6
REMARK    2  A    between atoms: C_11  and  N_12
REMARK    3  A    between atoms: C_14  and  C_15
REMARK    4  A    between atoms: C_15  and  C_16
REMARK                            x       y       z     vdW  Elec       q    Type
REMARK                         _______ _______ _______ _____ _____    ______ ____
ROOT
ATOM      1  C   UNL     1       3.283   4.840  18.048  0.00  0.00    +0.000 C 
ATOM      2  O   UNL     1       2.462   5.031  17.148  0.00  0.00    +0.000 OA
ATOM      3  N   UNL     1       4.637   5.195  17.896  0.00  0.00    +0.000 N 
ATOM      4  C   UNL     1       4.943   6.158  16.835  0.00  0.00    +0.000 C 
ATOM      5  C   UNL     1       6.298   5.898  16.189  0.00  0.00    +0.000 C 
ATOM      6  C   UNL     1       7.424   5.808  17.221  0.00  0.00    +0.000 C 
ATOM      7  C   UNL     1       7.071   4.785  18.301  0.00  0.00    +0.000 C 
ATOM      8  C   UNL     1       5.683   4.987  18.894  0.00  0.00    +0.000 C 
ENDROOT
BRANCH   1  13
ATOM      9  N   UNL     1       1.177   2.087  22.496  0.00  0.00    +0.000 N 
ATOM     10  C   UNL     1       1.693   2.811  21.427  0.00  0.00    +0.000 A 
ATOM     11  C   UNL     1       2.085   4.129  21.602  0.00  0.00    +0.000 A 
ATOM     12  C   UNL     1       2.573   4.842  20.507  0.00  0.00    +0.000 A 
ATOM     13  C   UNL     1       2.760   4.198  19.286  0.00  0.00    +0.000 A 
ATOM     14  C   UNL     1       2.334   2.873  19.211  0.00  0.00    +0.000 A 
ATOM     15  N   UNL     1       1.809   2.173  20.252  0.00  0.00    +0.000 NA
ATOM     16  H   UNL     1       0.420   2.584  22.950  0.00  0.00    +0.000 HD
ATOM     17  H   UNL     1       0.874   1.190  22.126  0.00  0.00    +0.000 HD
ENDBRANCH   1  13
BRANCH   6  18
ATOM     18  N   UNL     1       7.818   7.111  17.736  0.00  0.00    +0.000 N 
ATOM     19  C   UNL     1       7.568   8.332  17.173  0.00  0.00    +0.000 A 
ATOM     20  C   UNL     1       8.146   9.231  18.045  0.00  0.00    +0.000 A 
ATOM     21  N   UNL     1       8.705   8.538  19.089  0.00  0.00    +0.000 NA
ATOM     22  N   UNL     1       8.498   7.244  18.887  0.00  0.00    +0.000 NA
BRANCH  20  23
ATOM     23  C   UNL     1       8.161  10.713  18.013  0.00  0.00    +0.000 C 
BRANCH  23  24
ATOM     24  C   UNL     1       9.451  11.155  18.657  0.00  0.00    +0.000 A 
ATOM     25  C   UNL     1       9.507  11.439  20.032  0.00  0.00    +0.000 A 
ATOM     26  C   UNL     1      10.712  11.811  20.631  0.00  0.00    +0.000 A 
ATOM     27  C   UNL     1      11.875  11.899  19.869  0.00  0.00    +0.000 A 
ATOM     28  C   UNL     1      11.831  11.629  18.501  0.00  0.00    +0.000 A 
ATOM     29  C   UNL     1      10.627  11.264  17.900  0.00  0.00    +0.000 A 
ENDBRANCH  23  24
ENDBRANCH  20  23
ENDBRANCH   6  18
TORSDOF 4
ENDMDL
MODEL 3
REMARK VINA RESULT:      -7.9      4.616     10.326
REMARK  Name = 
REMARK  4 active torsions:
REMARK  status: ('A' for Active; 'I' for Inactive)
REMARK    1  A    between atoms: C_5  and  C_6
REMARK    2  A    between atoms: C_11  and  N_12
REMARK    3  A    between atoms: C_14  and  C_15
REMARK    4  A    between atoms: C_15  and  C_16
REMARK                            x       y       z     vdW  Elec       q    Type
REMARK                         _______ _______ _______ _____ _____    ______ ____
ROOT
ATOM      1  C   UNL     1      -0.883  13.080  21.285  0.00  0.00    +0.000 C 
ATOM      2  O   UNL     1      -0.194  14.047  21.617  0.00  0.00    +0.000 OA
ATOM      3  N   UNL     1      -0.402  12.108  20.388  0.00  0.00    +0.000 N 
ATOM      4  C   UNL     1       1.051  12.054  20.203  0.00  0.00    +0.000 C 
ATOM      5  C   UNL     1       1.440  11.663  18.782  0.00  0.00    +0.000 C 
ATOM      6  C   UNL     1       0.757  10.371  18.329  0.00  0.00    +0.000 C 
ATOM      7  C   UNL     1      -0.756  10.475  18.526  0.00  0.00    +0.000 C 
ATOM      8  C   UNL     1      -1.152  10.945  19.920  0.00  0.00    +0.000 C 
ENDROOT
BRANCH   1  13
ATOM      9  N   UNL     1      -5.916  12.565  23.776  0.00  0.00    +0.000 N 
ATOM     10  C   UNL     1      -4.699  12.712  23.118  0.00  0.00    +0.000 A 
ATOM     11  C   UNL     1      -4.629  13.427  21.934  0.00  0.00    +0.000 A 
ATOM     12  C   UNL     1      -3.401  13.535  21.279  0.00  0.00    +0.000 A 
ATOM     13  C   UNL     1      -2.250  13.020  21.872  0.00  0.00    +0.000 A 
ATOM     14  C   UNL     1      -2.426  12.318  23.062  0.00  0.00    +0.000 A 
ATOM     15  N   UNL     1      -3.621  12.157  23.692  0.00  0.00    +0.000 NA
ATOM     16  H   UNL     1      -6.635  12.217  23.153  0.00  0.00    +0.000 HD
ATOM     17  H   UNL     1      -5.755  11.938  24.559  0.00  0.00    +0.000 HD
ENDBRANCH   1  13
BRANCH   6  18
ATOM     18  N   UNL     1       1.358   9.183  18.917  0.00  0.00    +0.000 N 
ATOM     19  C   UNL     1       2.157   8.266  18.293  0.00  0.00    +0.000 A 
ATOM     20  C   UNL     1       2.454   7.350  19.279  0.00  0.00    +0.000 A 
ATOM     21  N   UNL     1       1.845   7.741  20.444  0.00  0.00    +0.000 NA
ATOM     22  N   UNL     1       1.178   8.862  20.209  0.00  0.00    +0.000 NA
BRANCH  20  23
ATOM     23  C   UNL     1       3.328   6.154  19.235  0.00  0.00    +0.000 C 
BRANCH  23  24
ATOM     24  C   UNL     1       2.430   4.946  19.342  0.00  0.00    +0.000 A 
ATOM     25  C   UNL     1       1.986   4.277  18.190  0.00  0.00    +0.000 A 
ATOM     26  C   UNL     1       1.186   3.137  18.296  0.00  0.00    +0.000 A 
ATOM     27  C   UNL     1       0.825   2.650  19.550  0.00  0.00    +0.000 A 
ATOM     28  C   UNL     1       1.252   3.310  20.701  0.00  0.00    +0.000 A 
ATOM     29  C   UNL     1       2.045   4.452  20.598  0.00  0.00    +0.000 A 
ENDBRANCH  23  24
ENDBRANCH  20  23
ENDBRANCH   6  18
TORSDOF 4
ENDMDL
MODEL 4
REMARK VINA RESULT:      -7.8      2.288      8.923
REMARK  Name = 
REMARK  4 active torsions:
REMARK  status: ('A' for Active; 'I' for Inactive)
REMARK    1  A    between atoms: C_5  and  C_6
REMARK    2  A    between atoms: C_11  and  N_12
REMARK    3  A    between atoms: C_14  and  C_15
REMARK    4  A    between atoms: C_15  and  C_16
REMARK                            x       y       z     vdW  Elec       q    Type
REMARK                         _______ _______ _______ _____ _____    ______ ____
ROOT
ATOM      1  C   UNL     1       2.379   5.722  18.034  0.00  0.00    +0.000 C 
ATOM      2  O   UNL     1       1.437   4.958  17.813  0.00  0.00    +0.000 OA
ATOM      3  N   UNL     1       3.704   5.366  17.720  0.00  0.00    +0.000 N 
ATOM      4  C   UNL     1       3.875   4.273  16.759  0.00  0.00    +0.000 C 
ATOM      5  C   UNL     1       5.108   3.428  17.055  0.00  0.00    +0.000 C 
ATOM      6  C   UNL     1       6.374   4.276  17.187  0.00  0.00    +0.000 C 
ATOM      7  C   UNL     1       6.158   5.395  18.207  0.00  0.00    +0.000 C 
ATOM      8  C   UNL     1       4.883   6.193  17.966  0.00  0.00    +0.000 C 
ENDROOT
BRANCH   1  13
ATOM      9  N   UNL     1       0.983  10.438  20.793  0.00  0.00    +0.000 N 
ATOM     10  C   UNL     1       1.317   9.300  20.066  0.00  0.00    +0.000 A 
ATOM     11  C   UNL     1       1.473   9.371  18.691  0.00  0.00    +0.000 A 
ATOM     12  C   UNL     1       1.781   8.209  17.983  0.00  0.00    +0.000 A 
ATOM     13  C   UNL     1       2.030   7.023  18.669  0.00  0.00    +0.000 A 
ATOM     14  C   UNL     1       1.847   7.054  20.050  0.00  0.00    +0.000 A 
ATOM     15  N   UNL     1       1.498   8.163  20.756  0.00  0.00    +0.000 NA
ATOM     16  H   UNL     1       0.169  10.900  20.406  0.00  0.00    +0.000 HD
ATOM     17  H   UNL     1       0.832  10.142  21.753  0.00  0.00    +0.000 HD
ENDBRANCH   1  13
BRANCH   6  18
ATOM     18  N   UNL     1       6.882   4.729  15.900  0.00  0.00    +0.000 N 
ATOM     19  C   UNL     1       6.718   4.120  14.686  0.00  0.00    +0.000 A 
ATOM     20  C   UNL     1       7.384   4.942  13.803  0.00  0.00    +0.000 A 
ATOM     21  N   UNL     1       7.910   6.003  14.496  0.00  0.00    +0.000 NA
ATOM     22  N   UNL     1       7.596   5.860  15.775  0.00  0.00    +0.000 NA
BRANCH  20  23
ATOM     23  C   UNL     1       7.517   4.847  12.329  0.00  0.00    +0.000 C 
BRANCH  23  24
ATOM     24  C   UNL     1       6.810   3.585  11.903  0.00  0.00    +0.000 A 
ATOM     25  C   UNL     1       5.407   3.512  11.903  0.00  0.00    +0.000 A 
ATOM     26  C   UNL     1       4.757   2.354  11.471  0.00  0.00    +0.000 A 
ATOM     27  C   UNL     1       5.496   1.259  11.031  0.00  0.00    +0.000 A 
ATOM     28  C   UNL     1       6.890   1.315  11.035  0.00  0.00    +0.000 A 
ATOM     29  C   UNL     1       7.541   2.467  11.473  0.00  0.00    +0.000 A 
ENDBRANCH  23  24
ENDBRANCH  20  23
ENDBRANCH   6  18
TORSDOF 4
ENDMDL
MODEL 5
REMARK VINA RESULT:      -7.8      0.989      1.213
REMARK  Name = 
REMARK  4 active torsions:
REMARK  status: ('A' for Active; 'I' for Inactive)
REMARK    1  A    between atoms: C_5  and  C_6
REMARK    2  A    between atoms: C_11  and  N_12
REMARK    3  A    between atoms: C_14  and  C_15
REMARK    4  A    between atoms: C_15  and  C_16
REMARK                            x       y       z     vdW  Elec       q    Type
REMARK                         _______ _______ _______ _____ _____    ______ ____
ROOT
ATOM      1  C   UNL     1       6.212   4.556  17.467  0.00  0.00    +0.000 C 
ATOM      2  O   UNL     1       7.176   4.317  18.196  0.00  0.00    +0.000 OA
ATOM      3  N   UNL     1       4.945   4.861  17.999  0.00  0.00    +0.000 N 
ATOM      4  C   UNL     1       4.913   5.294  19.399  0.00  0.00    +0.000 C 
ATOM      5  C   UNL     1       3.652   4.834  20.120  0.00  0.00    +0.000 C 
ATOM      6  C   UNL     1       2.378   5.230  19.369  0.00  0.00    +0.000 C 
ATOM      7  C   UNL     1       2.447   4.749  17.919  0.00  0.00    +0.000 C 
ATOM      8  C   UNL     1       3.742   5.134  17.216  0.00  0.00    +0.000 C 
ENDROOT
BRANCH   1  13
ATOM      9  N   UNL     1       7.399   4.620  11.954  0.00  0.00    +0.000 N 
ATOM     10  C   UNL     1       7.064   4.573  13.304  0.00  0.00    +0.000 A 
ATOM     11  C   UNL     1       6.105   3.680  13.753  0.00  0.00    +0.000 A 
ATOM     12  C   UNL     1       5.767   3.672  15.107  0.00  0.00    +0.000 A 
ATOM     13  C   UNL     1       6.465   4.480  16.001  0.00  0.00    +0.000 A 
ATOM     14  C   UNL     1       7.411   5.344  15.451  0.00  0.00    +0.000 A 
ATOM     15  N   UNL     1       7.721   5.403  14.128  0.00  0.00    +0.000 NA
ATOM     16  H   UNL     1       6.577   4.719  11.371  0.00  0.00    +0.000 HD
ATOM     17  H   UNL     1       8.044   5.397  11.837  0.00  0.00    +0.000 HD
ENDBRANCH   1  13
BRANCH   6  18
ATOM     18  N   UNL     1       2.057   6.642  19.518  0.00  0.00    +0.000 N 
ATOM     19  C   UNL     1       1.518   7.257  20.614  0.00  0.00    +0.000 A 
ATOM     20  C   UNL     1       1.414   8.580  20.242  0.00  0.00    +0.000 A 
ATOM     21  N   UNL     1       1.892   8.720  18.964  0.00  0.00    +0.000 NA
ATOM     22  N   UNL     1       2.281   7.529  18.533  0.00  0.00    +0.000 NA
BRANCH  20  23
ATOM     23  C   UNL     1       0.955   9.754  21.022  0.00  0.00    +0.000 C 
BRANCH  23  24
ATOM     24  C   UNL     1       0.242  10.672  20.061  0.00  0.00    +0.000 A 
ATOM     25  C   UNL     1       0.781  11.926  19.731  0.00  0.00    +0.000 A 
ATOM     26  C   UNL     1       0.136  12.755  18.811  0.00  0.00    +0.000 A 
ATOM     27  C   UNL     1      -1.049  12.342  18.207  0.00  0.00    +0.000 A 
ATOM     28  C   UNL     1      -1.600  11.103  18.533  0.00  0.00    +0.000 A 
ATOM     29  C   UNL     1      -0.962  10.276  19.456  0.00  0.00    +0.000 A 
ENDBRANCH  23  24
ENDBRANCH  20  23
ENDBRANCH   6  18
TORSDOF 4
ENDMDL
MODEL 6
REMARK VINA RESULT:      -7.8      4.679     10.461
REMARK  Name = 
REMARK  4 active torsions:
REMARK  status: ('A' for Active; 'I' for Inactive)
REMARK    1  A    between atoms: C_5  and  C_6
REMARK    2  A    between atoms: C_11  and  N_12
REMARK    3  A    between atoms: C_14  and  C_15
REMARK    4  A    between atoms: C_15  and  C_16
REMARK                            x       y       z     vdW  Elec       q    Type
REMARK                         _______ _______ _______ _____ _____    ______ ____
ROOT
ATOM      1  C   UNL     1      -0.640  13.198  21.693  0.00  0.00    +0.000 C 
ATOM      2  O   UNL     1       0.107  14.132  21.993  0.00  0.00    +0.000 OA
ATOM      3  N   UNL     1      -0.269  12.238  20.733  0.00  0.00    +0.000 N 
ATOM      4  C   UNL     1       1.161  12.142  20.426  0.00  0.00    +0.000 C 
ATOM      5  C   UNL     1       1.418  11.782  18.968  0.00  0.00    +0.000 C 
ATOM      6  C   UNL     1       0.656  10.527  18.538  0.00  0.00    +0.000 C 
ATOM      7  C   UNL     1      -0.831  10.674  18.863  0.00  0.00    +0.000 C 
ATOM      8  C   UNL     1      -1.095  11.115  20.297  0.00  0.00    +0.000 C 
ENDROOT
BRANCH   1  13
ATOM      9  N   UNL     1      -5.695  13.458  24.180  0.00  0.00    +0.000 N 
ATOM     10  C   UNL     1      -4.434  13.355  23.601  0.00  0.00    +0.000 A 
ATOM     11  C   UNL     1      -3.595  12.305  23.938  0.00  0.00    +0.000 A 
ATOM     12  C   UNL     1      -2.325  12.241  23.364  0.00  0.00    +0.000 A 
ATOM     13  C   UNL     1      -1.957  13.165  22.389  0.00  0.00    +0.000 A 
ATOM     14  C   UNL     1      -2.869  14.183  22.121  0.00  0.00    +0.000 A 
ATOM     15  N   UNL     1      -4.093  14.293  22.705  0.00  0.00    +0.000 NA
ATOM     16  H   UNL     1      -5.645  13.404  25.191  0.00  0.00    +0.000 HD
ATOM     17  H   UNL     1      -6.094  14.338  23.866  0.00  0.00    +0.000 HD
ENDBRANCH   1  13
BRANCH   6  18
ATOM     18  N   UNL     1       1.261   9.303  19.042  0.00  0.00    +0.000 N 
ATOM     19  C   UNL     1       2.070   8.439  18.357  0.00  0.00    +0.000 A 
ATOM     20  C   UNL     1       2.367   7.455  19.276  0.00  0.00    +0.000 A 
ATOM     21  N   UNL     1       1.749   7.756  20.463  0.00  0.00    +0.000 NA
ATOM     22  N   UNL     1       1.076   8.887  20.306  0.00  0.00    +0.000 NA
BRANCH  20  23
ATOM     23  C   UNL     1       3.250   6.270  19.150  0.00  0.00    +0.000 C 
BRANCH  23  24
ATOM     24  C   UNL     1       2.375   5.051  19.301  0.00  0.00    +0.000 A 
ATOM     25  C   UNL     1       1.838   4.408  18.174  0.00  0.00    +0.000 A 
ATOM     26  C   UNL     1       1.060   3.257  18.316  0.00  0.00    +0.000 A 
ATOM     27  C   UNL     1       0.814   2.731  19.582  0.00  0.00    +0.000 A 
ATOM     28  C   UNL     1       1.335   3.364  20.711  0.00  0.00    +0.000 A 
ATOM     29  C   UNL     1       2.105   4.518  20.571  0.00  0.00    +0.000 A 
ENDBRANCH  23  24
ENDBRANCH  20  23
ENDBRANCH   6  18
TORSDOF 4
ENDMDL
MODEL 7
REMARK VINA RESULT:      -7.7      4.885      8.048
REMARK  Name = 
REMARK  4 active torsions:
REMARK  status: ('A' for Active; 'I' for Inactive)
REMARK    1  A    between atoms: C_5  and  C_6
REMARK    2  A    between atoms: C_11  and  N_12
REMARK    3  A    between atoms: C_14  and  C_15
REMARK    4  A    between atoms: C_15  and  C_16
REMARK                            x       y       z     vdW  Elec       q    Type
REMARK                         _______ _______ _______ _____ _____    ______ ____
ROOT
ATOM      1  C   UNL     1       3.553   4.886  17.893  0.00  0.00    +0.000 C 
ATOM      2  O   UNL     1       2.824   4.923  16.900  0.00  0.00    +0.000 OA
ATOM      3  N   UNL     1       4.888   5.328  17.842  0.00  0.00    +0.000 N 
ATOM      4  C   UNL     1       5.243   6.204  16.722  0.00  0.00    +0.000 C 
ATOM      5  C   UNL     1       6.675   5.987  16.247  0.00  0.00    +0.000 C 
ATOM      6  C   UNL     1       7.686   6.086  17.392  0.00  0.00    +0.000 C 
ATOM      7  C   UNL     1       7.286   5.148  18.533  0.00  0.00    +0.000 C 
ATOM      8  C   UNL     1       5.831   5.300  18.958  0.00  0.00    +0.000 C 
ENDROOT
BRANCH   1  13
ATOM      9  N   UNL     1       1.288   2.395  22.417  0.00  0.00    +0.000 N 
ATOM     10  C   UNL     1       1.823   3.055  21.315  0.00  0.00    +0.000 A 
ATOM     11  C   UNL     1       1.729   4.434  21.215  0.00  0.00    +0.000 A 
ATOM     12  C   UNL     1       2.248   5.069  20.087  0.00  0.00    +0.000 A 
ATOM     13  C   UNL     1       2.942   4.329  19.132  0.00  0.00    +0.000 A 
ATOM     14  C   UNL     1       2.981   2.949  19.322  0.00  0.00    +0.000 A 
ATOM     15  N   UNL     1       2.438   2.304  20.390  0.00  0.00    +0.000 NA
ATOM     16  H   UNL     1       0.323   2.659  22.576  0.00  0.00    +0.000 HD
ATOM     17  H   UNL     1       1.386   1.399  22.241  0.00  0.00    +0.000 HD
ENDBRANCH   1  13
BRANCH   6  18
ATOM     18  N   UNL     1       7.933   7.459  17.805  0.00  0.00    +0.000 N 
ATOM     19  C   UNL     1       8.651   7.880  18.891  0.00  0.00    +0.000 A 
ATOM     20  C   UNL     1       8.580   9.256  18.830  0.00  0.00    +0.000 A 
ATOM     21  N   UNL     1       7.846   9.613  17.728  0.00  0.00    +0.000 NA
ATOM     22  N   UNL     1       7.456   8.507  17.111  0.00  0.00    +0.000 NA
BRANCH  20  23
ATOM     23  C   UNL     1       9.209  10.280  19.698  0.00  0.00    +0.000 C 
BRANCH  23  24
ATOM     24  C   UNL     1       9.736  11.363  18.791  0.00  0.00    +0.000 A 
ATOM     25  C   UNL     1       8.997  12.537  18.568  0.00  0.00    +0.000 A 
ATOM     26  C   UNL     1       9.507  13.554  17.758  0.00  0.00    +0.000 A 
ATOM     27  C   UNL     1      10.760  13.415  17.166  0.00  0.00    +0.000 A 
ATOM     28  C   UNL     1      11.500  12.251  17.372  0.00  0.00    +0.000 A 
ATOM     29  C   UNL     1      10.990  11.231  18.174  0.00  0.00    +0.000 A 
ENDBRANCH  23  24
ENDBRANCH  20  23
ENDBRANCH   6  18
TORSDOF 4
ENDMDL
MODEL 8
REMARK VINA RESULT:      -7.7      3.618      5.421
REMARK  Name = 
REMARK  4 active torsions:
REMARK  status: ('A' for Active; 'I' for Inactive)
REMARK    1  A    between atoms: C_5  and  C_6
REMARK    2  A    between atoms: C_11  and  N_12
REMARK    3  A    between atoms: C_14  and  C_15
REMARK    4  A    between atoms: C_15  and  C_16
REMARK                            x       y       z     vdW  Elec       q    Type
REMARK                         _______ _______ _______ _____ _____    ______ ____
ROOT
ATOM      1  C   UNL     1       2.172   6.637  19.904  0.00  0.00    +0.000 C 
ATOM      2  O   UNL     1       1.762   6.032  20.896  0.00  0.00    +0.000 OA
ATOM      3  N   UNL     1       1.732   7.940  19.605  0.00  0.00    +0.000 N 
ATOM      4  C   UNL     1       1.121   8.692  20.705  0.00  0.00    +0.000 C 
ATOM      5  C   UNL     1       0.011   9.620  20.228  0.00  0.00    +0.000 C 
ATOM      6  C   UNL     1       0.472  10.539  19.094  0.00  0.00    +0.000 C 
ATOM      7  C   UNL     1       1.089   9.716  17.963  0.00  0.00    +0.000 C 
ATOM      8  C   UNL     1       2.143   8.725  18.442  0.00  0.00    +0.000 C 
ENDROOT
BRANCH   1  13
ATOM      9  N   UNL     1       6.132   4.038  16.844  0.00  0.00    +0.000 N 
ATOM     10  C   UNL     1       5.120   4.670  17.560  0.00  0.00    +0.000 A 
ATOM     11  C   UNL     1       3.804   4.574  17.139  0.00  0.00    +0.000 A 
ATOM     12  C   UNL     1       2.811   5.240  17.858  0.00  0.00    +0.000 A 
ATOM     13  C   UNL     1       3.136   5.901  19.040  0.00  0.00    +0.000 A 
ATOM     14  C   UNL     1       4.487   5.942  19.378  0.00  0.00    +0.000 A 
ATOM     15  N   UNL     1       5.477   5.342  18.665  0.00  0.00    +0.000 NA
ATOM     16  H   UNL     1       6.096   4.278  15.861  0.00  0.00    +0.000 HD
ATOM     17  H   UNL     1       7.012   4.314  17.271  0.00  0.00    +0.000 HD
ENDBRANCH   1  13
BRANCH   6  18
ATOM     18  N   UNL     1       1.308  11.633  19.565  0.00  0.00    +0.000 N 
ATOM     19  C   UNL     1       2.137  12.421  18.815  0.00  0.00    +0.000 A 
ATOM     20  C   UNL     1       2.693  13.292  19.729  0.00  0.00    +0.000 A 
ATOM     21  N   UNL     1       2.185  13.013  20.972  0.00  0.00    +0.000 NA
ATOM     22  N   UNL     1       1.341  11.997  20.858  0.00  0.00    +0.000 NA
BRANCH  20  23
ATOM     23  C   UNL     1       3.627  14.424  19.518  0.00  0.00    +0.000 C 
BRANCH  23  24
ATOM     24  C   UNL     1       2.859  15.500  18.791  0.00  0.00    +0.000 A 
ATOM     25  C   UNL     1       1.652  15.996  19.310  0.00  0.00    +0.000 A 
ATOM     26  C   UNL     1       0.965  17.019  18.653  0.00  0.00    +0.000 A 
ATOM     27  C   UNL     1       1.476  17.562  17.476  0.00  0.00    +0.000 A 
ATOM     28  C   UNL     1       2.669  17.071  16.946  0.00  0.00    +0.000 A 
ATOM     29  C   UNL     1       3.353  16.045  17.596  0.00  0.00    +0.000 A 
ENDBRANCH  23  24
ENDBRANCH  20  23
ENDBRANCH   6  18
TORSDOF 4
ENDMDL
MODEL 9
REMARK VINA RESULT:      -7.6      4.698     10.214
REMARK  Name = 
REMARK  4 active torsions:
REMARK  status: ('A' for Active; 'I' for Inactive)
REMARK    1  A    between atoms: C_5  and  C_6
REMARK    2  A    between atoms: C_11  and  N_12
REMARK    3  A    between atoms: C_14  and  C_15
REMARK    4  A    between atoms: C_15  and  C_16
REMARK                            x       y       z     vdW  Elec       q    Type
REMARK                         _______ _______ _______ _____ _____    ______ ____
ROOT
ATOM      1  C   UNL     1      -1.684  12.852  20.355  0.00  0.00    +0.000 C 
ATOM      2  O   UNL     1      -1.176  13.883  20.801  0.00  0.00    +0.000 OA
ATOM      3  N   UNL     1      -0.915  11.888  19.677  0.00  0.00    +0.000 N 
ATOM      4  C   UNL     1       0.534  11.942  19.889  0.00  0.00    +0.000 C 
ATOM      5  C   UNL     1       1.318  11.530  18.649  0.00  0.00    +0.000 C 
ATOM      6  C   UNL     1       0.870  10.170  18.107  0.00  0.00    +0.000 C 
ATOM      7  C   UNL     1      -0.643  10.161  17.887  0.00  0.00    +0.000 C 
ATOM      8  C   UNL     1      -1.432  10.651  19.095  0.00  0.00    +0.000 C 
ENDROOT
BRANCH   1  13
ATOM      9  N   UNL     1      -7.164  12.230  21.529  0.00  0.00    +0.000 N 
ATOM     10  C   UNL     1      -5.823  12.372  21.189  0.00  0.00    +0.000 A 
ATOM     11  C   UNL     1      -5.443  12.415  19.857  0.00  0.00    +0.000 A 
ATOM     12  C   UNL     1      -4.089  12.529  19.541  0.00  0.00    +0.000 A 
ATOM     13  C   UNL     1      -3.152  12.706  20.557  0.00  0.00    +0.000 A 
ATOM     14  C   UNL     1      -3.633  12.648  21.864  0.00  0.00    +0.000 A 
ATOM     15  N   UNL     1      -4.943  12.486  22.195  0.00  0.00    +0.000 NA
ATOM     16  H   UNL     1      -7.586  11.441  21.055  0.00  0.00    +0.000 HD
ATOM     17  H   UNL     1      -7.203  12.131  22.540  0.00  0.00    +0.000 HD
ENDBRANCH   1  13
BRANCH   6  18
ATOM     18  N   UNL     1       1.367   9.058  18.902  0.00  0.00    +0.000 N 
ATOM     19  C   UNL     1       2.220   8.068  18.498  0.00  0.00    +0.000 A 
ATOM     20  C   UNL     1       2.371   7.275  19.615  0.00  0.00    +0.000 A 
ATOM     21  N   UNL     1       1.627   7.805  20.639  0.00  0.00    +0.000 NA
ATOM     22  N   UNL     1       1.019   8.894  20.190  0.00  0.00    +0.000 NA
BRANCH  20  23
ATOM     23  C   UNL     1       3.219   6.077  19.824  0.00  0.00    +0.000 C 
BRANCH  23  24
ATOM     24  C   UNL     1       2.329   4.871  19.653  0.00  0.00    +0.000 A 
ATOM     25  C   UNL     1       2.018   4.383  18.373  0.00  0.00    +0.000 A 
ATOM     26  C   UNL     1       1.225   3.244  18.221  0.00  0.00    +0.000 A 
ATOM     27  C   UNL     1       0.739   2.576  19.342  0.00  0.00    +0.000 A 
ATOM     28  C   UNL     1       1.033   3.055  20.619  0.00  0.00    +0.000 A 
ATOM     29  C   UNL     1       1.817   4.197  20.773  0.00  0.00    +0.000 A 
ENDBRANCH  23  24
ENDBRANCH  20  23
ENDBRANCH   6  18
TORSDOF 4
ENDMDL
