MODEL 1
REMARK VINA RESULT:      -6.2      0.000      0.000
REMARK  Name = 
REMARK  15 active torsions:
REMARK  status: ('A' for Active; 'I' for Inactive)
REMARK    1  A    between atoms: C_1  and  N_2
REMARK    2  A    between atoms: C_3  and  N_4
REMARK    3  A    between atoms: C_9  and  S_10
REMARK    4  A    between atoms: S_10  and  C_12
REMARK    5  A    between atoms: C_12  and  C_13
REMARK    6  A    between atoms: C_13  and  C_14
REMARK    7  A    between atoms: C_14  and  C_15
REMARK    8  A    between atoms: C_15  and  C_16
REMARK    9  A    between atoms: C_16  and  C_17
REMARK   10  A    between atoms: C_17  and  C_18
REMARK   11  A    between atoms: C_18  and  C_19
REMARK   12  A    between atoms: C_19  and  C_20
REMARK   13  A    between atoms: C_20  and  C_21
REMARK   14  A    between atoms: C_21  and  C_22
REMARK   15  A    between atoms: C_22  and  O_24
REMARK                            x       y       z     vdW  Elec       q    Type
REMARK                         _______ _______ _______ _____ _____    ______ ____
ROOT
ATOM      1  C   UNL     1       6.418   5.396  18.980  0.00  0.00    +0.000 C 
ENDROOT
BRANCH   1   2
ATOM      2  C   UNL     1       6.011   4.671  17.694  0.00  0.00    +0.000 C 
BRANCH   2   3
ATOM      3  S   UNL     1       4.390   5.253  17.097  0.00  0.00    +0.000 S 
ATOM      4  O   UNL     1       4.445   6.801  16.842  0.00  0.00    +0.000 OA
BRANCH   3  10
ATOM      5  C   UNL     1       3.423   2.484  18.540  0.00  0.00    +0.000 C 
ATOM      6  N   UNL     1       3.100   3.768  19.121  0.00  0.00    +0.000 N 
ATOM      7  C   UNL     1       2.439   4.062  20.293  0.00  0.00    +0.000 A 
ATOM      8  C   UNL     1       2.417   5.433  20.383  0.00  0.00    +0.000 A 
ATOM      9  N   UNL     1       3.049   5.998  19.310  0.00  0.00    +0.000 NA
ATOM     10  C   UNL     1       3.452   4.991  18.556  0.00  0.00    +0.000 A 
BRANCH   7  11
ATOM     11  N   UNL     1       1.892   3.152  21.242  0.00  0.00    +0.000 N 
ATOM     12  O   UNL     1       2.539   2.896  22.259  0.00  0.00    +0.000 OA
ATOM     13  O   UNL     1       0.780   2.685  20.971  0.00  0.00    +0.000 OA
ENDBRANCH   7  11
ENDBRANCH   3  10
ENDBRANCH   2   3
ENDBRANCH   1   2
BRANCH   1  14
ATOM     14  C   UNL     1       7.686   6.233  18.773  0.00  0.00    +0.000 C 
BRANCH  14  15
ATOM     15  C   UNL     1       7.677   6.953  17.422  0.00  0.00    +0.000 C 
BRANCH  15  16
ATOM     16  C   UNL     1       7.603   8.475  17.594  0.00  0.00    +0.000 C 
BRANCH  16  17
ATOM     17  C   UNL     1       8.621   8.965  18.628  0.00  0.00    +0.000 C 
BRANCH  17  18
ATOM     18  C   UNL     1       9.078  10.392  18.329  0.00  0.00    +0.000 C 
BRANCH  18  19
ATOM     19  C   UNL     1       9.910  10.968  19.478  0.00  0.00    +0.000 C 
BRANCH  19  20
ATOM     20  C   UNL     1      10.993  11.908  18.950  0.00  0.00    +0.000 C 
BRANCH  20  21
ATOM     21  C   UNL     1      10.451  12.856  17.882  0.00  0.00    +0.000 C 
BRANCH  21  22
ATOM     22  C   UNL     1      11.446  13.947  17.556  0.00  0.00    +0.000 C 
ATOM     23  O   UNL     1      12.316  13.880  16.703  0.00  0.00    +0.000 OA
BRANCH  22  24
ATOM     24  O   UNL     1      11.277  15.046  18.326  0.00  0.00    +0.000 OA
ATOM     25  H   UNL     1      10.641  15.692  17.958  0.00  0.00    +0.000 HD
ENDBRANCH  22  24
ENDBRANCH  21  22
ENDBRANCH  20  21
ENDBRANCH  19  20
ENDBRANCH  18  19
ENDBRANCH  17  18
ENDBRANCH  16  17
ENDBRANCH  15  16
ENDBRANCH  14  15
ENDBRANCH   1  14
TORSDOF 14
ENDMDL
MODEL 2
REMARK VINA RESULT:      -6.2      5.256      9.117
REMARK  Name = 
REMARK  15 active torsions:
REMARK  status: ('A' for Active; 'I' for Inactive)
REMARK    1  A    between atoms: C_1  and  N_2
REMARK    2  A    between atoms: C_3  and  N_4
REMARK    3  A    between atoms: C_9  and  S_10
REMARK    4  A    between atoms: S_10  and  C_12
REMARK    5  A    between atoms: C_12  and  C_13
REMARK    6  A    between atoms: C_13  and  C_14
REMARK    7  A    between atoms: C_14  and  C_15
REMARK    8  A    between atoms: C_15  and  C_16
REMARK    9  A    between atoms: C_16  and  C_17
REMARK   10  A    between atoms: C_17  and  C_18
REMARK   11  A    between atoms: C_18  and  C_19
REMARK   12  A    between atoms: C_19  and  C_20
REMARK   13  A    between atoms: C_20  and  C_21
REMARK   14  A    between atoms: C_21  and  C_22
REMARK   15  A    between atoms: C_22  and  O_24
REMARK                            x       y       z     vdW  Elec       q    Type
REMARK                         _______ _______ _______ _____ _____    ______ ____
ROOT
ATOM      1  C   UNL     1       5.412   7.066  17.501  0.00  0.00    +0.000 C 
ENDROOT
BRANCH   1   2
ATOM      2  C   UNL     1       6.877   6.627  17.457  0.00  0.00    +0.000 C 
BRANCH   2   3
ATOM      3  S   UNL     1       7.015   4.811  17.361  0.00  0.00    +0.000 S 
ATOM      4  O   UNL     1       8.439   4.363  17.847  0.00  0.00    +0.000 OA
BRANCH   3  10
ATOM      5  C   UNL     1       5.275   2.780  15.481  0.00  0.00    +0.000 C 
ATOM      6  N   UNL     1       6.174   3.744  14.888  0.00  0.00    +0.000 N 
ATOM      7  C   UNL     1       6.423   4.015  13.560  0.00  0.00    +0.000 A 
ATOM      8  C   UNL     1       7.347   5.032  13.546  0.00  0.00    +0.000 A 
ATOM      9  N   UNL     1       7.674   5.405  14.819  0.00  0.00    +0.000 NA
ATOM     10  C   UNL     1       6.968   4.625  15.618  0.00  0.00    +0.000 A 
BRANCH   7  11
ATOM     11  N   UNL     1       5.845   3.392  12.417  0.00  0.00    +0.000 N 
ATOM     12  O   UNL     1       4.655   3.596  12.170  0.00  0.00    +0.000 OA
ATOM     13  O   UNL     1       6.601   2.687  11.739  0.00  0.00    +0.000 OA
ENDBRANCH   7  11
ENDBRANCH   3  10
ENDBRANCH   2   3
ENDBRANCH   1   2
BRANCH   1  14
ATOM     14  C   UNL     1       4.477   5.871  17.727  0.00  0.00    +0.000 C 
BRANCH  14  15
ATOM     15  C   UNL     1       4.117   5.704  19.206  0.00  0.00    +0.000 C 
BRANCH  15  16
ATOM     16  C   UNL     1       2.908   6.563  19.595  0.00  0.00    +0.000 C 
BRANCH  16  17
ATOM     17  C   UNL     1       1.784   5.704  20.182  0.00  0.00    +0.000 C 
BRANCH  17  18
ATOM     18  C   UNL     1       2.328   4.676  21.174  0.00  0.00    +0.000 C 
BRANCH  18  19
ATOM     19  C   UNL     1       2.052   3.245  20.706  0.00  0.00    +0.000 C 
BRANCH  19  20
ATOM     20  C   UNL     1       0.727   3.164  19.949  0.00  0.00    +0.000 C 
BRANCH  20  21
ATOM     21  C   UNL     1       0.813   2.223  18.750  0.00  0.00    +0.000 C 
BRANCH  21  22
ATOM     22  C   UNL     1       2.051   2.491  17.925  0.00  0.00    +0.000 C 
ATOM     23  O   UNL     1       2.219   3.449  17.190  0.00  0.00    +0.000 OA
BRANCH  22  24
ATOM     24  O   UNL     1       2.994   1.533  18.085  0.00  0.00    +0.000 OA
ATOM     25  H   UNL     1       3.731   1.798  18.670  0.00  0.00    +0.000 HD
ENDBRANCH  22  24
ENDBRANCH  21  22
ENDBRANCH  20  21
ENDBRANCH  19  20
ENDBRANCH  18  19
ENDBRANCH  17  18
ENDBRANCH  16  17
ENDBRANCH  15  16
ENDBRANCH  14  15
ENDBRANCH   1  14
TORSDOF 14
ENDMDL
MODEL 3
REMARK VINA RESULT:      -6.2      5.588      8.602
REMARK  Name = 
REMARK  15 active torsions:
REMARK  status: ('A' for Active; 'I' for Inactive)
REMARK    1  A    between atoms: C_1  and  N_2
REMARK    2  A    between atoms: C_3  and  N_4
REMARK    3  A    between atoms: C_9  and  S_10
REMARK    4  A    between atoms: S_10  and  C_12
REMARK    5  A    between atoms: C_12  and  C_13
REMARK    6  A    between atoms: C_13  and  C_14
REMARK    7  A    between atoms: C_14  and  C_15
REMARK    8  A    between atoms: C_15  and  C_16
REMARK    9  A    between atoms: C_16  and  C_17
REMARK   10  A    between atoms: C_17  and  C_18
REMARK   11  A    between atoms: C_18  and  C_19
REMARK   12  A    between atoms: C_19  and  C_20
REMARK   13  A    between atoms: C_20  and  C_21
REMARK   14  A    between atoms: C_21  and  C_22
REMARK   15  A    between atoms: C_22  and  O_24
REMARK                            x       y       z     vdW  Elec       q    Type
REMARK                         _______ _______ _______ _____ _____    ______ ____
ROOT
ATOM      1  C   UNL     1       1.760   5.607  20.153  0.00  0.00    +0.000 C 
ENDROOT
BRANCH   1   2
ATOM      2  C   UNL     1       2.492   4.680  21.126  0.00  0.00    +0.000 C 
BRANCH   2   3
ATOM      3  S   UNL     1       2.905   3.091  20.332  0.00  0.00    +0.000 S 
ATOM      4  O   UNL     1       3.675   2.177  21.349  0.00  0.00    +0.000 OA
BRANCH   3  10
ATOM      5  C   UNL     1       2.640   3.504  17.100  0.00  0.00    +0.000 C 
ATOM      6  N   UNL     1       3.867   3.839  17.787  0.00  0.00    +0.000 N 
ATOM      7  C   UNL     1       5.031   4.387  17.293  0.00  0.00    +0.000 A 
ATOM      8  C   UNL     1       5.876   4.518  18.369  0.00  0.00    +0.000 A 
ATOM      9  N   UNL     1       5.273   4.078  19.513  0.00  0.00    +0.000 NA
ATOM     10  C   UNL     1       4.069   3.669  19.155  0.00  0.00    +0.000 A 
BRANCH   7  11
ATOM     11  N   UNL     1       5.321   4.761  15.950  0.00  0.00    +0.000 N 
ATOM     12  O   UNL     1       5.796   3.917  15.188  0.00  0.00    +0.000 OA
ATOM     13  O   UNL     1       5.060   5.930  15.641  0.00  0.00    +0.000 OA
ENDBRANCH   7  11
ENDBRANCH   3  10
ENDBRANCH   2   3
ENDBRANCH   1   2
BRANCH   1  14
ATOM     14  C   UNL     1       2.635   6.802  19.753  0.00  0.00    +0.000 C 
BRANCH  14  15
ATOM     15  C   UNL     1       2.516   7.118  18.259  0.00  0.00    +0.000 C 
BRANCH  15  16
ATOM     16  C   UNL     1       2.473   8.630  18.004  0.00  0.00    +0.000 C 
BRANCH  16  17
ATOM     17  C   UNL     1       1.061   9.088  17.627  0.00  0.00    +0.000 C 
BRANCH  17  18
ATOM     18  C   UNL     1       0.422   9.906  18.749  0.00  0.00    +0.000 C 
BRANCH  18  19
ATOM     19  C   UNL     1      -0.834  10.636  18.266  0.00  0.00    +0.000 C 
BRANCH  19  20
ATOM     20  C   UNL     1      -1.671   9.737  17.356  0.00  0.00    +0.000 C 
BRANCH  20  21
ATOM     21  C   UNL     1      -3.164  10.030  17.485  0.00  0.00    +0.000 C 
BRANCH  21  22
ATOM     22  C   UNL     1      -3.667  10.853  16.320  0.00  0.00    +0.000 C 
ATOM     23  O   UNL     1      -3.006  11.187  15.351  0.00  0.00    +0.000 OA
BRANCH  22  24
ATOM     24  O   UNL     1      -4.969  11.196  16.456  0.00  0.00    +0.000 OA
ATOM     25  H   UNL     1      -5.133  12.158  16.389  0.00  0.00    +0.000 HD
ENDBRANCH  22  24
ENDBRANCH  21  22
ENDBRANCH  20  21
ENDBRANCH  19  20
ENDBRANCH  18  19
ENDBRANCH  17  18
ENDBRANCH  16  17
ENDBRANCH  15  16
ENDBRANCH  14  15
ENDBRANCH   1  14
TORSDOF 14
ENDMDL
MODEL 4
REMARK VINA RESULT:      -6.2      5.254      8.876
REMARK  Name = 
REMARK  15 active torsions:
REMARK  status: ('A' for Active; 'I' for Inactive)
REMARK    1  A    between atoms: C_1  and  N_2
REMARK    2  A    between atoms: C_3  and  N_4
REMARK    3  A    between atoms: C_9  and  S_10
REMARK    4  A    between atoms: S_10  and  C_12
REMARK    5  A    between atoms: C_12  and  C_13
REMARK    6  A    between atoms: C_13  and  C_14
REMARK    7  A    between atoms: C_14  and  C_15
REMARK    8  A    between atoms: C_15  and  C_16
REMARK    9  A    between atoms: C_16  and  C_17
REMARK   10  A    between atoms: C_17  and  C_18
REMARK   11  A    between atoms: C_18  and  C_19
REMARK   12  A    between atoms: C_19  and  C_20
REMARK   13  A    between atoms: C_20  and  C_21
REMARK   14  A    between atoms: C_21  and  C_22
REMARK   15  A    between atoms: C_22  and  O_24
REMARK                            x       y       z     vdW  Elec       q    Type
REMARK                         _______ _______ _______ _____ _____    ______ ____
ROOT
ATOM      1  C   UNL     1       5.700   7.196  17.177  0.00  0.00    +0.000 C 
ENDROOT
BRANCH   1   2
ATOM      2  C   UNL     1       7.122   6.629  17.201  0.00  0.00    +0.000 C 
BRANCH   2   3
ATOM      3  S   UNL     1       7.102   4.806  17.167  0.00  0.00    +0.000 S 
ATOM      4  O   UNL     1       8.494   4.253  17.636  0.00  0.00    +0.000 OA
BRANCH   3  10
ATOM      5  C   UNL     1       5.234   2.782  15.406  0.00  0.00    +0.000 C 
ATOM      6  N   UNL     1       6.148   3.693  14.756  0.00  0.00    +0.000 N 
ATOM      7  C   UNL     1       6.365   3.912  13.413  0.00  0.00    +0.000 A 
ATOM      8  C   UNL     1       7.324   4.894  13.338  0.00  0.00    +0.000 A 
ATOM      9  N   UNL     1       7.703   5.295  14.588  0.00  0.00    +0.000 NA
ATOM     10  C   UNL     1       6.995   4.567  15.433  0.00  0.00    +0.000 A 
BRANCH   7  11
ATOM     11  N   UNL     1       5.731   3.276  12.308  0.00  0.00    +0.000 N 
ATOM     12  O   UNL     1       4.562   3.568  12.047  0.00  0.00    +0.000 OA
ATOM     13  O   UNL     1       6.420   2.466  11.676  0.00  0.00    +0.000 OA
ENDBRANCH   7  11
ENDBRANCH   3  10
ENDBRANCH   2   3
ENDBRANCH   1   2
BRANCH   1  14
ATOM     14  C   UNL     1       4.780   6.439  18.144  0.00  0.00    +0.000 C 
BRANCH  14  15
ATOM     15  C   UNL     1       3.302   6.722  17.861  0.00  0.00    +0.000 C 
BRANCH  15  16
ATOM     16  C   UNL     1       2.397   5.625  18.433  0.00  0.00    +0.000 C 
BRANCH  16  17
ATOM     17  C   UNL     1       2.363   5.679  19.964  0.00  0.00    +0.000 C 
BRANCH  17  18
ATOM     18  C   UNL     1       1.177   4.893  20.523  0.00  0.00    +0.000 C 
BRANCH  18  19
ATOM     19  C   UNL     1       1.049   3.521  19.858  0.00  0.00    +0.000 C 
BRANCH  19  20
ATOM     20  C   UNL     1       1.979   2.505  20.520  0.00  0.00    +0.000 C 
BRANCH  20  21
ATOM     21  C   UNL     1       3.063   2.016  19.561  0.00  0.00    +0.000 C 
BRANCH  21  22
ATOM     22  C   UNL     1       4.440   2.432  20.025  0.00  0.00    +0.000 C 
ATOM     23  O   UNL     1       5.101   3.342  19.555  0.00  0.00    +0.000 OA
BRANCH  22  24
ATOM     24  O   UNL     1       4.890   1.672  21.051  0.00  0.00    +0.000 OA
ATOM     25  H   UNL     1       5.663   1.118  20.823  0.00  0.00    +0.000 HD
ENDBRANCH  22  24
ENDBRANCH  21  22
ENDBRANCH  20  21
ENDBRANCH  19  20
ENDBRANCH  18  19
ENDBRANCH  17  18
ENDBRANCH  16  17
ENDBRANCH  15  16
ENDBRANCH  14  15
ENDBRANCH   1  14
TORSDOF 14
ENDMDL
MODEL 5
REMARK VINA RESULT:      -6.0      5.339      8.663
REMARK  Name = 
REMARK  15 active torsions:
REMARK  status: ('A' for Active; 'I' for Inactive)
REMARK    1  A    between atoms: C_1  and  N_2
REMARK    2  A    between atoms: C_3  and  N_4
REMARK    3  A    between atoms: C_9  and  S_10
REMARK    4  A    between atoms: S_10  and  C_12
REMARK    5  A    between atoms: C_12  and  C_13
REMARK    6  A    between atoms: C_13  and  C_14
REMARK    7  A    between atoms: C_14  and  C_15
REMARK    8  A    between atoms: C_15  and  C_16
REMARK    9  A    between atoms: C_16  and  C_17
REMARK   10  A    between atoms: C_17  and  C_18
REMARK   11  A    between atoms: C_18  and  C_19
REMARK   12  A    between atoms: C_19  and  C_20
REMARK   13  A    between atoms: C_20  and  C_21
REMARK   14  A    between atoms: C_21  and  C_22
REMARK   15  A    between atoms: C_22  and  O_24
REMARK                            x       y       z     vdW  Elec       q    Type
REMARK                         _______ _______ _______ _____ _____    ______ ____
ROOT
ATOM      1  C   UNL     1       1.786   5.444  20.774  0.00  0.00    +0.000 C 
ENDROOT
BRANCH   1   2
ATOM      2  C   UNL     1       2.537   4.592  19.748  0.00  0.00    +0.000 C 
BRANCH   2   3
ATOM      3  S   UNL     1       2.187   5.151  18.048  0.00  0.00    +0.000 S 
ATOM      4  O   UNL     1       1.649   3.948  17.196  0.00  0.00    +0.000 OA
BRANCH   3  10
ATOM      5  C   UNL     1       4.661   3.117  17.396  0.00  0.00    +0.000 C 
ATOM      6  N   UNL     1       4.823   4.545  17.244  0.00  0.00    +0.000 N 
ATOM      7  C   UNL     1       5.909   5.265  16.796  0.00  0.00    +0.000 A 
ATOM      8  C   UNL     1       5.530   6.585  16.829  0.00  0.00    +0.000 A 
ATOM      9  N   UNL     1       4.244   6.708  17.275  0.00  0.00    +0.000 NA
ATOM     10  C   UNL     1       3.828   5.479  17.525  0.00  0.00    +0.000 A 
BRANCH   7  11
ATOM     11  N   UNL     1       7.173   4.767  16.368  0.00  0.00    +0.000 N 
ATOM     12  O   UNL     1       7.977   4.382  17.219  0.00  0.00    +0.000 OA
ATOM     13  O   UNL     1       7.367   4.752  15.147  0.00  0.00    +0.000 OA
ENDBRANCH   7  11
ENDBRANCH   3  10
ENDBRANCH   2   3
ENDBRANCH   1   2
BRANCH   1  14
ATOM     14  C   UNL     1       1.943   6.942  20.480  0.00  0.00    +0.000 C 
BRANCH  14  15
ATOM     15  C   UNL     1       0.874   7.775  21.191  0.00  0.00    +0.000 C 
BRANCH  15  16
ATOM     16  C   UNL     1       1.119   9.279  21.013  0.00  0.00    +0.000 C 
BRANCH  16  17
ATOM     17  C   UNL     1       0.792   9.727  19.585  0.00  0.00    +0.000 C 
BRANCH  17  18
ATOM     18  C   UNL     1       0.134  11.106  19.571  0.00  0.00    +0.000 C 
BRANCH  18  19
ATOM     19  C   UNL     1      -1.291  11.042  19.014  0.00  0.00    +0.000 C 
BRANCH  19  20
ATOM     20  C   UNL     1      -1.357  10.129  17.789  0.00  0.00    +0.000 C 
BRANCH  20  21
ATOM     21  C   UNL     1      -2.795   9.889  17.335  0.00  0.00    +0.000 C 
BRANCH  21  22
ATOM     22  C   UNL     1      -3.198  10.854  16.243  0.00  0.00    +0.000 C 
ATOM     23  O   UNL     1      -2.922  10.739  15.060  0.00  0.00    +0.000 OA
BRANCH  22  24
ATOM     24  O   UNL     1      -3.920  11.896  16.715  0.00  0.00    +0.000 OA
ATOM     25  H   UNL     1      -3.413  12.729  16.784  0.00  0.00    +0.000 HD
ENDBRANCH  22  24
ENDBRANCH  21  22
ENDBRANCH  20  21
ENDBRANCH  19  20
ENDBRANCH  18  19
ENDBRANCH  17  18
ENDBRANCH  16  17
ENDBRANCH  15  16
ENDBRANCH  14  15
ENDBRANCH   1  14
TORSDOF 14
ENDMDL
MODEL 6
REMARK VINA RESULT:      -6.0      1.871      2.955
REMARK  Name = 
REMARK  15 active torsions:
REMARK  status: ('A' for Active; 'I' for Inactive)
REMARK    1  A    between atoms: C_1  and  N_2
REMARK    2  A    between atoms: C_3  and  N_4
REMARK    3  A    between atoms: C_9  and  S_10
REMARK    4  A    between atoms: S_10  and  C_12
REMARK    5  A    between atoms: C_12  and  C_13
REMARK    6  A    between atoms: C_13  and  C_14
REMARK    7  A    between atoms: C_14  and  C_15
REMARK    8  A    between atoms: C_15  and  C_16
REMARK    9  A    between atoms: C_16  and  C_17
REMARK   10  A    between atoms: C_17  and  C_18
REMARK   11  A    between atoms: C_18  and  C_19
REMARK   12  A    between atoms: C_19  and  C_20
REMARK   13  A    between atoms: C_20  and  C_21
REMARK   14  A    between atoms: C_21  and  C_22
REMARK   15  A    between atoms: C_22  and  O_24
REMARK                            x       y       z     vdW  Elec       q    Type
REMARK                         _______ _______ _______ _____ _____    ______ ____
ROOT
ATOM      1  C   UNL     1       7.806   7.304  17.644  0.00  0.00    +0.000 C 
ENDROOT
BRANCH   1   2
ATOM      2  C   UNL     1       6.396   6.733  17.814  0.00  0.00    +0.000 C 
BRANCH   2   3
ATOM      3  S   UNL     1       5.855   5.860  16.307  0.00  0.00    +0.000 S 
ATOM      4  O   UNL     1       5.101   6.859  15.359  0.00  0.00    +0.000 OA
BRANCH   3  10
ATOM      5  C   UNL     1       3.060   6.545  17.858  0.00  0.00    +0.000 C 
ATOM      6  N   UNL     1       3.470   5.174  17.649  0.00  0.00    +0.000 N 
ATOM      7  C   UNL     1       2.822   4.003  17.975  0.00  0.00    +0.000 A 
ATOM      8  C   UNL     1       3.636   2.985  17.540  0.00  0.00    +0.000 A 
ATOM      9  N   UNL     1       4.762   3.485  16.949  0.00  0.00    +0.000 NA
ATOM     10  C   UNL     1       4.656   4.800  17.022  0.00  0.00    +0.000 A 
BRANCH   7  11
ATOM     11  N   UNL     1       1.561   3.850  18.620  0.00  0.00    +0.000 N 
ATOM     12  O   UNL     1       1.422   4.292  19.762  0.00  0.00    +0.000 OA
ATOM     13  O   UNL     1       0.680   3.280  17.965  0.00  0.00    +0.000 OA
ENDBRANCH   7  11
ENDBRANCH   3  10
ENDBRANCH   2   3
ENDBRANCH   1   2
BRANCH   1  14
ATOM     14  C   UNL     1       7.813   8.831  17.790  0.00  0.00    +0.000 C 
BRANCH  14  15
ATOM     15  C   UNL     1       8.970   9.312  18.669  0.00  0.00    +0.000 C 
BRANCH  15  16
ATOM     16  C   UNL     1       9.068  10.842  18.687  0.00  0.00    +0.000 C 
BRANCH  16  17
ATOM     17  C   UNL     1      10.269  11.329  17.871  0.00  0.00    +0.000 C 
BRANCH  17  18
ATOM     18  C   UNL     1      10.213  12.839  17.642  0.00  0.00    +0.000 C 
BRANCH  18  19
ATOM     19  C   UNL     1       8.982  13.462  18.308  0.00  0.00    +0.000 C 
BRANCH  19  20
ATOM     20  C   UNL     1       9.061  14.988  18.279  0.00  0.00    +0.000 C 
BRANCH  20  21
ATOM     21  C   UNL     1      10.493  15.480  18.083  0.00  0.00    +0.000 C 
BRANCH  21  22
ATOM     22  C   UNL     1      10.578  16.509  16.979  0.00  0.00    +0.000 C 
ATOM     23  O   UNL     1      10.506  17.717  17.130  0.00  0.00    +0.000 OA
BRANCH  22  24
ATOM     24  O   UNL     1      10.747  15.946  15.760  0.00  0.00    +0.000 OA
ATOM     25  H   UNL     1      10.197  16.348  15.059  0.00  0.00    +0.000 HD
ENDBRANCH  22  24
ENDBRANCH  21  22
ENDBRANCH  20  21
ENDBRANCH  19  20
ENDBRANCH  18  19
ENDBRANCH  17  18
ENDBRANCH  16  17
ENDBRANCH  15  16
ENDBRANCH  14  15
ENDBRANCH   1  14
TORSDOF 14
ENDMDL
MODEL 7
REMARK VINA RESULT:      -5.9      5.205      7.726
REMARK  Name = 
REMARK  15 active torsions:
REMARK  status: ('A' for Active; 'I' for Inactive)
REMARK    1  A    between atoms: C_1  and  N_2
REMARK    2  A    between atoms: C_3  and  N_4
REMARK    3  A    between atoms: C_9  and  S_10
REMARK    4  A    between atoms: S_10  and  C_12
REMARK    5  A    between atoms: C_12  and  C_13
REMARK    6  A    between atoms: C_13  and  C_14
REMARK    7  A    between atoms: C_14  and  C_15
REMARK    8  A    between atoms: C_15  and  C_16
REMARK    9  A    between atoms: C_16  and  C_17
REMARK   10  A    between atoms: C_17  and  C_18
REMARK   11  A    between atoms: C_18  and  C_19
REMARK   12  A    between atoms: C_19  and  C_20
REMARK   13  A    between atoms: C_20  and  C_21
REMARK   14  A    between atoms: C_21  and  C_22
REMARK   15  A    between atoms: C_22  and  O_24
REMARK                            x       y       z     vdW  Elec       q    Type
REMARK                         _______ _______ _______ _____ _____    ______ ____
ROOT
ATOM      1  C   UNL     1       1.876   3.550  19.840  0.00  0.00    +0.000 C 
ENDROOT
BRANCH   1   2
ATOM      2  C   UNL     1       2.918   2.883  20.741  0.00  0.00    +0.000 C 
BRANCH   2   3
ATOM      3  S   UNL     1       4.274   2.166  19.756  0.00  0.00    +0.000 S 
ATOM      4  O   UNL     1       5.345   1.532  20.713  0.00  0.00    +0.000 OA
BRANCH   3  10
ATOM      5  C   UNL     1       3.865   3.605  16.850  0.00  0.00    +0.000 C 
ATOM      6  N   UNL     1       4.707   4.208  17.857  0.00  0.00    +0.000 N 
ATOM      7  C   UNL     1       5.396   5.401  17.830  0.00  0.00    +0.000 A 
ATOM      8  C   UNL     1       6.023   5.506  19.049  0.00  0.00    +0.000 A 
ATOM      9  N   UNL     1       5.741   4.423  19.832  0.00  0.00    +0.000 NA
ATOM     10  C   UNL     1       4.954   3.647  19.108  0.00  0.00    +0.000 A 
BRANCH   7  11
ATOM     11  N   UNL     1       5.452   6.355  16.774  0.00  0.00    +0.000 N 
ATOM     12  O   UNL     1       6.483   6.437  16.103  0.00  0.00    +0.000 OA
ATOM     13  O   UNL     1       4.436   7.039  16.602  0.00  0.00    +0.000 OA
ENDBRANCH   7  11
ENDBRANCH   3  10
ENDBRANCH   2   3
ENDBRANCH   1   2
BRANCH   1  14
ATOM     14  C   UNL     1       1.204   4.736  20.544  0.00  0.00    +0.000 C 
BRANCH  14  15
ATOM     15  C   UNL     1       1.913   6.057  20.232  0.00  0.00    +0.000 C 
BRANCH  15  16
ATOM     16  C   UNL     1       1.212   7.246  20.900  0.00  0.00    +0.000 C 
BRANCH  16  17
ATOM     17  C   UNL     1       1.712   8.576  20.329  0.00  0.00    +0.000 C 
BRANCH  17  18
ATOM     18  C   UNL     1       1.836   8.518  18.807  0.00  0.00    +0.000 C 
BRANCH  18  19
ATOM     19  C   UNL     1       0.820   9.439  18.126  0.00  0.00    +0.000 C 
BRANCH  19  20
ATOM     20  C   UNL     1       0.943  10.869  18.652  0.00  0.00    +0.000 C 
BRANCH  20  21
ATOM     21  C   UNL     1      -0.384  11.388  19.203  0.00  0.00    +0.000 C 
BRANCH  21  22
ATOM     22  C   UNL     1      -1.361  11.693  18.091  0.00  0.00    +0.000 C 
ATOM     23  O   UNL     1      -2.345  11.029  17.810  0.00  0.00    +0.000 OA
BRANCH  22  24
ATOM     24  O   UNL     1      -1.034  12.816  17.410  0.00  0.00    +0.000 OA
ATOM     25  H   UNL     1      -0.311  13.330  17.821  0.00  0.00    +0.000 HD
ENDBRANCH  22  24
ENDBRANCH  21  22
ENDBRANCH  20  21
ENDBRANCH  19  20
ENDBRANCH  18  19
ENDBRANCH  17  18
ENDBRANCH  16  17
ENDBRANCH  15  16
ENDBRANCH  14  15
ENDBRANCH   1  14
TORSDOF 14
ENDMDL
MODEL 8
REMARK VINA RESULT:      -5.9      5.774      9.363
REMARK  Name = 
REMARK  15 active torsions:
REMARK  status: ('A' for Active; 'I' for Inactive)
REMARK    1  A    between atoms: C_1  and  N_2
REMARK    2  A    between atoms: C_3  and  N_4
REMARK    3  A    between atoms: C_9  and  S_10
REMARK    4  A    between atoms: S_10  and  C_12
REMARK    5  A    between atoms: C_12  and  C_13
REMARK    6  A    between atoms: C_13  and  C_14
REMARK    7  A    between atoms: C_14  and  C_15
REMARK    8  A    between atoms: C_15  and  C_16
REMARK    9  A    between atoms: C_16  and  C_17
REMARK   10  A    between atoms: C_17  and  C_18
REMARK   11  A    between atoms: C_18  and  C_19
REMARK   12  A    between atoms: C_19  and  C_20
REMARK   13  A    between atoms: C_20  and  C_21
REMARK   14  A    between atoms: C_21  and  C_22
REMARK   15  A    between atoms: C_22  and  O_24
REMARK                            x       y       z     vdW  Elec       q    Type
REMARK                         _______ _______ _______ _____ _____    ______ ____
ROOT
ATOM      1  C   UNL     1       2.389   7.188  18.477  0.00  0.00    +0.000 C 
ENDROOT
BRANCH   1   2
ATOM      2  C   UNL     1       1.989   8.068  19.664  0.00  0.00    +0.000 C 
BRANCH   2   3
ATOM      3  S   UNL     1       0.931   9.453  19.127  0.00  0.00    +0.000 S 
ATOM      4  O   UNL     1       1.823  10.605  18.544  0.00  0.00    +0.000 OA
BRANCH   3  10
ATOM      5  C   UNL     1      -1.047  11.921  19.951  0.00  0.00    +0.000 C 
ATOM      6  N   UNL     1      -0.518  11.033  20.962  0.00  0.00    +0.000 N 
ATOM      7  C   UNL     1      -0.747  11.008  22.320  0.00  0.00    +0.000 A 
ATOM      8  C   UNL     1      -0.015   9.954  22.810  0.00  0.00    +0.000 A 
ATOM      9  N   UNL     1       0.653   9.320  21.802  0.00  0.00    +0.000 NA
ATOM     10  C   UNL     1       0.349   9.975  20.696  0.00  0.00    +0.000 A 
BRANCH   7  11
ATOM     11  N   UNL     1      -1.578  11.878  23.083  0.00  0.00    +0.000 N 
ATOM     12  O   UNL     1      -1.104  12.937  23.499  0.00  0.00    +0.000 OA
ATOM     13  O   UNL     1      -2.741  11.498  23.267  0.00  0.00    +0.000 OA
ENDBRANCH   7  11
ENDBRANCH   3  10
ENDBRANCH   2   3
ENDBRANCH   1   2
BRANCH   1  14
ATOM     14  C   UNL     1       3.386   7.908  17.558  0.00  0.00    +0.000 C 
BRANCH  14  15
ATOM     15  C   UNL     1       4.464   6.956  17.034  0.00  0.00    +0.000 C 
BRANCH  15  16
ATOM     16  C   UNL     1       4.492   5.642  17.826  0.00  0.00    +0.000 C 
BRANCH  16  17
ATOM     17  C   UNL     1       4.469   4.431  16.890  0.00  0.00    +0.000 C 
BRANCH  17  18
ATOM     18  C   UNL     1       3.621   3.297  17.466  0.00  0.00    +0.000 C 
BRANCH  18  19
ATOM     19  C   UNL     1       2.130   3.643  17.442  0.00  0.00    +0.000 C 
BRANCH  19  20
ATOM     20  C   UNL     1       1.504   3.453  18.823  0.00  0.00    +0.000 C 
BRANCH  20  21
ATOM     21  C   UNL     1       2.559   3.439  19.928  0.00  0.00    +0.000 C 
BRANCH  21  22
ATOM     22  C   UNL     1       1.996   2.894  21.221  0.00  0.00    +0.000 C 
ATOM     23  O   UNL     1       2.654   2.533  22.183  0.00  0.00    +0.000 OA
BRANCH  22  24
ATOM     24  O   UNL     1       0.644   2.842  21.214  0.00  0.00    +0.000 OA
ATOM     25  H   UNL     1       0.277   2.051  21.658  0.00  0.00    +0.000 HD
ENDBRANCH  22  24
ENDBRANCH  21  22
ENDBRANCH  20  21
ENDBRANCH  19  20
ENDBRANCH  18  19
ENDBRANCH  17  18
ENDBRANCH  16  17
ENDBRANCH  15  16
ENDBRANCH  14  15
ENDBRANCH   1  14
TORSDOF 14
ENDMDL
MODEL 9
REMARK VINA RESULT:      -5.9      5.138      7.824
REMARK  Name = 
REMARK  15 active torsions:
REMARK  status: ('A' for Active; 'I' for Inactive)
REMARK    1  A    between atoms: C_1  and  N_2
REMARK    2  A    between atoms: C_3  and  N_4
REMARK    3  A    between atoms: C_9  and  S_10
REMARK    4  A    between atoms: S_10  and  C_12
REMARK    5  A    between atoms: C_12  and  C_13
REMARK    6  A    between atoms: C_13  and  C_14
REMARK    7  A    between atoms: C_14  and  C_15
REMARK    8  A    between atoms: C_15  and  C_16
REMARK    9  A    between atoms: C_16  and  C_17
REMARK   10  A    between atoms: C_17  and  C_18
REMARK   11  A    between atoms: C_18  and  C_19
REMARK   12  A    between atoms: C_19  and  C_20
REMARK   13  A    between atoms: C_20  and  C_21
REMARK   14  A    between atoms: C_21  and  C_22
REMARK   15  A    between atoms: C_22  and  O_24
REMARK                            x       y       z     vdW  Elec       q    Type
REMARK                         _______ _______ _______ _____ _____    ______ ____
ROOT
ATOM      1  C   UNL     1       2.165   3.210  20.842  0.00  0.00    +0.000 C 
ENDROOT
BRANCH   1   2
ATOM      2  C   UNL     1       3.499   2.703  20.289  0.00  0.00    +0.000 C 
BRANCH   2   3
ATOM      3  S   UNL     1       3.505   2.726  18.465  0.00  0.00    +0.000 S 
ATOM      4  O   UNL     1       3.835   1.292  17.920  0.00  0.00    +0.000 OA
BRANCH   3  10
ATOM      5  C   UNL     1       4.707   4.060  15.734  0.00  0.00    +0.000 C 
ATOM      6  N   UNL     1       5.355   4.280  17.007  0.00  0.00    +0.000 N 
ATOM      7  C   UNL     1       6.457   5.049  17.313  0.00  0.00    +0.000 A 
ATOM      8  C   UNL     1       6.642   4.926  18.669  0.00  0.00    +0.000 A 
ATOM      9  N   UNL     1       5.688   4.114  19.215  0.00  0.00    +0.000 NA
ATOM     10  C   UNL     1       4.922   3.728  18.210  0.00  0.00    +0.000 A 
BRANCH   7  11
ATOM     11  N   UNL     1       7.252   5.831  16.427  0.00  0.00    +0.000 N 
ATOM     12  O   UNL     1       7.548   5.362  15.326  0.00  0.00    +0.000 OA
ATOM     13  O   UNL     1       7.585   6.949  16.836  0.00  0.00    +0.000 OA
ENDBRANCH   7  11
ENDBRANCH   3  10
ENDBRANCH   2   3
ENDBRANCH   1   2
BRANCH   1  14
ATOM     14  C   UNL     1       2.252   4.686  21.248  0.00  0.00    +0.000 C 
BRANCH  14  15
ATOM     15  C   UNL     1       1.586   5.599  20.215  0.00  0.00    +0.000 C 
BRANCH  15  16
ATOM     16  C   UNL     1       2.600   6.137  19.199  0.00  0.00    +0.000 C 
BRANCH  16  17
ATOM     17  C   UNL     1       2.536   7.665  19.108  0.00  0.00    +0.000 C 
BRANCH  17  18
ATOM     18  C   UNL     1       1.097   8.169  19.208  0.00  0.00    +0.000 C 
BRANCH  18  19
ATOM     19  C   UNL     1       1.038   9.699  19.205  0.00  0.00    +0.000 C 
BRANCH  19  20
ATOM     20  C   UNL     1       0.211  10.215  20.383  0.00  0.00    +0.000 C 
BRANCH  20  21
ATOM     21  C   UNL     1      -0.056   9.119  21.413  0.00  0.00    +0.000 C 
BRANCH  21  22
ATOM     22  C   UNL     1       0.667   9.394  22.712  0.00  0.00    +0.000 C 
ATOM     23  O   UNL     1       0.146   9.782  23.744  0.00  0.00    +0.000 OA
BRANCH  22  24
ATOM     24  O   UNL     1       1.997   9.160  22.622  0.00  0.00    +0.000 OA
ATOM     25  H   UNL     1       2.548   9.847  23.046  0.00  0.00    +0.000 HD
ENDBRANCH  22  24
ENDBRANCH  21  22
ENDBRANCH  20  21
ENDBRANCH  19  20
ENDBRANCH  18  19
ENDBRANCH  17  18
ENDBRANCH  16  17
ENDBRANCH  15  16
ENDBRANCH  14  15
ENDBRANCH   1  14
TORSDOF 14
ENDMDL
