MODEL 1
REMARK VINA RESULT:      -7.1      0.000      0.000
REMARK  Name = 
REMARK  3 active torsions:
REMARK  status: ('A' for Active; 'I' for Inactive)
REMARK    1  A    between atoms: C_1  and  C_2
REMARK    2  A    between atoms: N_4  and  C_5
REMARK    3  A    between atoms: C_5  and  C_6
REMARK                            x       y       z     vdW  Elec       q    Type
REMARK                         _______ _______ _______ _____ _____    ______ ____
ROOT
ATOM      1  C   UNL     1       2.821   5.171  18.715  0.00  0.00    +0.000 C 
ATOM      2  O   UNL     1       2.084   4.784  19.625  0.00  0.00    +0.000 OA
ATOM      3  N   UNL     1       2.926   6.467  18.253  0.00  0.00    +0.000 N 
ATOM      4  C   UNL     1       2.282   7.535  18.839  0.00  0.00    +0.000 A 
ATOM      5  N   UNL     1       2.064   8.663  18.205  0.00  0.00    +0.000 NA
ATOM      6  C   UNL     1       1.295   9.496  19.008  0.00  0.00    +0.000 A 
ATOM      7  C   UNL     1       0.764  10.752  18.644  0.00  0.00    +0.000 A 
ATOM      8  C   UNL     1      -0.013  11.465  19.567  0.00  0.00    +0.000 A 
ATOM      9  C   UNL     1      -0.251  10.947  20.832  0.00  0.00    +0.000 A 
ATOM     10  F   UNL     1      -0.988  11.651  21.700  0.00  0.00    +0.000 F 
ATOM     11  C   UNL     1       0.256   9.716  21.223  0.00  0.00    +0.000 A 
ATOM     12  C   UNL     1       1.026   9.008  20.290  0.00  0.00    +0.000 A 
ATOM     13  S   UNL     1       1.776   7.484  20.467  0.00  0.00    +0.000 S 
ATOM     14  H   UNL     1       3.273   6.644  17.323  0.00  0.00    +0.000 HD
ENDROOT
BRANCH   1  15
ATOM     15  C   UNL     1       3.700   4.148  18.001  0.00  0.00    +0.000 C 
BRANCH  15  19
ATOM     16  C   UNL     1       6.598   4.290  13.985  0.00  0.00    +0.000 C 
ATOM     17  C   UNL     1       6.343   4.877  15.366  0.00  0.00    +0.000 C 
ATOM     18  C   UNL     1       5.114   4.215  16.027  0.00  0.00    +0.000 C 
ATOM     19  N   UNL     1       4.874   4.786  17.374  0.00  0.00    +0.000 NA
ATOM     20  C   UNL     1       6.111   4.582  18.180  0.00  0.00    +0.000 C 
ATOM     21  C   UNL     1       7.327   5.212  17.475  0.00  0.00    +0.000 C 
ATOM     22  O   UNL     1       7.518   4.665  16.163  0.00  0.00    +0.000 OA
ENDBRANCH  15  19
ENDBRANCH   1  15
TORSDOF 2
ENDMDL
MODEL 2
REMARK VINA RESULT:      -7.0      1.391      1.937
REMARK  Name = 
REMARK  3 active torsions:
REMARK  status: ('A' for Active; 'I' for Inactive)
REMARK    1  A    between atoms: C_1  and  C_2
REMARK    2  A    between atoms: N_4  and  C_5
REMARK    3  A    between atoms: C_5  and  C_6
REMARK                            x       y       z     vdW  Elec       q    Type
REMARK                         _______ _______ _______ _____ _____    ______ ____
ROOT
ATOM      1  C   UNL     1       2.728   6.084  18.462  0.00  0.00    +0.000 C 
ATOM      2  O   UNL     1       2.260   5.361  19.345  0.00  0.00    +0.000 OA
ATOM      3  N   UNL     1       2.527   7.444  18.338  0.00  0.00    +0.000 N 
ATOM      4  C   UNL     1       1.850   8.199  19.270  0.00  0.00    +0.000 A 
ATOM      5  N   UNL     1       1.330   9.370  18.988  0.00  0.00    +0.000 NA
ATOM      6  C   UNL     1       0.613   9.827  20.087  0.00  0.00    +0.000 A 
ATOM      7  C   UNL     1      -0.177  10.995  20.144  0.00  0.00    +0.000 A 
ATOM      8  C   UNL     1      -0.858  11.309  21.327  0.00  0.00    +0.000 A 
ATOM      9  C   UNL     1      -0.752  10.485  22.438  0.00  0.00    +0.000 A 
ATOM     10  F   UNL     1      -1.404  10.810  23.561  0.00  0.00    +0.000 F 
ATOM     11  C   UNL     1       0.016   9.329  22.417  0.00  0.00    +0.000 A 
ATOM     12  C   UNL     1       0.688   9.020  21.226  0.00  0.00    +0.000 A 
ATOM     13  S   UNL     1       1.695   7.683  20.888  0.00  0.00    +0.000 S 
ATOM     14  H   UNL     1       2.648   7.891  17.442  0.00  0.00    +0.000 HD
ENDROOT
BRANCH   1  15
ATOM     15  C   UNL     1       3.600   5.450  17.382  0.00  0.00    +0.000 C 
BRANCH  15  19
ATOM     16  C   UNL     1       7.762   8.135  17.524  0.00  0.00    +0.000 C 
ATOM     17  C   UNL     1       7.129   6.788  17.846  0.00  0.00    +0.000 C 
ATOM     18  C   UNL     1       5.636   6.774  17.452  0.00  0.00    +0.000 C 
ATOM     19  N   UNL     1       5.026   5.458  17.762  0.00  0.00    +0.000 NA
ATOM     20  C   UNL     1       5.800   4.416  17.030  0.00  0.00    +0.000 C 
ATOM     21  C   UNL     1       7.293   4.484  17.408  0.00  0.00    +0.000 C 
ATOM     22  O   UNL     1       7.849   5.776  17.126  0.00  0.00    +0.000 OA
ENDBRANCH  15  19
ENDBRANCH   1  15
TORSDOF 2
ENDMDL
MODEL 3
REMARK VINA RESULT:      -7.0      1.550      1.999
REMARK  Name = 
REMARK  3 active torsions:
REMARK  status: ('A' for Active; 'I' for Inactive)
REMARK    1  A    between atoms: C_1  and  C_2
REMARK    2  A    between atoms: N_4  and  C_5
REMARK    3  A    between atoms: C_5  and  C_6
REMARK                            x       y       z     vdW  Elec       q    Type
REMARK                         _______ _______ _______ _____ _____    ______ ____
ROOT
ATOM      1  C   UNL     1       3.165   6.750  18.480  0.00  0.00    +0.000 C 
ATOM      2  O   UNL     1       3.481   7.772  17.868  0.00  0.00    +0.000 OA
ATOM      3  N   UNL     1       2.307   6.684  19.560  0.00  0.00    +0.000 N 
ATOM      4  C   UNL     1       1.597   7.767  20.030  0.00  0.00    +0.000 A 
ATOM      5  N   UNL     1       1.102   7.813  21.244  0.00  0.00    +0.000 NA
ATOM      6  C   UNL     1       0.547   9.069  21.462  0.00  0.00    +0.000 A 
ATOM      7  C   UNL     1       0.010   9.547  22.676  0.00  0.00    +0.000 A 
ATOM      8  C   UNL     1      -0.495  10.852  22.740  0.00  0.00    +0.000 A 
ATOM      9  C   UNL     1      -0.477  11.667  21.617  0.00  0.00    +0.000 A 
ATOM     10  F   UNL     1      -0.974  12.907  21.699  0.00  0.00    +0.000 F 
ATOM     11  C   UNL     1       0.044  11.229  20.407  0.00  0.00    +0.000 A 
ATOM     12  C   UNL     1       0.553   9.925  20.356  0.00  0.00    +0.000 A 
ATOM     13  S   UNL     1       1.255   9.107  19.032  0.00  0.00    +0.000 S 
ATOM     14  H   UNL     1       2.361   5.906  20.199  0.00  0.00    +0.000 HD
ENDROOT
BRANCH   1  15
ATOM     15  C   UNL     1       3.771   5.419  18.044  0.00  0.00    +0.000 C 
BRANCH  15  19
ATOM     16  C   UNL     1       6.938   4.763  14.291  0.00  0.00    +0.000 C 
ATOM     17  C   UNL     1       6.776   5.262  15.720  0.00  0.00    +0.000 C 
ATOM     18  C   UNL     1       5.317   5.098  16.198  0.00  0.00    +0.000 C 
ATOM     19  N   UNL     1       5.167   5.580  17.593  0.00  0.00    +0.000 NA
ATOM     20  C   UNL     1       6.117   4.809  18.443  0.00  0.00    +0.000 C 
ATOM     21  C   UNL     1       7.557   4.954  17.916  0.00  0.00    +0.000 C 
ATOM     22  O   UNL     1       7.668   4.510  16.556  0.00  0.00    +0.000 OA
ENDBRANCH  15  19
ENDBRANCH   1  15
TORSDOF 2
ENDMDL
MODEL 4
REMARK VINA RESULT:      -7.0      4.085      8.032
REMARK  Name = 
REMARK  3 active torsions:
REMARK  status: ('A' for Active; 'I' for Inactive)
REMARK    1  A    between atoms: C_1  and  C_2
REMARK    2  A    between atoms: N_4  and  C_5
REMARK    3  A    between atoms: C_5  and  C_6
REMARK                            x       y       z     vdW  Elec       q    Type
REMARK                         _______ _______ _______ _____ _____    ______ ____
ROOT
ATOM      1  C   UNL     1       1.870   9.133  18.390  0.00  0.00    +0.000 C 
ATOM      2  O   UNL     1       2.199   8.711  17.279  0.00  0.00    +0.000 OA
ATOM      3  N   UNL     1       1.810   8.393  19.553  0.00  0.00    +0.000 N 
ATOM      4  C   UNL     1       2.225   7.082  19.640  0.00  0.00    +0.000 A 
ATOM      5  N   UNL     1       1.826   6.277  20.596  0.00  0.00    +0.000 NA
ATOM      6  C   UNL     1       2.315   4.999  20.349  0.00  0.00    +0.000 A 
ATOM      7  C   UNL     1       2.021   3.834  21.088  0.00  0.00    +0.000 A 
ATOM      8  C   UNL     1       2.581   2.611  20.696  0.00  0.00    +0.000 A 
ATOM      9  C   UNL     1       3.425   2.545  19.597  0.00  0.00    +0.000 A 
ATOM     10  F   UNL     1       3.956   1.367  19.248  0.00  0.00    +0.000 F 
ATOM     11  C   UNL     1       3.735   3.672  18.848  0.00  0.00    +0.000 A 
ATOM     12  C   UNL     1       3.165   4.889  19.244  0.00  0.00    +0.000 A 
ATOM     13  S   UNL     1       3.348   6.431  18.535  0.00  0.00    +0.000 S 
ATOM     14  H   UNL     1       1.228   8.701  20.317  0.00  0.00    +0.000 HD
ENDROOT
BRANCH   1  15
ATOM     15  C   UNL     1       1.469  10.600  18.526  0.00  0.00    +0.000 C 
BRANCH  15  19
ATOM     16  C   UNL     1      -3.200   9.842  17.049  0.00  0.00    +0.000 C 
ATOM     17  C   UNL     1      -2.310  10.369  18.167  0.00  0.00    +0.000 C 
ATOM     18  C   UNL     1      -0.818  10.221  17.797  0.00  0.00    +0.000 C 
ATOM     19  N   UNL     1       0.045  10.741  18.886  0.00  0.00    +0.000 NA
ATOM     20  C   UNL     1      -0.329  12.165  19.118  0.00  0.00    +0.000 C 
ATOM     21  C   UNL     1      -1.831  12.286  19.439  0.00  0.00    +0.000 C 
ATOM     22  O   UNL     1      -2.640  11.748  18.384  0.00  0.00    +0.000 OA
ENDBRANCH  15  19
ENDBRANCH   1  15
TORSDOF 2
ENDMDL
MODEL 5
REMARK VINA RESULT:      -6.8      6.330      7.646
REMARK  Name = 
REMARK  3 active torsions:
REMARK  status: ('A' for Active; 'I' for Inactive)
REMARK    1  A    between atoms: C_1  and  C_2
REMARK    2  A    between atoms: N_4  and  C_5
REMARK    3  A    between atoms: C_5  and  C_6
REMARK                            x       y       z     vdW  Elec       q    Type
REMARK                         _______ _______ _______ _____ _____    ______ ____
ROOT
ATOM      1  C   UNL     1       8.118   7.858  18.121  0.00  0.00    +0.000 C 
ATOM      2  O   UNL     1       7.901   8.275  16.981  0.00  0.00    +0.000 OA
ATOM      3  N   UNL     1       8.743   8.557  19.134  0.00  0.00    +0.000 N 
ATOM      4  C   UNL     1       9.115   9.879  19.025  0.00  0.00    +0.000 A 
ATOM      5  N   UNL     1      10.025  10.422  19.799  0.00  0.00    +0.000 NA
ATOM      6  C   UNL     1      10.268  11.723  19.372  0.00  0.00    +0.000 A 
ATOM      7  C   UNL     1      11.251  12.599  19.879  0.00  0.00    +0.000 A 
ATOM      8  C   UNL     1      11.384  13.879  19.325  0.00  0.00    +0.000 A 
ATOM      9  C   UNL     1      10.550  14.287  18.294  0.00  0.00    +0.000 A 
ATOM     10  F   UNL     1      10.688  15.519  17.787  0.00  0.00    +0.000 F 
ATOM     11  C   UNL     1       9.573  13.451  17.772  0.00  0.00    +0.000 A 
ATOM     12  C   UNL     1       9.453  12.171  18.329  0.00  0.00    +0.000 A 
ATOM     13  S   UNL     1       8.364  10.925  17.907  0.00  0.00    +0.000 S 
ATOM     14  H   UNL     1       9.177   8.059  19.896  0.00  0.00    +0.000 HD
ENDROOT
BRANCH   1  15
ATOM     15  C   UNL     1       7.684   6.439  18.477  0.00  0.00    +0.000 C 
BRANCH  15  19
ATOM     16  C   UNL     1       3.041   4.872  17.743  0.00  0.00    +0.000 C 
ATOM     17  C   UNL     1       4.399   5.111  17.097  0.00  0.00    +0.000 C 
ATOM     18  C   UNL     1       5.404   5.676  18.124  0.00  0.00    +0.000 C 
ATOM     19  N   UNL     1       6.726   5.902  17.490  0.00  0.00    +0.000 NA
ATOM     20  C   UNL     1       7.185   4.601  16.925  0.00  0.00    +0.000 C 
ATOM     21  C   UNL     1       6.142   4.040  15.940  0.00  0.00    +0.000 C 
ATOM     22  O   UNL     1       4.866   3.861  16.570  0.00  0.00    +0.000 OA
ENDBRANCH  15  19
ENDBRANCH   1  15
TORSDOF 2
ENDMDL
MODEL 6
REMARK VINA RESULT:      -6.8      2.219      3.146
REMARK  Name = 
REMARK  3 active torsions:
REMARK  status: ('A' for Active; 'I' for Inactive)
REMARK    1  A    between atoms: C_1  and  C_2
REMARK    2  A    between atoms: N_4  and  C_5
REMARK    3  A    between atoms: C_5  and  C_6
REMARK                            x       y       z     vdW  Elec       q    Type
REMARK                         _______ _______ _______ _____ _____    ______ ____
ROOT
ATOM      1  C   UNL     1       2.726   8.092  17.981  0.00  0.00    +0.000 C 
ATOM      2  O   UNL     1       2.657   9.199  17.441  0.00  0.00    +0.000 OA
ATOM      3  N   UNL     1       2.129   7.733  19.172  0.00  0.00    +0.000 N 
ATOM      4  C   UNL     1       1.273   8.556  19.870  0.00  0.00    +0.000 A 
ATOM      5  N   UNL     1       1.018   8.392  21.146  0.00  0.00    +0.000 NA
ATOM      6  C   UNL     1       0.221   9.440  21.590  0.00  0.00    +0.000 A 
ATOM      7  C   UNL     1      -0.181   9.680  22.922  0.00  0.00    +0.000 A 
ATOM      8  C   UNL     1      -0.973  10.798  23.212  0.00  0.00    +0.000 A 
ATOM      9  C   UNL     1      -1.368  11.659  22.199  0.00  0.00    +0.000 A 
ATOM     10  F   UNL     1      -2.134  12.716  22.498  0.00  0.00    +0.000 F 
ATOM     11  C   UNL     1      -0.992  11.454  20.879  0.00  0.00    +0.000 A 
ATOM     12  C   UNL     1      -0.194  10.336  20.600  0.00  0.00    +0.000 A 
ATOM     13  S   UNL     1       0.428   9.820  19.096  0.00  0.00    +0.000 S 
ATOM     14  H   UNL     1       2.493   6.957  19.704  0.00  0.00    +0.000 HD
ENDROOT
BRANCH   1  15
ATOM     15  C   UNL     1       3.550   6.999  17.306  0.00  0.00    +0.000 C 
BRANCH  15  19
ATOM     16  C   UNL     1       7.974   5.579  19.028  0.00  0.00    +0.000 C 
ATOM     17  C   UNL     1       6.466   5.435  19.180  0.00  0.00    +0.000 C 
ATOM     18  C   UNL     1       5.723   6.311  18.148  0.00  0.00    +0.000 C 
ATOM     19  N   UNL     1       4.254   6.162  18.297  0.00  0.00    +0.000 NA
ATOM     20  C   UNL     1       3.927   4.717  18.134  0.00  0.00    +0.000 C 
ATOM     21  C   UNL     1       4.717   3.865  19.145  0.00  0.00    +0.000 C 
ATOM     22  O   UNL     1       6.131   4.051  19.000  0.00  0.00    +0.000 OA
ENDBRANCH  15  19
ENDBRANCH   1  15
TORSDOF 2
ENDMDL
MODEL 7
REMARK VINA RESULT:      -6.7      2.503      3.510
REMARK  Name = 
REMARK  3 active torsions:
REMARK  status: ('A' for Active; 'I' for Inactive)
REMARK    1  A    between atoms: C_1  and  C_2
REMARK    2  A    between atoms: N_4  and  C_5
REMARK    3  A    between atoms: C_5  and  C_6
REMARK                            x       y       z     vdW  Elec       q    Type
REMARK                         _______ _______ _______ _____ _____    ______ ____
ROOT
ATOM      1  C   UNL     1       3.266   7.036  18.233  0.00  0.00    +0.000 C 
ATOM      2  O   UNL     1       3.431   8.107  17.644  0.00  0.00    +0.000 OA
ATOM      3  N   UNL     1       2.490   6.841  19.357  0.00  0.00    +0.000 N 
ATOM      4  C   UNL     1       1.699   7.823  19.912  0.00  0.00    +0.000 A 
ATOM      5  N   UNL     1       1.280   7.775  21.154  0.00  0.00    +0.000 NA
ATOM      6  C   UNL     1       0.609   8.955  21.455  0.00  0.00    +0.000 A 
ATOM      7  C   UNL     1       0.102   9.330  22.717  0.00  0.00    +0.000 A 
ATOM      8  C   UNL     1      -0.535  10.569  22.863  0.00  0.00    +0.000 A 
ATOM      9  C   UNL     1      -0.675  11.418  21.775  0.00  0.00    +0.000 A 
ATOM     10  F   UNL     1      -1.297  12.593  21.935  0.00  0.00    +0.000 F 
ATOM     11  C   UNL     1      -0.189  11.080  20.520  0.00  0.00    +0.000 A 
ATOM     12  C   UNL     1       0.453   9.842  20.386  0.00  0.00    +0.000 A 
ATOM     13  S   UNL     1       1.153   9.150  18.991  0.00  0.00    +0.000 S 
ATOM     14  H   UNL     1       2.667   6.053  19.961  0.00  0.00    +0.000 HD
ENDROOT
BRANCH   1  15
ATOM     15  C   UNL     1       3.982   5.794  17.708  0.00  0.00    +0.000 C 
BRANCH  15  19
ATOM     16  C   UNL     1       4.773   1.797  20.526  0.00  0.00    +0.000 C 
ATOM     17  C   UNL     1       3.763   2.542  19.665  0.00  0.00    +0.000 C 
ATOM     18  C   UNL     1       4.376   3.839  19.095  0.00  0.00    +0.000 C 
ATOM     19  N   UNL     1       3.389   4.557  18.252  0.00  0.00    +0.000 NA
ATOM     20  C   UNL     1       2.957   3.628  17.169  0.00  0.00    +0.000 C 
ATOM     21  C   UNL     1       2.393   2.325  17.767  0.00  0.00    +0.000 C 
ATOM     22  O   UNL     1       3.356   1.667  18.602  0.00  0.00    +0.000 OA
ENDBRANCH  15  19
ENDBRANCH   1  15
TORSDOF 2
ENDMDL
MODEL 8
REMARK VINA RESULT:      -6.6      2.818      3.888
REMARK  Name = 
REMARK  3 active torsions:
REMARK  status: ('A' for Active; 'I' for Inactive)
REMARK    1  A    between atoms: C_1  and  C_2
REMARK    2  A    between atoms: N_4  and  C_5
REMARK    3  A    between atoms: C_5  and  C_6
REMARK                            x       y       z     vdW  Elec       q    Type
REMARK                         _______ _______ _______ _____ _____    ______ ____
ROOT
ATOM      1  C   UNL     1       2.585   7.795  18.610  0.00  0.00    +0.000 C 
ATOM      2  O   UNL     1       2.619   8.801  17.897  0.00  0.00    +0.000 OA
ATOM      3  N   UNL     1       1.889   7.665  19.795  0.00  0.00    +0.000 N 
ATOM      4  C   UNL     1       1.037   8.630  20.284  0.00  0.00    +0.000 A 
ATOM      5  N   UNL     1       0.687   8.690  21.547  0.00  0.00    +0.000 NA
ATOM      6  C   UNL     1      -0.076   9.833  21.755  0.00  0.00    +0.000 A 
ATOM      7  C   UNL     1      -0.552  10.305  22.997  0.00  0.00    +0.000 A 
ATOM      8  C   UNL     1      -1.295  11.492  23.042  0.00  0.00    +0.000 A 
ATOM      9  C   UNL     1      -1.570  12.193  21.877  0.00  0.00    +0.000 A 
ATOM     10  F   UNL     1      -2.291  13.319  21.944  0.00  0.00    +0.000 F 
ATOM     11  C   UNL     1      -1.117  11.757  20.640  0.00  0.00    +0.000 A 
ATOM     12  C   UNL     1      -0.369  10.572  20.606  0.00  0.00    +0.000 A 
ATOM     13  S   UNL     1       0.323   9.788  19.256  0.00  0.00    +0.000 S 
ATOM     14  H   UNL     1       2.170   6.970  20.470  0.00  0.00    +0.000 HD
ENDROOT
BRANCH   1  15
ATOM     15  C   UNL     1       3.388   6.569  18.185  0.00  0.00    +0.000 C 
BRANCH  15  19
ATOM     16  C   UNL     1       4.472   2.143  20.129  0.00  0.00    +0.000 C 
ATOM     17  C   UNL     1       3.354   3.102  19.745  0.00  0.00    +0.000 C 
ATOM     18  C   UNL     1       3.928   4.402  19.141  0.00  0.00    +0.000 C 
ATOM     19  N   UNL     1       2.834   5.330  18.764  0.00  0.00    +0.000 NA
ATOM     20  C   UNL     1       1.947   4.618  17.801  0.00  0.00    +0.000 C 
ATOM     21  C   UNL     1       1.427   3.303  18.414  0.00  0.00    +0.000 C 
ATOM     22  O   UNL     1       2.505   2.438  18.798  0.00  0.00    +0.000 OA
ENDBRANCH  15  19
ENDBRANCH   1  15
TORSDOF 2
ENDMDL
MODEL 9
REMARK VINA RESULT:      -6.6      1.076      1.894
REMARK  Name = 
REMARK  3 active torsions:
REMARK  status: ('A' for Active; 'I' for Inactive)
REMARK    1  A    between atoms: C_1  and  C_2
REMARK    2  A    between atoms: N_4  and  C_5
REMARK    3  A    between atoms: C_5  and  C_6
REMARK                            x       y       z     vdW  Elec       q    Type
REMARK                         _______ _______ _______ _____ _____    ______ ____
ROOT
ATOM      1  C   UNL     1       3.193   4.401  17.905  0.00  0.00    +0.000 C 
ATOM      2  O   UNL     1       2.730   3.892  18.928  0.00  0.00    +0.000 OA
ATOM      3  N   UNL     1       3.133   5.738  17.566  0.00  0.00    +0.000 N 
ATOM      4  C   UNL     1       2.629   6.710  18.402  0.00  0.00    +0.000 A 
ATOM      5  N   UNL     1       2.218   7.876  17.963  0.00  0.00    +0.000 NA
ATOM      6  C   UNL     1       1.658   8.588  19.016  0.00  0.00    +0.000 A 
ATOM      7  C   UNL     1       1.011   9.839  18.930  0.00  0.00    +0.000 A 
ATOM      8  C   UNL     1       0.477  10.420  20.088  0.00  0.00    +0.000 A 
ATOM      9  C   UNL     1       0.592   9.777  21.312  0.00  0.00    +0.000 A 
ATOM     10  F   UNL     1       0.084  10.357  22.407  0.00  0.00    +0.000 F 
ATOM     11  C   UNL     1       1.222   8.547  21.433  0.00  0.00    +0.000 A 
ATOM     12  C   UNL     1       1.746   7.971  20.268  0.00  0.00    +0.000 A 
ATOM     13  S   UNL     1       2.565   6.483  20.091  0.00  0.00    +0.000 S 
ATOM     14  H   UNL     1       3.221   6.017  16.601  0.00  0.00    +0.000 HD
ENDROOT
BRANCH   1  15
ATOM     15  C   UNL     1       3.889   3.499  16.889  0.00  0.00    +0.000 C 
BRANCH  15  19
ATOM     16  C   UNL     1       7.715   6.008  18.790  0.00  0.00    +0.000 C 
ATOM     17  C   UNL     1       7.238   5.136  17.637  0.00  0.00    +0.000 C 
ATOM     18  C   UNL     1       5.762   4.728  17.829  0.00  0.00    +0.000 C 
ATOM     19  N   UNL     1       5.301   3.884  16.700  0.00  0.00    +0.000 NA
ATOM     20  C   UNL     1       5.500   4.660  15.444  0.00  0.00    +0.000 C 
ATOM     21  C   UNL     1       6.973   5.092  15.302  0.00  0.00    +0.000 C 
ATOM     22  O   UNL     1       7.400   5.880  16.421  0.00  0.00    +0.000 OA
ENDBRANCH  15  19
ENDBRANCH   1  15
TORSDOF 2
ENDMDL
