MODEL 1
REMARK VINA RESULT:      -7.2      0.000      0.000
REMARK  Name = 
REMARK  4 active torsions:
REMARK  status: ('A' for Active; 'I' for Inactive)
REMARK    1  A    between atoms: N_1  and  C_2
REMARK    2  A    between atoms: C_3  and  C_4
REMARK    3  A    between atoms: N_6  and  O_7
REMARK    4  A    between atoms: N_15  and  C_16
REMARK                            x       y       z     vdW  Elec       q    Type
REMARK                         _______ _______ _______ _____ _____    ______ ____
ROOT
ATOM      1  C   UNL     1       3.838   3.862  18.673  0.00  0.00    +0.000 C 
ATOM      2  C   UNL     1       2.768   3.991  19.507  0.00  0.00    +0.000 C 
ATOM      3  C   UNL     1       1.988   5.273  19.544  0.00  0.00    +0.000 C 
ATOM      4  C   UNL     1       1.460   5.808  20.882  0.00  0.00    +0.000 C 
ATOM      5  C   UNL     1       1.311   7.315  20.652  0.00  0.00    +0.000 C 
ATOM      6  C   UNL     1       2.330   7.651  19.575  0.00  0.00    +0.000 C 
ATOM      7  N   UNL     1       2.837   6.372  19.132  0.00  0.00    +0.000 N 
ATOM      8  C   UNL     1       3.781   6.274  18.143  0.00  0.00    +0.000 C 
ATOM      9  O   UNL     1       4.192   7.289  17.577  0.00  0.00    +0.000 OA
ATOM     10  N   UNL     1       4.225   4.964  17.877  0.00  0.00    +0.000 N 
ENDROOT
BRANCH  10  11
ATOM     11  C   UNL     1       5.167   4.816  16.800  0.00  0.00    +0.000 A 
ATOM     12  C   UNL     1       6.542   5.002  17.011  0.00  0.00    +0.000 A 
ATOM     13  C   UNL     1       7.439   4.835  15.956  0.00  0.00    +0.000 A 
ATOM     14  C   UNL     1       6.975   4.510  14.680  0.00  0.00    +0.000 A 
ATOM     15  C   UNL     1       5.606   4.350  14.457  0.00  0.00    +0.000 A 
ATOM     16  C   UNL     1       4.705   4.494  15.517  0.00  0.00    +0.000 A 
ENDBRANCH  10  11
BRANCH   2  17
ATOM     17  C   UNL     1       2.323   2.826  20.375  0.00  0.00    +0.000 C 
ATOM     18  N   UNL     1       2.610   2.809  21.722  0.00  0.00    +0.000 N 
ATOM     19  N   UNL     1       1.675   1.751  20.007  0.00  0.00    +0.000 NA
ATOM     20  H   UNL     1       2.617   3.718  22.178  0.00  0.00    +0.000 HD
ATOM     21  H   UNL     1       2.081   2.100  22.218  0.00  0.00    +0.000 HD
BRANCH  19  22
ATOM     22  O   UNL     1       1.475   1.637  18.637  0.00  0.00    +0.000 OA
ATOM     23  H   UNL     1       1.182   0.709  18.555  0.00  0.00    +0.000 HD
ENDBRANCH  19  22
ENDBRANCH   2  17
BRANCH   1  24
ATOM     24  N   UNL     1       4.576   2.684  18.612  0.00  0.00    +0.000 N 
ATOM     25  H   UNL     1       4.056   1.858  18.908  0.00  0.00    +0.000 HD
ATOM     26  H   UNL     1       5.091   2.553  17.749  0.00  0.00    +0.000 HD
ENDBRANCH   1  24
TORSDOF 4
ENDMDL
MODEL 2
REMARK VINA RESULT:      -7.2      0.023      1.056
REMARK  Name = 
REMARK  4 active torsions:
REMARK  status: ('A' for Active; 'I' for Inactive)
REMARK    1  A    between atoms: N_1  and  C_2
REMARK    2  A    between atoms: C_3  and  C_4
REMARK    3  A    between atoms: N_6  and  O_7
REMARK    4  A    between atoms: N_15  and  C_16
REMARK                            x       y       z     vdW  Elec       q    Type
REMARK                         _______ _______ _______ _____ _____    ______ ____
ROOT
ATOM      1  C   UNL     1       3.825   3.851  18.663  0.00  0.00    +0.000 C 
ATOM      2  C   UNL     1       2.760   3.983  19.502  0.00  0.00    +0.000 C 
ATOM      3  C   UNL     1       1.984   5.266  19.545  0.00  0.00    +0.000 C 
ATOM      4  C   UNL     1       1.464   5.802  20.885  0.00  0.00    +0.000 C 
ATOM      5  C   UNL     1       1.319   7.310  20.658  0.00  0.00    +0.000 C 
ATOM      6  C   UNL     1       2.332   7.643  19.575  0.00  0.00    +0.000 C 
ATOM      7  N   UNL     1       2.834   6.363  19.129  0.00  0.00    +0.000 N 
ATOM      8  C   UNL     1       3.772   6.263  18.134  0.00  0.00    +0.000 C 
ATOM      9  O   UNL     1       4.183   7.277  17.567  0.00  0.00    +0.000 OA
ATOM     10  N   UNL     1       4.211   4.952  17.865  0.00  0.00    +0.000 N 
ENDROOT
BRANCH  10  11
ATOM     11  C   UNL     1       5.146   4.802  16.783  0.00  0.00    +0.000 A 
ATOM     12  C   UNL     1       4.713   4.450  15.496  0.00  0.00    +0.000 A 
ATOM     13  C   UNL     1       5.637   4.328  14.457  0.00  0.00    +0.000 A 
ATOM     14  C   UNL     1       6.997   4.527  14.696  0.00  0.00    +0.000 A 
ATOM     15  C   UNL     1       7.438   4.851  15.981  0.00  0.00    +0.000 A 
ATOM     16  C   UNL     1       6.514   4.997  17.020  0.00  0.00    +0.000 A 
ENDBRANCH  10  11
BRANCH   2  17
ATOM     17  C   UNL     1       2.317   2.818  20.373  0.00  0.00    +0.000 C 
ATOM     18  N   UNL     1       2.615   2.798  21.717  0.00  0.00    +0.000 N 
ATOM     19  N   UNL     1       1.660   1.747  20.009  0.00  0.00    +0.000 NA
ATOM     20  H   UNL     1       2.631   3.705  22.175  0.00  0.00    +0.000 HD
ATOM     21  H   UNL     1       2.087   2.091  22.217  0.00  0.00    +0.000 HD
BRANCH  19  22
ATOM     22  O   UNL     1       1.449   1.636  18.640  0.00  0.00    +0.000 OA
ATOM     23  H   UNL     1       1.538   0.673  18.502  0.00  0.00    +0.000 HD
ENDBRANCH  19  22
ENDBRANCH   2  17
BRANCH   1  24
ATOM     24  N   UNL     1       4.560   2.671  18.598  0.00  0.00    +0.000 N 
ATOM     25  H   UNL     1       5.546   2.788  18.834  0.00  0.00    +0.000 HD
ATOM     26  H   UNL     1       4.124   1.877  19.054  0.00  0.00    +0.000 HD
ENDBRANCH   1  24
TORSDOF 4
ENDMDL
MODEL 3
REMARK VINA RESULT:      -7.0      1.907      2.559
REMARK  Name = 
REMARK  4 active torsions:
REMARK  status: ('A' for Active; 'I' for Inactive)
REMARK    1  A    between atoms: N_1  and  C_2
REMARK    2  A    between atoms: C_3  and  C_4
REMARK    3  A    between atoms: N_6  and  O_7
REMARK    4  A    between atoms: N_15  and  C_16
REMARK                            x       y       z     vdW  Elec       q    Type
REMARK                         _______ _______ _______ _____ _____    ______ ____
ROOT
ATOM      1  C   UNL     1       4.724   3.552  16.506  0.00  0.00    +0.000 C 
ATOM      2  C   UNL     1       3.794   3.699  17.490  0.00  0.00    +0.000 C 
ATOM      3  C   UNL     1       3.108   5.019  17.692  0.00  0.00    +0.000 C 
ATOM      4  C   UNL     1       2.810   5.517  19.113  0.00  0.00    +0.000 C 
ATOM      5  C   UNL     1       2.723   7.039  18.968  0.00  0.00    +0.000 C 
ATOM      6  C   UNL     1       3.596   7.370  17.768  0.00  0.00    +0.000 C 
ATOM      7  N   UNL     1       3.955   6.088  17.206  0.00  0.00    +0.000 N 
ATOM      8  C   UNL     1       4.740   5.986  16.086  0.00  0.00    +0.000 C 
ATOM      9  O   UNL     1       5.128   7.003  15.508  0.00  0.00    +0.000 OA
ATOM     10  N   UNL     1       5.060   4.668  15.706  0.00  0.00    +0.000 N 
ENDROOT
BRANCH  10  11
ATOM     11  C   UNL     1       5.828   4.521  14.499  0.00  0.00    +0.000 A 
ATOM     12  C   UNL     1       7.099   5.103  14.374  0.00  0.00    +0.000 A 
ATOM     13  C   UNL     1       7.833   4.932  13.200  0.00  0.00    +0.000 A 
ATOM     14  C   UNL     1       7.299   4.206  12.134  0.00  0.00    +0.000 A 
ATOM     15  C   UNL     1       6.024   3.647  12.242  0.00  0.00    +0.000 A 
ATOM     16  C   UNL     1       5.294   3.797  13.424  0.00  0.00    +0.000 A 
ENDBRANCH  10  11
BRANCH   2  17
ATOM     17  C   UNL     1       3.408   2.519  18.367  0.00  0.00    +0.000 C 
ATOM     18  N   UNL     1       2.191   1.896  18.204  0.00  0.00    +0.000 N 
ATOM     19  N   UNL     1       4.102   1.975  19.334  0.00  0.00    +0.000 NA
ATOM     20  H   UNL     1       1.840   1.867  17.250  0.00  0.00    +0.000 HD
ATOM     21  H   UNL     1       2.146   1.007  18.689  0.00  0.00    +0.000 HD
BRANCH  19  22
ATOM     22  O   UNL     1       5.281   2.641  19.645  0.00  0.00    +0.000 OA
ATOM     23  H   UNL     1       5.257   3.390  19.020  0.00  0.00    +0.000 HD
ENDBRANCH  19  22
ENDBRANCH   2  17
BRANCH   1  24
ATOM     24  N   UNL     1       5.373   2.340  16.291  0.00  0.00    +0.000 N 
ATOM     25  H   UNL     1       5.344   1.711  17.094  0.00  0.00    +0.000 HD
ATOM     26  H   UNL     1       5.143   1.888  15.413  0.00  0.00    +0.000 HD
ENDBRANCH   1  24
TORSDOF 4
ENDMDL
MODEL 4
REMARK VINA RESULT:      -6.9      1.912      2.761
REMARK  Name = 
REMARK  4 active torsions:
REMARK  status: ('A' for Active; 'I' for Inactive)
REMARK    1  A    between atoms: N_1  and  C_2
REMARK    2  A    between atoms: C_3  and  C_4
REMARK    3  A    between atoms: N_6  and  O_7
REMARK    4  A    between atoms: N_15  and  C_16
REMARK                            x       y       z     vdW  Elec       q    Type
REMARK                         _______ _______ _______ _____ _____    ______ ____
ROOT
ATOM      1  C   UNL     1       4.737   3.551  16.497  0.00  0.00    +0.000 C 
ATOM      2  C   UNL     1       3.812   3.697  17.487  0.00  0.00    +0.000 C 
ATOM      3  C   UNL     1       3.124   5.015  17.693  0.00  0.00    +0.000 C 
ATOM      4  C   UNL     1       2.833   5.512  19.116  0.00  0.00    +0.000 C 
ATOM      5  C   UNL     1       2.743   7.034  18.972  0.00  0.00    +0.000 C 
ATOM      6  C   UNL     1       3.609   7.366  17.768  0.00  0.00    +0.000 C 
ATOM      7  N   UNL     1       3.967   6.085  17.203  0.00  0.00    +0.000 N 
ATOM      8  C   UNL     1       4.747   5.986  16.079  0.00  0.00    +0.000 C 
ATOM      9  O   UNL     1       5.130   7.004  15.499  0.00  0.00    +0.000 OA
ATOM     10  N   UNL     1       5.067   4.669  15.697  0.00  0.00    +0.000 N 
ENDROOT
BRANCH  10  11
ATOM     11  C   UNL     1       5.828   4.523  14.486  0.00  0.00    +0.000 A 
ATOM     12  C   UNL     1       5.322   3.797  13.396  0.00  0.00    +0.000 A 
ATOM     13  C   UNL     1       6.071   3.685  12.224  0.00  0.00    +0.000 A 
ATOM     14  C   UNL     1       7.336   4.268  12.136  0.00  0.00    +0.000 A 
ATOM     15  C   UNL     1       7.856   4.968  13.226  0.00  0.00    +0.000 A 
ATOM     16  C   UNL     1       7.101   5.103  14.395  0.00  0.00    +0.000 A 
ENDBRANCH  10  11
BRANCH   2  17
ATOM     17  C   UNL     1       3.431   2.515  18.365  0.00  0.00    +0.000 C 
ATOM     18  N   UNL     1       2.225   1.876  18.192  0.00  0.00    +0.000 N 
ATOM     19  N   UNL     1       4.122   1.985  19.341  0.00  0.00    +0.000 NA
ATOM     20  H   UNL     1       1.884   1.838  17.235  0.00  0.00    +0.000 HD
ATOM     21  H   UNL     1       2.187   0.988  18.681  0.00  0.00    +0.000 HD
BRANCH  19  22
ATOM     22  O   UNL     1       5.289   2.668  19.662  0.00  0.00    +0.000 OA
ATOM     23  H   UNL     1       4.947   3.401  20.209  0.00  0.00    +0.000 HD
ENDBRANCH  19  22
ENDBRANCH   2  17
BRANCH   1  24
ATOM     24  N   UNL     1       5.385   2.340  16.279  0.00  0.00    +0.000 N 
ATOM     25  H   UNL     1       6.121   2.140  16.957  0.00  0.00    +0.000 HD
ATOM     26  H   UNL     1       4.767   1.556  16.107  0.00  0.00    +0.000 HD
ENDBRANCH   1  24
TORSDOF 4
ENDMDL
MODEL 5
REMARK VINA RESULT:      -6.8      2.252      6.122
REMARK  Name = 
REMARK  4 active torsions:
REMARK  status: ('A' for Active; 'I' for Inactive)
REMARK    1  A    between atoms: N_1  and  C_2
REMARK    2  A    between atoms: C_3  and  C_4
REMARK    3  A    between atoms: N_6  and  O_7
REMARK    4  A    between atoms: N_15  and  C_16
REMARK                            x       y       z     vdW  Elec       q    Type
REMARK                         _______ _______ _______ _____ _____    ______ ____
ROOT
ATOM      1  C   UNL     1       5.270   5.265  18.545  0.00  0.00    +0.000 C 
ATOM      2  C   UNL     1       6.061   5.764  17.555  0.00  0.00    +0.000 C 
ATOM      3  C   UNL     1       5.791   5.412  16.121  0.00  0.00    +0.000 C 
ATOM      4  C   UNL     1       6.962   5.158  15.162  0.00  0.00    +0.000 C 
ATOM      5  C   UNL     1       6.368   4.261  14.072  0.00  0.00    +0.000 C 
ATOM      6  C   UNL     1       5.226   3.522  14.750  0.00  0.00    +0.000 C 
ATOM      7  N   UNL     1       5.107   4.137  16.053  0.00  0.00    +0.000 N 
ATOM      8  C   UNL     1       4.158   3.733  16.957  0.00  0.00    +0.000 C 
ATOM      9  O   UNL     1       3.353   2.851  16.656  0.00  0.00    +0.000 OA
ATOM     10  N   UNL     1       4.219   4.382  18.206  0.00  0.00    +0.000 N 
ENDROOT
BRANCH  10  11
ATOM     11  C   UNL     1       3.199   4.031  19.157  0.00  0.00    +0.000 A 
ATOM     12  C   UNL     1       2.000   4.756  19.231  0.00  0.00    +0.000 A 
ATOM     13  C   UNL     1       1.016   4.386  20.150  0.00  0.00    +0.000 A 
ATOM     14  C   UNL     1       1.228   3.313  21.017  0.00  0.00    +0.000 A 
ATOM     15  C   UNL     1       2.430   2.604  20.966  0.00  0.00    +0.000 A 
ATOM     16  C   UNL     1       3.410   2.957  20.032  0.00  0.00    +0.000 A 
ENDBRANCH  10  11
BRANCH   2  17
ATOM     17  C   UNL     1       7.198   6.717  17.884  0.00  0.00    +0.000 C 
ATOM     18  N   UNL     1       7.295   7.935  17.249  0.00  0.00    +0.000 N 
ATOM     19  N   UNL     1       8.178   6.536  18.732  0.00  0.00    +0.000 NA
ATOM     20  H   UNL     1       6.410   8.375  17.010  0.00  0.00    +0.000 HD
ATOM     21  H   UNL     1       7.956   8.554  17.705  0.00  0.00    +0.000 HD
BRANCH  19  22
ATOM     22  O   UNL     1       8.220   5.272  19.306  0.00  0.00    +0.000 OA
ATOM     23  H   UNL     1       8.815   4.796  18.696  0.00  0.00    +0.000 HD
ENDBRANCH  19  22
ENDBRANCH   2  17
BRANCH   1  24
ATOM     24  N   UNL     1       5.492   5.577  19.882  0.00  0.00    +0.000 N 
ATOM     25  H   UNL     1       6.479   5.611  20.138  0.00  0.00    +0.000 HD
ATOM     26  H   UNL     1       4.956   6.367  20.225  0.00  0.00    +0.000 HD
ENDBRANCH   1  24
TORSDOF 4
ENDMDL
MODEL 6
REMARK VINA RESULT:      -6.8      2.256      6.079
REMARK  Name = 
REMARK  4 active torsions:
REMARK  status: ('A' for Active; 'I' for Inactive)
REMARK    1  A    between atoms: N_1  and  C_2
REMARK    2  A    between atoms: C_3  and  C_4
REMARK    3  A    between atoms: N_6  and  O_7
REMARK    4  A    between atoms: N_15  and  C_16
REMARK                            x       y       z     vdW  Elec       q    Type
REMARK                         _______ _______ _______ _____ _____    ______ ____
ROOT
ATOM      1  C   UNL     1       5.282   5.254  18.548  0.00  0.00    +0.000 C 
ATOM      2  C   UNL     1       6.067   5.759  17.556  0.00  0.00    +0.000 C 
ATOM      3  C   UNL     1       5.796   5.409  16.122  0.00  0.00    +0.000 C 
ATOM      4  C   UNL     1       6.967   5.163  15.161  0.00  0.00    +0.000 C 
ATOM      5  C   UNL     1       6.376   4.264  14.070  0.00  0.00    +0.000 C 
ATOM      6  C   UNL     1       5.241   3.517  14.750  0.00  0.00    +0.000 C 
ATOM      7  N   UNL     1       5.121   4.129  16.053  0.00  0.00    +0.000 N 
ATOM      8  C   UNL     1       4.176   3.718  16.959  0.00  0.00    +0.000 C 
ATOM      9  O   UNL     1       3.376   2.831  16.659  0.00  0.00    +0.000 OA
ATOM     10  N   UNL     1       4.236   4.364  18.209  0.00  0.00    +0.000 N 
ENDROOT
BRANCH  10  11
ATOM     11  C   UNL     1       3.220   4.005  19.162  0.00  0.00    +0.000 A 
ATOM     12  C   UNL     1       3.402   2.927  20.041  0.00  0.00    +0.000 A 
ATOM     13  C   UNL     1       2.410   2.608  20.969  0.00  0.00    +0.000 A 
ATOM     14  C   UNL     1       1.222   3.339  21.012  0.00  0.00    +0.000 A 
ATOM     15  C   UNL     1       1.024   4.397  20.121  0.00  0.00    +0.000 A 
ATOM     16  C   UNL     1       2.024   4.735  19.205  0.00  0.00    +0.000 A 
ENDBRANCH  10  11
BRANCH   2  17
ATOM     17  C   UNL     1       7.199   6.719  17.885  0.00  0.00    +0.000 C 
ATOM     18  N   UNL     1       7.287   7.939  17.252  0.00  0.00    +0.000 N 
ATOM     19  N   UNL     1       8.182   6.543  18.731  0.00  0.00    +0.000 NA
ATOM     20  H   UNL     1       6.399   8.373  17.015  0.00  0.00    +0.000 HD
ATOM     21  H   UNL     1       7.945   8.562  17.707  0.00  0.00    +0.000 HD
BRANCH  19  22
ATOM     22  O   UNL     1       8.233   5.278  19.303  0.00  0.00    +0.000 OA
ATOM     23  H   UNL     1       8.547   5.480  20.205  0.00  0.00    +0.000 HD
ENDBRANCH  19  22
ENDBRANCH   2  17
BRANCH   1  24
ATOM     24  N   UNL     1       5.505   5.565  19.885  0.00  0.00    +0.000 N 
ATOM     25  H   UNL     1       6.184   4.956  20.341  0.00  0.00    +0.000 HD
ATOM     26  H   UNL     1       5.656   6.551  20.069  0.00  0.00    +0.000 HD
ENDBRANCH   1  24
TORSDOF 4
ENDMDL
MODEL 7
REMARK VINA RESULT:      -6.8      0.952      1.169
REMARK  Name = 
REMARK  4 active torsions:
REMARK  status: ('A' for Active; 'I' for Inactive)
REMARK    1  A    between atoms: N_1  and  C_2
REMARK    2  A    between atoms: C_3  and  C_4
REMARK    3  A    between atoms: N_6  and  O_7
REMARK    4  A    between atoms: N_15  and  C_16
REMARK                            x       y       z     vdW  Elec       q    Type
REMARK                         _______ _______ _______ _____ _____    ______ ____
ROOT
ATOM      1  C   UNL     1       3.639   3.572  18.148  0.00  0.00    +0.000 C 
ATOM      2  C   UNL     1       2.544   3.677  18.951  0.00  0.00    +0.000 C 
ATOM      3  C   UNL     1       1.898   5.012  19.180  0.00  0.00    +0.000 C 
ATOM      4  C   UNL     1       1.355   5.371  20.570  0.00  0.00    +0.000 C 
ATOM      5  C   UNL     1       1.374   6.903  20.597  0.00  0.00    +0.000 C 
ATOM      6  C   UNL     1       2.478   7.299  19.632  0.00  0.00    +0.000 C 
ATOM      7  N   UNL     1       2.876   6.064  18.995  0.00  0.00    +0.000 N 
ATOM      8  C   UNL     1       3.858   6.030  18.038  0.00  0.00    +0.000 C 
ATOM      9  O   UNL     1       4.401   7.074  17.671  0.00  0.00    +0.000 OA
ATOM     10  N   UNL     1       4.180   4.742  17.567  0.00  0.00    +0.000 N 
ENDROOT
BRANCH  10  11
ATOM     11  C   UNL     1       5.159   4.673  16.516  0.00  0.00    +0.000 A 
ATOM     12  C   UNL     1       6.525   4.838  16.789  0.00  0.00    +0.000 A 
ATOM     13  C   UNL     1       7.460   4.749  15.756  0.00  0.00    +0.000 A 
ATOM     14  C   UNL     1       7.041   4.524  14.444  0.00  0.00    +0.000 A 
ATOM     15  C   UNL     1       5.680   4.386  14.162  0.00  0.00    +0.000 A 
ATOM     16  C   UNL     1       4.742   4.452  15.197  0.00  0.00    +0.000 A 
ENDBRANCH  10  11
BRANCH   2  17
ATOM     17  C   UNL     1       1.936   2.439  19.590  0.00  0.00    +0.000 C 
ATOM     18  N   UNL     1       0.923   1.753  18.958  0.00  0.00    +0.000 N 
ATOM     19  N   UNL     1       2.243   1.895  20.740  0.00  0.00    +0.000 NA
ATOM     20  H   UNL     1       0.968   1.745  17.943  0.00  0.00    +0.000 HD
ATOM     21  H   UNL     1       0.759   0.842  19.373  0.00  0.00    +0.000 HD
BRANCH  19  22
ATOM     22  O   UNL     1       3.161   2.615  21.494  0.00  0.00    +0.000 OA
ATOM     23  H   UNL     1       3.577   3.179  20.815  0.00  0.00    +0.000 HD
ENDBRANCH  19  22
ENDBRANCH   2  17
BRANCH   1  24
ATOM     24  N   UNL     1       4.255   2.347  17.912  0.00  0.00    +0.000 N 
ATOM     25  H   UNL     1       5.192   2.276  18.310  0.00  0.00    +0.000 HD
ATOM     26  H   UNL     1       3.672   1.539  18.099  0.00  0.00    +0.000 HD
ENDBRANCH   1  24
TORSDOF 4
ENDMDL
MODEL 8
REMARK VINA RESULT:      -6.8      0.953      1.575
REMARK  Name = 
REMARK  4 active torsions:
REMARK  status: ('A' for Active; 'I' for Inactive)
REMARK    1  A    between atoms: N_1  and  C_2
REMARK    2  A    between atoms: C_3  and  C_4
REMARK    3  A    between atoms: N_6  and  O_7
REMARK    4  A    between atoms: N_15  and  C_16
REMARK                            x       y       z     vdW  Elec       q    Type
REMARK                         _______ _______ _______ _____ _____    ______ ____
ROOT
ATOM      1  C   UNL     1       3.640   3.576  18.130  0.00  0.00    +0.000 C 
ATOM      2  C   UNL     1       2.547   3.678  18.937  0.00  0.00    +0.000 C 
ATOM      3  C   UNL     1       1.899   5.012  19.169  0.00  0.00    +0.000 C 
ATOM      4  C   UNL     1       1.358   5.368  20.560  0.00  0.00    +0.000 C 
ATOM      5  C   UNL     1       1.375   6.899  20.590  0.00  0.00    +0.000 C 
ATOM      6  C   UNL     1       2.477   7.299  19.623  0.00  0.00    +0.000 C 
ATOM      7  N   UNL     1       2.876   6.065  18.983  0.00  0.00    +0.000 N 
ATOM      8  C   UNL     1       3.856   6.034  18.025  0.00  0.00    +0.000 C 
ATOM      9  O   UNL     1       4.396   7.079  17.658  0.00  0.00    +0.000 OA
ATOM     10  N   UNL     1       4.178   4.748  17.551  0.00  0.00    +0.000 N 
ENDROOT
BRANCH  10  11
ATOM     11  C   UNL     1       5.155   4.682  16.498  0.00  0.00    +0.000 A 
ATOM     12  C   UNL     1       4.771   4.449  15.168  0.00  0.00    +0.000 A 
ATOM     13  C   UNL     1       5.735   4.408  14.160  0.00  0.00    +0.000 A 
ATOM     14  C   UNL     1       7.086   4.569  14.469  0.00  0.00    +0.000 A 
ATOM     15  C   UNL     1       7.478   4.774  15.794  0.00  0.00    +0.000 A 
ATOM     16  C   UNL     1       6.514   4.840  16.804  0.00  0.00    +0.000 A 
ENDBRANCH  10  11
BRANCH   2  17
ATOM     17  C   UNL     1       1.942   2.437  19.574  0.00  0.00    +0.000 C 
ATOM     18  N   UNL     1       0.930   1.750  18.942  0.00  0.00    +0.000 N 
ATOM     19  N   UNL     1       2.250   1.893  20.723  0.00  0.00    +0.000 NA
ATOM     20  H   UNL     1       0.974   1.743  17.927  0.00  0.00    +0.000 HD
ATOM     21  H   UNL     1       0.768   0.839  19.356  0.00  0.00    +0.000 HD
BRANCH  19  22
ATOM     22  O   UNL     1       3.167   2.614  21.477  0.00  0.00    +0.000 OA
ATOM     23  H   UNL     1       4.016   2.249  21.162  0.00  0.00    +0.000 HD
ENDBRANCH  19  22
ENDBRANCH   2  17
BRANCH   1  24
ATOM     24  N   UNL     1       4.258   2.352  17.892  0.00  0.00    +0.000 N 
ATOM     25  H   UNL     1       3.790   1.562  18.336  0.00  0.00    +0.000 HD
ATOM     26  H   UNL     1       4.504   2.186  16.922  0.00  0.00    +0.000 HD
ENDBRANCH   1  24
TORSDOF 4
ENDMDL
MODEL 9
REMARK VINA RESULT:      -6.7      1.798      2.664
REMARK  Name = 
REMARK  4 active torsions:
REMARK  status: ('A' for Active; 'I' for Inactive)
REMARK    1  A    between atoms: N_1  and  C_2
REMARK    2  A    between atoms: C_3  and  C_4
REMARK    3  A    between atoms: N_6  and  O_7
REMARK    4  A    between atoms: N_15  and  C_16
REMARK                            x       y       z     vdW  Elec       q    Type
REMARK                         _______ _______ _______ _____ _____    ______ ____
ROOT
ATOM      1  C   UNL     1       5.009   3.677  16.540  0.00  0.00    +0.000 C 
ATOM      2  C   UNL     1       4.147   3.836  17.583  0.00  0.00    +0.000 C 
ATOM      3  C   UNL     1       3.381   5.117  17.743  0.00  0.00    +0.000 C 
ATOM      4  C   UNL     1       3.154   5.702  19.144  0.00  0.00    +0.000 C 
ATOM      5  C   UNL     1       2.943   7.199  18.897  0.00  0.00    +0.000 C 
ATOM      6  C   UNL     1       3.696   7.495  17.610  0.00  0.00    +0.000 C 
ATOM      7  N   UNL     1       4.107   6.201  17.115  0.00  0.00    +0.000 N 
ATOM      8  C   UNL     1       4.812   6.067  15.946  0.00  0.00    +0.000 C 
ATOM      9  O   UNL     1       5.078   7.060  15.266  0.00  0.00    +0.000 OA
ATOM     10  N   UNL     1       5.200   4.749  15.637  0.00  0.00    +0.000 N 
ENDROOT
BRANCH  10  11
ATOM     11  C   UNL     1       5.884   4.561  14.386  0.00  0.00    +0.000 A 
ATOM     12  C   UNL     1       5.311   3.799  13.357  0.00  0.00    +0.000 A 
ATOM     13  C   UNL     1       5.985   3.645  12.144  0.00  0.00    +0.000 A 
ATOM     14  C   UNL     1       7.241   4.224  11.957  0.00  0.00    +0.000 A 
ATOM     15  C   UNL     1       7.828   4.962  12.987  0.00  0.00    +0.000 A 
ATOM     16  C   UNL     1       7.147   5.137  14.195  0.00  0.00    +0.000 A 
ENDBRANCH  10  11
BRANCH   2  17
ATOM     17  C   UNL     1       3.917   2.704  18.571  0.00  0.00    +0.000 C 
ATOM     18  N   UNL     1       4.773   2.519  19.633  0.00  0.00    +0.000 N 
ATOM     19  N   UNL     1       2.966   1.805  18.556  0.00  0.00    +0.000 NA
ATOM     20  H   UNL     1       5.174   3.367  20.024  0.00  0.00    +0.000 HD
ATOM     21  H   UNL     1       4.395   1.881  20.325  0.00  0.00    +0.000 HD
BRANCH  19  22
ATOM     22  O   UNL     1       2.147   1.849  17.434  0.00  0.00    +0.000 OA
ATOM     23  H   UNL     1       2.249   2.777  17.149  0.00  0.00    +0.000 HD
ENDBRANCH  19  22
ENDBRANCH   2  17
BRANCH   1  24
ATOM     24  N   UNL     1       5.728   2.500  16.362  0.00  0.00    +0.000 N 
ATOM     25  H   UNL     1       5.206   1.768  15.880  0.00  0.00    +0.000 HD
ATOM     26  H   UNL     1       6.668   2.630  16.005  0.00  0.00    +0.000 HD
ENDBRANCH   1  24
TORSDOF 4
ENDMDL
