MODEL 1
REMARK VINA RESULT:      -7.1      0.000      0.000
REMARK  Name = 
REMARK  4 active torsions:
REMARK  status: ('A' for Active; 'I' for Inactive)
REMARK    1  A    between atoms: C_2  and  C_3
REMARK    2  A    between atoms: C_4  and  C_5
REMARK    3  A    between atoms: N_13  and  C_14
REMARK    4  A    between atoms: C_14  and  C_15
REMARK                            x       y       z     vdW  Elec       q    Type
REMARK                         _______ _______ _______ _____ _____    ______ ____
ROOT
ATOM      1  O   UNL     1       7.359   7.678  16.811  0.00  0.00    +0.000 OA
ATOM      2  C   UNL     1       7.850   7.618  17.923  0.00  0.00    +0.000 C 
ATOM      3  N   UNL     1       7.977   6.458  18.632  0.00  0.00    +0.000 N 
ATOM      4  H   UNL     1       8.397   6.508  19.552  0.00  0.00    +0.000 HD
ENDROOT
BRANCH   2   5
ATOM      5  C   UNL     1       8.377   8.831  18.616  0.00  0.00    +0.000 C 
ATOM      6  C   UNL     1       8.774   9.909  17.918  0.00  0.00    +0.000 C 
BRANCH   6   7
ATOM      7  C   UNL     1       9.284  11.115  18.594  0.00  0.00    +0.000 A 
ATOM      8  C   UNL     1      10.247  10.966  19.606  0.00  0.00    +0.000 A 
ATOM      9  C   UNL     1      10.708  12.075  20.323  0.00  0.00    +0.000 A 
ATOM     10  C   UNL     1      10.218  13.344  20.026  0.00  0.00    +0.000 A 
ATOM     11 CL   UNL     1      10.763  14.701  20.931  0.00  0.00    +0.000 Cl
ATOM     12  C   UNL     1       9.286  13.518  19.006  0.00  0.00    +0.000 A 
ATOM     13  C   UNL     1       8.820  12.408  18.293  0.00  0.00    +0.000 A 
ATOM     14 CL   UNL     1       7.650  12.691  17.050  0.00  0.00    +0.000 Cl
ENDBRANCH   6   7
ENDBRANCH   2   5
BRANCH   3  15
ATOM     15  C   UNL     1       7.532   5.150  18.170  0.00  0.00    +0.000 C 
BRANCH  15  16
ATOM     16  C   UNL     1       6.026   5.043  18.188  0.00  0.00    +0.000 A 
ATOM     17  C   UNL     1       5.339   4.560  17.069  0.00  0.00    +0.000 A 
ATOM     18  C   UNL     1       3.956   4.493  17.112  0.00  0.00    +0.000 A 
ATOM     19  N   UNL     1       3.219   4.860  18.182  0.00  0.00    +0.000 NA
ATOM     20  C   UNL     1       3.897   5.312  19.258  0.00  0.00    +0.000 A 
ATOM     21  C   UNL     1       5.279   5.419  19.310  0.00  0.00    +0.000 A 
ENDBRANCH  15  16
ENDBRANCH   3  15
TORSDOF 4
ENDMDL
MODEL 2
REMARK VINA RESULT:      -7.1      1.420      1.571
REMARK  Name = 
REMARK  4 active torsions:
REMARK  status: ('A' for Active; 'I' for Inactive)
REMARK    1  A    between atoms: C_2  and  C_3
REMARK    2  A    between atoms: C_4  and  C_5
REMARK    3  A    between atoms: N_13  and  C_14
REMARK    4  A    between atoms: C_14  and  C_15
REMARK                            x       y       z     vdW  Elec       q    Type
REMARK                         _______ _______ _______ _____ _____    ______ ____
ROOT
ATOM      1  O   UNL     1       8.182   6.420  18.721  0.00  0.00    +0.000 OA
ATOM      2  C   UNL     1       7.930   7.521  18.270  0.00  0.00    +0.000 C 
ATOM      3  N   UNL     1       6.941   7.757  17.359  0.00  0.00    +0.000 N 
ATOM      4  H   UNL     1       6.808   8.709  17.038  0.00  0.00    +0.000 HD
ENDROOT
BRANCH   2   5
ATOM      5  C   UNL     1       8.689   8.736  18.692  0.00  0.00    +0.000 C 
ATOM      6  C   UNL     1       8.590   9.886  18.003  0.00  0.00    +0.000 C 
BRANCH   6   7
ATOM      7  C   UNL     1       9.326  11.094  18.418  0.00  0.00    +0.000 A 
ATOM      8  C   UNL     1      10.449  10.949  19.249  0.00  0.00    +0.000 A 
ATOM      9  C   UNL     1      11.136  12.070  19.726  0.00  0.00    +0.000 A 
ATOM     10  C   UNL     1      10.712  13.346  19.365  0.00  0.00    +0.000 A 
ATOM     11 CL   UNL     1      11.538  14.724  19.978  0.00  0.00    +0.000 Cl
ATOM     12  C   UNL     1       9.619  13.512  18.518  0.00  0.00    +0.000 A 
ATOM     13  C   UNL     1       8.928  12.391  18.046  0.00  0.00    +0.000 A 
ATOM     14 CL   UNL     1       7.571  12.666  17.010  0.00  0.00    +0.000 Cl
ENDBRANCH   6   7
ENDBRANCH   2   5
BRANCH   3  15
ATOM     15  C   UNL     1       6.073   6.734  16.793  0.00  0.00    +0.000 C 
BRANCH  15  16
ATOM     16  C   UNL     1       4.837   6.532  17.637  0.00  0.00    +0.000 A 
ATOM     17  C   UNL     1       3.718   7.352  17.457  0.00  0.00    +0.000 A 
ATOM     18  C   UNL     1       2.607   7.152  18.261  0.00  0.00    +0.000 A 
ATOM     19  N   UNL     1       2.532   6.198  19.214  0.00  0.00    +0.000 NA
ATOM     20  C   UNL     1       3.615   5.408  19.366  0.00  0.00    +0.000 A 
ATOM     21  C   UNL     1       4.773   5.531  18.613  0.00  0.00    +0.000 A 
ENDBRANCH  15  16
ENDBRANCH   3  15
TORSDOF 4
ENDMDL
MODEL 3
REMARK VINA RESULT:      -7.0      1.876      2.388
REMARK  Name = 
REMARK  4 active torsions:
REMARK  status: ('A' for Active; 'I' for Inactive)
REMARK    1  A    between atoms: C_2  and  C_3
REMARK    2  A    between atoms: C_4  and  C_5
REMARK    3  A    between atoms: N_13  and  C_14
REMARK    4  A    between atoms: C_14  and  C_15
REMARK                            x       y       z     vdW  Elec       q    Type
REMARK                         _______ _______ _______ _____ _____    ______ ____
ROOT
ATOM      1  O   UNL     1       8.540   7.569  18.772  0.00  0.00    +0.000 OA
ATOM      2  C   UNL     1       7.994   8.238  17.915  0.00  0.00    +0.000 C 
ATOM      3  N   UNL     1       7.097   7.732  17.018  0.00  0.00    +0.000 N 
ATOM      4  H   UNL     1       6.696   8.368  16.338  0.00  0.00    +0.000 HD
ENDROOT
BRANCH   2   5
ATOM      5  C   UNL     1       8.253   9.702  17.777  0.00  0.00    +0.000 C 
ATOM      6  C   UNL     1       9.204  10.308  18.508  0.00  0.00    +0.000 C 
BRANCH   6   7
ATOM      7  C   UNL     1       9.475  11.749  18.370  0.00  0.00    +0.000 A 
ATOM      8  C   UNL     1       8.445  12.590  17.917  0.00  0.00    +0.000 A 
ATOM      9  C   UNL     1       8.676  13.953  17.704  0.00  0.00    +0.000 A 
ATOM     10  C   UNL     1       9.937  14.488  17.952  0.00  0.00    +0.000 A 
ATOM     11 CL   UNL     1      10.227  16.158  17.658  0.00  0.00    +0.000 Cl
ATOM     12  C   UNL     1      10.964  13.679  18.430  0.00  0.00    +0.000 A 
ATOM     13  C   UNL     1      10.735  12.315  18.638  0.00  0.00    +0.000 A 
ATOM     14 CL   UNL     1      12.057  11.361  19.217  0.00  0.00    +0.000 Cl
ENDBRANCH   6   7
ENDBRANCH   2   5
BRANCH   3  15
ATOM     15  C   UNL     1       6.690   6.335  16.949  0.00  0.00    +0.000 C 
BRANCH  15  16
ATOM     16  C   UNL     1       5.416   6.095  17.723  0.00  0.00    +0.000 A 
ATOM     17  C   UNL     1       5.398   5.188  18.789  0.00  0.00    +0.000 A 
ATOM     18  C   UNL     1       4.208   4.976  19.466  0.00  0.00    +0.000 A 
ATOM     19  N   UNL     1       3.051   5.604  19.164  0.00  0.00    +0.000 NA
ATOM     20  C   UNL     1       3.087   6.484  18.143  0.00  0.00    +0.000 A 
ATOM     21  C   UNL     1       4.228   6.762  17.403  0.00  0.00    +0.000 A 
ENDBRANCH  15  16
ENDBRANCH   3  15
TORSDOF 4
ENDMDL
MODEL 4
REMARK VINA RESULT:      -7.0      5.137      7.342
REMARK  Name = 
REMARK  4 active torsions:
REMARK  status: ('A' for Active; 'I' for Inactive)
REMARK    1  A    between atoms: C_2  and  C_3
REMARK    2  A    between atoms: C_4  and  C_5
REMARK    3  A    between atoms: N_13  and  C_14
REMARK    4  A    between atoms: C_14  and  C_15
REMARK                            x       y       z     vdW  Elec       q    Type
REMARK                         _______ _______ _______ _____ _____    ______ ____
ROOT
ATOM      1  O   UNL     1       2.428   4.904  18.103  0.00  0.00    +0.000 OA
ATOM      2  C   UNL     1       2.828   5.376  19.150  0.00  0.00    +0.000 C 
ATOM      3  N   UNL     1       4.048   5.088  19.692  0.00  0.00    +0.000 N 
ATOM      4  H   UNL     1       4.293   5.529  20.571  0.00  0.00    +0.000 HD
ENDROOT
BRANCH   2   5
ATOM      5  C   UNL     1       2.009   6.341  19.942  0.00  0.00    +0.000 C 
ATOM      6  C   UNL     1       2.137   7.667  19.762  0.00  0.00    +0.000 C 
BRANCH   6   7
ATOM      7  C   UNL     1       1.324   8.626  20.530  0.00  0.00    +0.000 A 
ATOM      8  C   UNL     1       1.332   8.548  21.933  0.00  0.00    +0.000 A 
ATOM      9  C   UNL     1       0.523   9.392  22.701  0.00  0.00    +0.000 A 
ATOM     10  C   UNL     1      -0.294  10.328  22.073  0.00  0.00    +0.000 A 
ATOM     11 CL   UNL     1      -1.312  11.342  23.018  0.00  0.00    +0.000 Cl
ATOM     12  C   UNL     1      -0.295  10.443  20.685  0.00  0.00    +0.000 A 
ATOM     13  C   UNL     1       0.510   9.595  19.916  0.00  0.00    +0.000 A 
ATOM     14 CL   UNL     1       0.450   9.779  18.197  0.00  0.00    +0.000 Cl
ENDBRANCH   6   7
ENDBRANCH   2   5
BRANCH   3  15
ATOM     15  C   UNL     1       5.019   4.172  19.110  0.00  0.00    +0.000 C 
BRANCH  15  16
ATOM     16  C   UNL     1       5.887   4.866  18.087  0.00  0.00    +0.000 A 
ATOM     17  C   UNL     1       6.603   6.017  18.434  0.00  0.00    +0.000 A 
ATOM     18  C   UNL     1       7.374   6.640  17.466  0.00  0.00    +0.000 A 
ATOM     19  N   UNL     1       7.487   6.197  16.195  0.00  0.00    +0.000 NA
ATOM     20  C   UNL     1       6.800   5.080  15.880  0.00  0.00    +0.000 A 
ATOM     21  C   UNL     1       6.000   4.386  16.777  0.00  0.00    +0.000 A 
ENDBRANCH  15  16
ENDBRANCH   3  15
TORSDOF 4
ENDMDL
MODEL 5
REMARK VINA RESULT:      -6.9      5.146      7.418
REMARK  Name = 
REMARK  4 active torsions:
REMARK  status: ('A' for Active; 'I' for Inactive)
REMARK    1  A    between atoms: C_2  and  C_3
REMARK    2  A    between atoms: C_4  and  C_5
REMARK    3  A    between atoms: N_13  and  C_14
REMARK    4  A    between atoms: C_14  and  C_15
REMARK                            x       y       z     vdW  Elec       q    Type
REMARK                         _______ _______ _______ _____ _____    ______ ____
ROOT
ATOM      1  O   UNL     1       2.228   5.232  18.368  0.00  0.00    +0.000 OA
ATOM      2  C   UNL     1       2.645   5.693  19.414  0.00  0.00    +0.000 C 
ATOM      3  N   UNL     1       3.865   5.381  19.944  0.00  0.00    +0.000 N 
ATOM      4  H   UNL     1       4.125   5.813  20.822  0.00  0.00    +0.000 HD
ENDROOT
BRANCH   2   5
ATOM      5  C   UNL     1       1.850   6.668  20.217  0.00  0.00    +0.000 C 
ATOM      6  C   UNL     1       1.799   7.967  19.875  0.00  0.00    +0.000 C 
BRANCH   6   7
ATOM      7  C   UNL     1       1.007   8.935  20.654  0.00  0.00    +0.000 A 
ATOM      8  C   UNL     1       1.034   8.856  22.057  0.00  0.00    +0.000 A 
ATOM      9  C   UNL     1       0.244   9.708  22.836  0.00  0.00    +0.000 A 
ATOM     10  C   UNL     1      -0.571  10.652  22.219  0.00  0.00    +0.000 A 
ATOM     11 CL   UNL     1      -1.566  11.677  23.178  0.00  0.00    +0.000 Cl
ATOM     12  C   UNL     1      -0.590  10.768  20.831  0.00  0.00    +0.000 A 
ATOM     13  C   UNL     1       0.195   9.912  20.051  0.00  0.00    +0.000 A 
ATOM     14 CL   UNL     1       0.114  10.097  18.333  0.00  0.00    +0.000 Cl
ENDBRANCH   6   7
ENDBRANCH   2   5
BRANCH   3  15
ATOM     15  C   UNL     1       4.815   4.451  19.349  0.00  0.00    +0.000 C 
BRANCH  15  16
ATOM     16  C   UNL     1       5.718   5.145  18.358  0.00  0.00    +0.000 A 
ATOM     17  C   UNL     1       5.452   5.067  16.986  0.00  0.00    +0.000 A 
ATOM     18  C   UNL     1       6.312   5.699  16.102  0.00  0.00    +0.000 A 
ATOM     19  N   UNL     1       7.399   6.402  16.486  0.00  0.00    +0.000 NA
ATOM     20  C   UNL     1       7.634   6.479  17.812  0.00  0.00    +0.000 A 
ATOM     21  C   UNL     1       6.835   5.878  18.774  0.00  0.00    +0.000 A 
ENDBRANCH  15  16
ENDBRANCH   3  15
TORSDOF 4
ENDMDL
MODEL 6
REMARK VINA RESULT:      -6.9      5.352      7.199
REMARK  Name = 
REMARK  4 active torsions:
REMARK  status: ('A' for Active; 'I' for Inactive)
REMARK    1  A    between atoms: C_2  and  C_3
REMARK    2  A    between atoms: C_4  and  C_5
REMARK    3  A    between atoms: N_13  and  C_14
REMARK    4  A    between atoms: C_14  and  C_15
REMARK                            x       y       z     vdW  Elec       q    Type
REMARK                         _______ _______ _______ _____ _____    ______ ____
ROOT
ATOM      1  O   UNL     1       3.159   4.032  20.202  0.00  0.00    +0.000 OA
ATOM      2  C   UNL     1       2.866   5.063  19.627  0.00  0.00    +0.000 C 
ATOM      3  N   UNL     1       3.056   5.262  18.289  0.00  0.00    +0.000 N 
ATOM      4  H   UNL     1       2.783   6.157  17.899  0.00  0.00    +0.000 HD
ENDROOT
BRANCH   2   5
ATOM      5  C   UNL     1       2.250   6.217  20.346  0.00  0.00    +0.000 C 
ATOM      6  C   UNL     1       1.954   7.357  19.697  0.00  0.00    +0.000 C 
BRANCH   6   7
ATOM      7  C   UNL     1       1.335   8.497  20.395  0.00  0.00    +0.000 A 
ATOM      8  C   UNL     1       0.983   8.352  21.747  0.00  0.00    +0.000 A 
ATOM      9  C   UNL     1       0.329   9.382  22.431  0.00  0.00    +0.000 A 
ATOM     10  C   UNL     1       0.032  10.571  21.771  0.00  0.00    +0.000 A 
ATOM     11 CL   UNL     1      -0.801  11.824  22.605  0.00  0.00    +0.000 Cl
ATOM     12  C   UNL     1       0.398  10.748  20.439  0.00  0.00    +0.000 A 
ATOM     13  C   UNL     1       1.047   9.716  19.753  0.00  0.00    +0.000 A 
ATOM     14 CL   UNL     1       1.461   9.993  18.097  0.00  0.00    +0.000 Cl
ENDBRANCH   6   7
ENDBRANCH   2   5
BRANCH   3  15
ATOM     15  C   UNL     1       3.646   4.289  17.380  0.00  0.00    +0.000 C 
BRANCH  15  16
ATOM     16  C   UNL     1       4.970   4.772  16.838  0.00  0.00    +0.000 A 
ATOM     17  C   UNL     1       5.532   4.170  15.707  0.00  0.00    +0.000 A 
ATOM     18  C   UNL     1       6.757   4.625  15.247  0.00  0.00    +0.000 A 
ATOM     19  N   UNL     1       7.448   5.632  15.823  0.00  0.00    +0.000 NA
ATOM     20  C   UNL     1       6.887   6.211  16.904  0.00  0.00    +0.000 A 
ATOM     21  C   UNL     1       5.667   5.825  17.442  0.00  0.00    +0.000 A 
ENDBRANCH  15  16
ENDBRANCH   3  15
TORSDOF 4
ENDMDL
MODEL 7
REMARK VINA RESULT:      -6.9      1.371      1.415
REMARK  Name = 
REMARK  4 active torsions:
REMARK  status: ('A' for Active; 'I' for Inactive)
REMARK    1  A    between atoms: C_2  and  C_3
REMARK    2  A    between atoms: C_4  and  C_5
REMARK    3  A    between atoms: N_13  and  C_14
REMARK    4  A    between atoms: C_14  and  C_15
REMARK                            x       y       z     vdW  Elec       q    Type
REMARK                         _______ _______ _______ _____ _____    ______ ____
ROOT
ATOM      1  O   UNL     1       7.836   6.277  18.894  0.00  0.00    +0.000 OA
ATOM      2  C   UNL     1       7.844   7.304  18.242  0.00  0.00    +0.000 C 
ATOM      3  N   UNL     1       7.176   7.454  17.061  0.00  0.00    +0.000 N 
ATOM      4  H   UNL     1       7.244   8.347  16.587  0.00  0.00    +0.000 HD
ENDROOT
BRANCH   2   5
ATOM      5  C   UNL     1       8.591   8.516  18.692  0.00  0.00    +0.000 C 
ATOM      6  C   UNL     1       8.480   9.681  18.031  0.00  0.00    +0.000 C 
BRANCH   6   7
ATOM      7  C   UNL     1       9.203  10.886  18.474  0.00  0.00    +0.000 A 
ATOM      8  C   UNL     1      10.284  10.738  19.360  0.00  0.00    +0.000 A 
ATOM      9  C   UNL     1      10.955  11.857  19.863  0.00  0.00    +0.000 A 
ATOM     10  C   UNL     1      10.558  13.134  19.476  0.00  0.00    +0.000 A 
ATOM     11 CL   UNL     1      11.364  14.510  20.120  0.00  0.00    +0.000 Cl
ATOM     12  C   UNL     1       9.509  13.303  18.575  0.00  0.00    +0.000 A 
ATOM     13  C   UNL     1       8.833  12.183  18.077  0.00  0.00    +0.000 A 
ATOM     14 CL   UNL     1       7.529  12.462  16.975  0.00  0.00    +0.000 Cl
ENDBRANCH   6   7
ENDBRANCH   2   5
BRANCH   3  15
ATOM     15  C   UNL     1       6.386   6.414  16.416  0.00  0.00    +0.000 C 
BRANCH  15  16
ATOM     16  C   UNL     1       5.062   6.215  17.114  0.00  0.00    +0.000 A 
ATOM     17  C   UNL     1       4.646   4.932  17.485  0.00  0.00    +0.000 A 
ATOM     18  C   UNL     1       3.417   4.782  18.107  0.00  0.00    +0.000 A 
ATOM     19  N   UNL     1       2.589   5.809  18.390  0.00  0.00    +0.000 NA
ATOM     20  C   UNL     1       3.010   7.042  18.038  0.00  0.00    +0.000 A 
ATOM     21  C   UNL     1       4.221   7.294  17.409  0.00  0.00    +0.000 A 
ENDBRANCH  15  16
ENDBRANCH   3  15
TORSDOF 4
ENDMDL
MODEL 8
REMARK VINA RESULT:      -6.9      5.545      7.597
REMARK  Name = 
REMARK  4 active torsions:
REMARK  status: ('A' for Active; 'I' for Inactive)
REMARK    1  A    between atoms: C_2  and  C_3
REMARK    2  A    between atoms: C_4  and  C_5
REMARK    3  A    between atoms: N_13  and  C_14
REMARK    4  A    between atoms: C_14  and  C_15
REMARK                            x       y       z     vdW  Elec       q    Type
REMARK                         _______ _______ _______ _____ _____    ______ ____
ROOT
ATOM      1  O   UNL     1       3.198   4.663  20.463  0.00  0.00    +0.000 OA
ATOM      2  C   UNL     1       2.472   5.393  19.816  0.00  0.00    +0.000 C 
ATOM      3  N   UNL     1       2.343   5.322  18.458  0.00  0.00    +0.000 N 
ATOM      4  H   UNL     1       1.715   5.975  18.006  0.00  0.00    +0.000 HD
ENDROOT
BRANCH   2   5
ATOM      5  C   UNL     1       1.633   6.444  20.464  0.00  0.00    +0.000 C 
ATOM      6  C   UNL     1       1.875   7.750  20.253  0.00  0.00    +0.000 C 
BRANCH   6   7
ATOM      7  C   UNL     1       1.045   8.794  20.879  0.00  0.00    +0.000 A 
ATOM      8  C   UNL     1       0.917   8.808  22.278  0.00  0.00    +0.000 A 
ATOM      9  C   UNL     1       0.084   9.736  22.911  0.00  0.00    +0.000 A 
ATOM     10  C   UNL     1      -0.619  10.666  22.151  0.00  0.00    +0.000 A 
ATOM     11 CL   UNL     1      -1.668  11.786  22.929  0.00  0.00    +0.000 Cl
ATOM     12  C   UNL     1      -0.484  10.690  20.765  0.00  0.00    +0.000 A 
ATOM     13  C   UNL     1       0.344   9.758  20.131  0.00  0.00    +0.000 A 
ATOM     14 CL   UNL     1       0.457   9.831  18.406  0.00  0.00    +0.000 Cl
ENDBRANCH   6   7
ENDBRANCH   2   5
BRANCH   3  15
ATOM     15  C   UNL     1       3.062   4.385  17.605  0.00  0.00    +0.000 C 
BRANCH  15  16
ATOM     16  C   UNL     1       4.374   4.965  17.134  0.00  0.00    +0.000 A 
ATOM     17  C   UNL     1       4.674   6.312  17.364  0.00  0.00    +0.000 A 
ATOM     18  C   UNL     1       5.878   6.817  16.901  0.00  0.00    +0.000 A 
ATOM     19  N   UNL     1       6.797   6.081  16.242  0.00  0.00    +0.000 NA
ATOM     20  C   UNL     1       6.500   4.781  16.039  0.00  0.00    +0.000 A 
ATOM     21  C   UNL     1       5.320   4.183  16.460  0.00  0.00    +0.000 A 
ENDBRANCH  15  16
ENDBRANCH   3  15
TORSDOF 4
ENDMDL
MODEL 9
REMARK VINA RESULT:      -6.8      5.829      7.413
REMARK  Name = 
REMARK  4 active torsions:
REMARK  status: ('A' for Active; 'I' for Inactive)
REMARK    1  A    between atoms: C_2  and  C_3
REMARK    2  A    between atoms: C_4  and  C_5
REMARK    3  A    between atoms: N_13  and  C_14
REMARK    4  A    between atoms: C_14  and  C_15
REMARK                            x       y       z     vdW  Elec       q    Type
REMARK                         _______ _______ _______ _____ _____    ______ ____
ROOT
ATOM      1  O   UNL     1       1.566   4.608  19.815  0.00  0.00    +0.000 OA
ATOM      2  C   UNL     1       2.202   5.591  20.145  0.00  0.00    +0.000 C 
ATOM      3  N   UNL     1       3.537   5.745  19.903  0.00  0.00    +0.000 N 
ATOM      4  H   UNL     1       3.982   6.599  20.218  0.00  0.00    +0.000 HD
ENDROOT
BRANCH   2   5
ATOM      5  C   UNL     1       1.562   6.744  20.846  0.00  0.00    +0.000 C 
ATOM      6  C   UNL     1       1.528   7.964  20.282  0.00  0.00    +0.000 C 
BRANCH   6   7
ATOM      7  C   UNL     1       0.888   9.104  20.961  0.00  0.00    +0.000 A 
ATOM      8  C   UNL     1       0.382   8.921  22.259  0.00  0.00    +0.000 A 
ATOM      9  C   UNL     1      -0.296   9.954  22.915  0.00  0.00    +0.000 A 
ATOM     10  C   UNL     1      -0.464  11.182  22.281  0.00  0.00    +0.000 A 
ATOM     11 CL   UNL     1      -1.326  12.440  23.077  0.00  0.00    +0.000 Cl
ATOM     12  C   UNL     1       0.055  11.395  21.007  0.00  0.00    +0.000 A 
ATOM     13  C   UNL     1       0.728  10.360  20.348  0.00  0.00    +0.000 A 
ATOM     14 CL   UNL     1       1.335  10.684  18.761  0.00  0.00    +0.000 Cl
ENDBRANCH   6   7
ENDBRANCH   2   5
BRANCH   3  15
ATOM     15  C   UNL     1       4.380   4.757  19.242  0.00  0.00    +0.000 C 
BRANCH  15  16
ATOM     16  C   UNL     1       4.751   5.196  17.846  0.00  0.00    +0.000 A 
ATOM     17  C   UNL     1       5.211   4.262  16.911  0.00  0.00    +0.000 A 
ATOM     18  C   UNL     1       5.562   4.701  15.644  0.00  0.00    +0.000 A 
ATOM     19  N   UNL     1       5.477   5.988  15.246  0.00  0.00    +0.000 NA
ATOM     20  C   UNL     1       5.019   6.875  16.155  0.00  0.00    +0.000 A 
ATOM     21  C   UNL     1       4.647   6.534  17.447  0.00  0.00    +0.000 A 
ENDBRANCH  15  16
ENDBRANCH   3  15
TORSDOF 4
ENDMDL
