MODEL 1
REMARK VINA RESULT:      -8.3      0.000      0.000
REMARK  Name = 
REMARK  9 active torsions:
REMARK  status: ('A' for Active; 'I' for Inactive)
REMARK    1  A    between atoms: C_1  and  O_2
REMARK    2  A    between atoms: O_2  and  C_3
REMARK    3  A    between atoms: C_5  and  C_6
REMARK    4  A    between atoms: C_7  and  C_8
REMARK    5  A    between atoms: C_8  and  C_10
REMARK    6  A    between atoms: C_11  and  C_12
REMARK    7  A    between atoms: C_16  and  N_17
REMARK    8  A    between atoms: N_23  and  C_24
REMARK    9  A    between atoms: C_27  and  O_28
REMARK                            x       y       z     vdW  Elec       q    Type
REMARK                         _______ _______ _______ _____ _____    ______ ____
ROOT
ATOM      1  C   UNL     1       1.707   9.145  18.861  0.00  0.00    +0.000 C 
ATOM      2  C   UNL     1       1.951   7.856  19.155  0.00  0.00    +0.000 C 
ENDROOT
BRANCH   2   3
ATOM      3  C   UNL     1       2.853   7.084  18.361  0.00  0.00    +0.000 A 
ATOM      4  N   UNL     1       3.736   7.494  17.466  0.00  0.00    +0.000 NA
ATOM      5  C   UNL     1       4.338   6.367  16.958  0.00  0.00    +0.000 A 
ATOM      6  C   UNL     1       5.332   6.254  15.973  0.00  0.00    +0.000 A 
ATOM      7  C   UNL     1       5.776   4.967  15.623  0.00  0.00    +0.000 A 
ATOM      8  C   UNL     1       5.251   3.821  16.234  0.00  0.00    +0.000 A 
ATOM      9  C   UNL     1       4.262   3.931  17.220  0.00  0.00    +0.000 A 
ATOM     10  C   UNL     1       3.826   5.222  17.557  0.00  0.00    +0.000 A 
ATOM     11  N   UNL     1       2.883   5.699  18.449  0.00  0.00    +0.000 N 
ATOM     12  C   UNL     1       2.068   4.865  19.303  0.00  0.00    +0.000 C 
BRANCH   7  13
ATOM     13  N   UNL     1       6.812   4.815  14.589  0.00  0.00    +0.000 N 
ATOM     14  O   UNL     1       6.584   4.036  13.654  0.00  0.00    +0.000 OA
ATOM     15  O   UNL     1       7.850   5.476  14.715  0.00  0.00    +0.000 OA
ENDBRANCH   7  13
ENDBRANCH   2   3
BRANCH   1  16
ATOM     16  C   UNL     1       0.742   9.945  19.681  0.00  0.00    +0.000 C 
ATOM     17  O   UNL     1       1.044  10.423  20.767  0.00  0.00    +0.000 OA
BRANCH  16  19
ATOM     18  C   UNL     1      -1.328  11.251  19.210  0.00  0.00    +0.000 C 
ATOM     19  C   UNL     1      -0.611  10.122  19.069  0.00  0.00    +0.000 C 
BRANCH  18  22
ATOM     20  C   UNL     1      -4.206  11.183  16.696  0.00  0.00    +0.000 A 
ATOM     21  C   UNL     1      -2.942  10.995  17.300  0.00  0.00    +0.000 A 
ATOM     22  C   UNL     1      -2.659  11.467  18.594  0.00  0.00    +0.000 A 
ATOM     23  C   UNL     1      -3.692  12.097  19.297  0.00  0.00    +0.000 A 
ATOM     24  C   UNL     1      -4.946  12.295  18.713  0.00  0.00    +0.000 A 
ATOM     25  C   UNL     1      -5.202  11.848  17.417  0.00  0.00    +0.000 A 
BRANCH  20  27
ATOM     26  C   UNL     1      -3.084  10.330  14.754  0.00  0.00    +0.000 C 
ATOM     27  O   UNL     1      -4.293  10.667  15.427  0.00  0.00    +0.000 OA
ENDBRANCH  20  27
BRANCH  25  28
ATOM     28  O   UNL     1      -6.443  12.078  16.893  0.00  0.00    +0.000 OA
ATOM     29  H   UNL     1      -6.512  11.648  16.025  0.00  0.00    +0.000 HD
ENDBRANCH  25  28
ENDBRANCH  18  22
ENDBRANCH  16  19
ENDBRANCH   1  16
TORSDOF 7
ENDMDL
MODEL 2
REMARK VINA RESULT:      -8.2      4.001     10.495
REMARK  Name = 
REMARK  9 active torsions:
REMARK  status: ('A' for Active; 'I' for Inactive)
REMARK    1  A    between atoms: C_1  and  O_2
REMARK    2  A    between atoms: O_2  and  C_3
REMARK    3  A    between atoms: C_5  and  C_6
REMARK    4  A    between atoms: C_7  and  C_8
REMARK    5  A    between atoms: C_8  and  C_10
REMARK    6  A    between atoms: C_11  and  C_12
REMARK    7  A    between atoms: C_16  and  N_17
REMARK    8  A    between atoms: N_23  and  C_24
REMARK    9  A    between atoms: C_27  and  O_28
REMARK                            x       y       z     vdW  Elec       q    Type
REMARK                         _______ _______ _______ _____ _____    ______ ____
ROOT
ATOM      1  C   UNL     1       1.498   6.203  20.762  0.00  0.00    +0.000 C 
ATOM      2  C   UNL     1       1.944   7.470  20.709  0.00  0.00    +0.000 C 
ENDROOT
BRANCH   2   3
ATOM      3  C   UNL     1       1.085   8.562  21.036  0.00  0.00    +0.000 A 
ATOM      4  N   UNL     1       0.513   8.856  22.192  0.00  0.00    +0.000 NA
ATOM      5  C   UNL     1      -0.239   9.988  21.986  0.00  0.00    +0.000 A 
ATOM      6  C   UNL     1      -1.049  10.697  22.887  0.00  0.00    +0.000 A 
ATOM      7  C   UNL     1      -1.730  11.833  22.416  0.00  0.00    +0.000 A 
ATOM      8  C   UNL     1      -1.610  12.258  21.086  0.00  0.00    +0.000 A 
ATOM      9  C   UNL     1      -0.799  11.555  20.186  0.00  0.00    +0.000 A 
ATOM     10  C   UNL     1      -0.129  10.421  20.669  0.00  0.00    +0.000 A 
ATOM     11  N   UNL     1       0.720   9.502  20.081  0.00  0.00    +0.000 N 
ATOM     12  C   UNL     1       1.125   9.532  18.694  0.00  0.00    +0.000 C 
BRANCH   7  13
ATOM     13  N   UNL     1      -2.592  12.593  23.335  0.00  0.00    +0.000 N 
ATOM     14  O   UNL     1      -3.501  11.982  23.912  0.00  0.00    +0.000 OA
ATOM     15  O   UNL     1      -2.356  13.800  23.477  0.00  0.00    +0.000 OA
ENDBRANCH   7  13
ENDBRANCH   2   3
BRANCH   1  16
ATOM     16  C   UNL     1       2.394   5.061  20.394  0.00  0.00    +0.000 C 
ATOM     17  O   UNL     1       2.305   3.962  20.925  0.00  0.00    +0.000 OA
BRANCH  16  19
ATOM     18  C   UNL     1       3.954   4.406  18.564  0.00  0.00    +0.000 C 
ATOM     19  C   UNL     1       3.396   5.363  19.326  0.00  0.00    +0.000 C 
BRANCH  18  22
ATOM     20  C   UNL     1       6.750   6.044  16.537  0.00  0.00    +0.000 A 
ATOM     21  C   UNL     1       5.808   5.772  17.554  0.00  0.00    +0.000 A 
ATOM     22  C   UNL     1       4.929   4.677  17.480  0.00  0.00    +0.000 A 
ATOM     23  C   UNL     1       5.044   3.823  16.376  0.00  0.00    +0.000 A 
ATOM     24  C   UNL     1       5.967   4.080  15.360  0.00  0.00    +0.000 A 
ATOM     25  C   UNL     1       6.811   5.189  15.433  0.00  0.00    +0.000 A 
BRANCH  20  27
ATOM     26  C   UNL     1       7.908   7.429  18.116  0.00  0.00    +0.000 C 
ATOM     27  O   UNL     1       7.513   7.160  16.775  0.00  0.00    +0.000 OA
ENDBRANCH  20  27
BRANCH  25  28
ATOM     28  O   UNL     1       7.687   5.396  14.404  0.00  0.00    +0.000 OA
ATOM     29  H   UNL     1       8.288   6.124  14.633  0.00  0.00    +0.000 HD
ENDBRANCH  25  28
ENDBRANCH  18  22
ENDBRANCH  16  19
ENDBRANCH   1  16
TORSDOF 7
ENDMDL
MODEL 3
REMARK VINA RESULT:      -8.1      0.831      1.931
REMARK  Name = 
REMARK  9 active torsions:
REMARK  status: ('A' for Active; 'I' for Inactive)
REMARK    1  A    between atoms: C_1  and  O_2
REMARK    2  A    between atoms: O_2  and  C_3
REMARK    3  A    between atoms: C_5  and  C_6
REMARK    4  A    between atoms: C_7  and  C_8
REMARK    5  A    between atoms: C_8  and  C_10
REMARK    6  A    between atoms: C_11  and  C_12
REMARK    7  A    between atoms: C_16  and  N_17
REMARK    8  A    between atoms: N_23  and  C_24
REMARK    9  A    between atoms: C_27  and  O_28
REMARK                            x       y       z     vdW  Elec       q    Type
REMARK                         _______ _______ _______ _____ _____    ______ ____
ROOT
ATOM      1  C   UNL     1       1.442   9.220  18.585  0.00  0.00    +0.000 C 
ATOM      2  C   UNL     1       1.971   8.104  19.114  0.00  0.00    +0.000 C 
ENDROOT
BRANCH   2   3
ATOM      3  C   UNL     1       2.829   7.264  18.341  0.00  0.00    +0.000 A 
ATOM      4  N   UNL     1       3.734   7.603  17.438  0.00  0.00    +0.000 NA
ATOM      5  C   UNL     1       4.274   6.433  16.959  0.00  0.00    +0.000 A 
ATOM      6  C   UNL     1       5.261   6.241  15.979  0.00  0.00    +0.000 A 
ATOM      7  C   UNL     1       5.634   4.924  15.661  0.00  0.00    +0.000 A 
ATOM      8  C   UNL     1       5.046   3.824  16.300  0.00  0.00    +0.000 A 
ATOM      9  C   UNL     1       4.064   4.012  17.281  0.00  0.00    +0.000 A 
ATOM     10  C   UNL     1       3.699   5.332  17.584  0.00  0.00    +0.000 A 
ATOM     11  N   UNL     1       2.784   5.882  18.463  0.00  0.00    +0.000 N 
ATOM     12  C   UNL     1       1.923   5.115  19.335  0.00  0.00    +0.000 C 
BRANCH   7  13
ATOM     13  N   UNL     1       6.660   4.690  14.634  0.00  0.00    +0.000 N 
ATOM     14  O   UNL     1       6.397   3.889  13.726  0.00  0.00    +0.000 OA
ATOM     15  O   UNL     1       7.727   5.308  14.736  0.00  0.00    +0.000 OA
ENDBRANCH   7  13
ENDBRANCH   2   3
BRANCH   1  16
ATOM     16  C   UNL     1       0.522  10.085  19.390  0.00  0.00    +0.000 C 
ATOM     17  O   UNL     1       0.871  10.617  20.436  0.00  0.00    +0.000 OA
BRANCH  16  19
ATOM     18  C   UNL     1      -1.621  11.322  19.088  0.00  0.00    +0.000 C 
ATOM     19  C   UNL     1      -0.848  10.255  18.817  0.00  0.00    +0.000 C 
BRANCH  18  22
ATOM     20  C   UNL     1      -5.320  12.233  18.778  0.00  0.00    +0.000 A 
ATOM     21  C   UNL     1      -4.027  12.018  19.306  0.00  0.00    +0.000 A 
ATOM     22  C   UNL     1      -2.972  11.532  18.514  0.00  0.00    +0.000 A 
ATOM     23  C   UNL     1      -3.228  11.305  17.156  0.00  0.00    +0.000 A 
ATOM     24  C   UNL     1      -4.501  11.507  16.619  0.00  0.00    +0.000 A 
ATOM     25  C   UNL     1      -5.546  11.961  17.425  0.00  0.00    +0.000 A 
BRANCH  20  27
ATOM     26  C   UNL     1      -5.830  12.725  21.069  0.00  0.00    +0.000 C 
ATOM     27  O   UNL     1      -6.223  12.698  19.701  0.00  0.00    +0.000 OA
ENDBRANCH  20  27
BRANCH  25  28
ATOM     28  O   UNL     1      -6.773  12.131  16.848  0.00  0.00    +0.000 OA
ATOM     29  H   UNL     1      -7.115  11.270  16.555  0.00  0.00    +0.000 HD
ENDBRANCH  25  28
ENDBRANCH  18  22
ENDBRANCH  16  19
ENDBRANCH   1  16
TORSDOF 7
ENDMDL
MODEL 4
REMARK VINA RESULT:      -8.0      1.035      1.271
REMARK  Name = 
REMARK  9 active torsions:
REMARK  status: ('A' for Active; 'I' for Inactive)
REMARK    1  A    between atoms: C_1  and  O_2
REMARK    2  A    between atoms: O_2  and  C_3
REMARK    3  A    between atoms: C_5  and  C_6
REMARK    4  A    between atoms: C_7  and  C_8
REMARK    5  A    between atoms: C_8  and  C_10
REMARK    6  A    between atoms: C_11  and  C_12
REMARK    7  A    between atoms: C_16  and  N_17
REMARK    8  A    between atoms: N_23  and  C_24
REMARK    9  A    between atoms: C_27  and  O_28
REMARK                            x       y       z     vdW  Elec       q    Type
REMARK                         _______ _______ _______ _____ _____    ______ ____
ROOT
ATOM      1  C   UNL     1       1.876   8.618  20.337  0.00  0.00    +0.000 C 
ATOM      2  C   UNL     1       1.642   7.342  19.988  0.00  0.00    +0.000 C 
ENDROOT
BRANCH   2   3
ATOM      3  C   UNL     1       2.552   6.637  19.143  0.00  0.00    +0.000 A 
ATOM      4  N   UNL     1       3.510   7.116  18.367  0.00  0.00    +0.000 NA
ATOM      5  C   UNL     1       4.086   6.038  17.737  0.00  0.00    +0.000 A 
ATOM      6  C   UNL     1       5.134   6.005  16.803  0.00  0.00    +0.000 A 
ATOM      7  C   UNL     1       5.534   4.756  16.297  0.00  0.00    +0.000 A 
ATOM      8  C   UNL     1       4.914   3.569  16.708  0.00  0.00    +0.000 A 
ATOM      9  C   UNL     1       3.871   3.597  17.643  0.00  0.00    +0.000 A 
ATOM     10  C   UNL     1       3.480   4.852  18.136  0.00  0.00    +0.000 A 
ATOM     11  N   UNL     1       2.508   5.254  19.032  0.00  0.00    +0.000 N 
ATOM     12  C   UNL     1       1.598   4.358  19.711  0.00  0.00    +0.000 C 
BRANCH   7  13
ATOM     13  N   UNL     1       6.625   4.690  15.312  0.00  0.00    +0.000 N 
ATOM     14  O   UNL     1       7.788   4.690  15.738  0.00  0.00    +0.000 OA
ATOM     15  O   UNL     1       6.316   4.638  14.115  0.00  0.00    +0.000 OA
ENDBRANCH   7  13
ENDBRANCH   2   3
BRANCH   1  16
ATOM     16  C   UNL     1       0.908   9.363  21.203  0.00  0.00    +0.000 C 
ATOM     17  O   UNL     1       1.153   9.644  22.369  0.00  0.00    +0.000 OA
BRANCH  16  19
ATOM     18  C   UNL     1      -0.424  10.203  19.271  0.00  0.00    +0.000 C 
ATOM     19  C   UNL     1      -0.374   9.743  20.534  0.00  0.00    +0.000 C 
BRANCH  18  22
ATOM     20  C   UNL     1      -3.244  10.249  16.690  0.00  0.00    +0.000 A 
ATOM     21  C   UNL     1      -2.047   9.929  17.370  0.00  0.00    +0.000 A 
ATOM     22  C   UNL     1      -1.682  10.561  18.571  0.00  0.00    +0.000 A 
ATOM     23  C   UNL     1      -2.571  11.499  19.109  0.00  0.00    +0.000 A 
ATOM     24  C   UNL     1      -3.756  11.831  18.448  0.00  0.00    +0.000 A 
ATOM     25  C   UNL     1      -4.089  11.217  17.241  0.00  0.00    +0.000 A 
BRANCH  20  27
ATOM     26  C   UNL     1      -3.027  10.145  14.304  0.00  0.00    +0.000 C 
ATOM     27  O   UNL     1      -3.427   9.540  15.529  0.00  0.00    +0.000 OA
ENDBRANCH  20  27
BRANCH  25  28
ATOM     28  O   UNL     1      -5.256  11.588  16.634  0.00  0.00    +0.000 OA
ATOM     29  H   UNL     1      -5.964  11.639  17.297  0.00  0.00    +0.000 HD
ENDBRANCH  25  28
ENDBRANCH  18  22
ENDBRANCH  16  19
ENDBRANCH   1  16
TORSDOF 7
ENDMDL
MODEL 5
REMARK VINA RESULT:      -8.0      3.560     10.038
REMARK  Name = 
REMARK  9 active torsions:
REMARK  status: ('A' for Active; 'I' for Inactive)
REMARK    1  A    between atoms: C_1  and  O_2
REMARK    2  A    between atoms: O_2  and  C_3
REMARK    3  A    between atoms: C_5  and  C_6
REMARK    4  A    between atoms: C_7  and  C_8
REMARK    5  A    between atoms: C_8  and  C_10
REMARK    6  A    between atoms: C_11  and  C_12
REMARK    7  A    between atoms: C_16  and  N_17
REMARK    8  A    between atoms: N_23  and  C_24
REMARK    9  A    between atoms: C_27  and  O_28
REMARK                            x       y       z     vdW  Elec       q    Type
REMARK                         _______ _______ _______ _____ _____    ______ ____
ROOT
ATOM      1  C   UNL     1       1.849   5.400  20.400  0.00  0.00    +0.000 C 
ATOM      2  C   UNL     1       2.425   6.583  20.128  0.00  0.00    +0.000 C 
ENDROOT
BRANCH   2   3
ATOM      3  C   UNL     1       1.718   7.806  20.339  0.00  0.00    +0.000 A 
ATOM      4  N   UNL     1       1.159   8.264  21.446  0.00  0.00    +0.000 NA
ATOM      5  C   UNL     1       0.580   9.470  21.128  0.00  0.00    +0.000 A 
ATOM      6  C   UNL     1      -0.149  10.352  21.942  0.00  0.00    +0.000 A 
ATOM      7  C   UNL     1      -0.648  11.531  21.361  0.00  0.00    +0.000 A 
ATOM      8  C   UNL     1      -0.428  11.832  20.011  0.00  0.00    +0.000 A 
ATOM      9  C   UNL     1       0.303  10.956  19.198  0.00  0.00    +0.000 A 
ATOM     10  C   UNL     1       0.791   9.780  19.789  0.00  0.00    +0.000 A 
ATOM     11  N   UNL     1       1.519   8.710  19.305  0.00  0.00    +0.000 N 
ATOM     12  C   UNL     1       1.968   8.576  17.937  0.00  0.00    +0.000 C 
BRANCH   7  13
ATOM     13  N   UNL     1      -1.422  12.472  22.186  0.00  0.00    +0.000 N 
ATOM     14  O   UNL     1      -1.096  12.600  23.374  0.00  0.00    +0.000 OA
ATOM     15  O   UNL     1      -2.352  13.081  21.644  0.00  0.00    +0.000 OA
ENDBRANCH   7  13
ENDBRANCH   2   3
BRANCH   1  16
ATOM     16  C   UNL     1       2.583   4.118  20.153  0.00  0.00    +0.000 C 
ATOM     17  O   UNL     1       2.257   3.064  20.685  0.00  0.00    +0.000 OA
BRANCH  16  19
ATOM     18  C   UNL     1       3.607   4.711  17.960  0.00  0.00    +0.000 C 
ATOM     19  C   UNL     1       3.735   4.222  19.206  0.00  0.00    +0.000 C 
BRANCH  18  22
ATOM     20  C   UNL     1       6.803   5.992  16.300  0.00  0.00    +0.000 A 
ATOM     21  C   UNL     1       5.716   5.844  17.190  0.00  0.00    +0.000 A 
ATOM     22  C   UNL     1       4.735   4.853  17.008  0.00  0.00    +0.000 A 
ATOM     23  C   UNL     1       4.891   3.973  15.931  0.00  0.00    +0.000 A 
ATOM     24  C   UNL     1       5.958   4.108  15.038  0.00  0.00    +0.000 A 
ATOM     25  C   UNL     1       6.905   5.116  15.215  0.00  0.00    +0.000 A 
BRANCH  20  27
ATOM     26  C   UNL     1       7.815   7.338  18.007  0.00  0.00    +0.000 C 
ATOM     27  O   UNL     1       7.651   7.020  16.629  0.00  0.00    +0.000 OA
ENDBRANCH  20  27
BRANCH  25  28
ATOM     28  O   UNL     1       7.922   5.207  14.305  0.00  0.00    +0.000 OA
ATOM     29  H   UNL     1       8.774   5.137  14.765  0.00  0.00    +0.000 HD
ENDBRANCH  25  28
ENDBRANCH  18  22
ENDBRANCH  16  19
ENDBRANCH   1  16
TORSDOF 7
ENDMDL
MODEL 6
REMARK VINA RESULT:      -7.8      4.408     10.820
REMARK  Name = 
REMARK  9 active torsions:
REMARK  status: ('A' for Active; 'I' for Inactive)
REMARK    1  A    between atoms: C_1  and  O_2
REMARK    2  A    between atoms: O_2  and  C_3
REMARK    3  A    between atoms: C_5  and  C_6
REMARK    4  A    between atoms: C_7  and  C_8
REMARK    5  A    between atoms: C_8  and  C_10
REMARK    6  A    between atoms: C_11  and  C_12
REMARK    7  A    between atoms: C_16  and  N_17
REMARK    8  A    between atoms: N_23  and  C_24
REMARK    9  A    between atoms: C_27  and  O_28
REMARK                            x       y       z     vdW  Elec       q    Type
REMARK                         _______ _______ _______ _____ _____    ______ ____
ROOT
ATOM      1  C   UNL     1       1.043   9.463  19.023  0.00  0.00    +0.000 C 
ATOM      2  C   UNL     1       0.926  10.770  19.315  0.00  0.00    +0.000 C 
ENDROOT
BRANCH   2   3
ATOM      3  C   UNL     1      -0.131  11.240  20.152  0.00  0.00    +0.000 A 
ATOM      4  N   UNL     1      -0.242  11.179  21.468  0.00  0.00    +0.000 NA
ATOM      5  C   UNL     1      -1.453  11.744  21.791  0.00  0.00    +0.000 A 
ATOM      6  C   UNL     1      -2.052  11.911  23.050  0.00  0.00    +0.000 A 
ATOM      7  C   UNL     1      -3.319  12.518  23.107  0.00  0.00    +0.000 A 
ATOM      8  C   UNL     1      -3.974  12.952  21.947  0.00  0.00    +0.000 A 
ATOM      9  C   UNL     1      -3.377  12.790  20.690  0.00  0.00    +0.000 A 
ATOM     10  C   UNL     1      -2.115  12.178  20.648  0.00  0.00    +0.000 A 
ATOM     11  N   UNL     1      -1.256  11.851  19.615  0.00  0.00    +0.000 N 
ATOM     12  C   UNL     1      -1.525  12.101  18.217  0.00  0.00    +0.000 C 
BRANCH   7  13
ATOM     13  N   UNL     1      -3.975  12.702  24.410  0.00  0.00    +0.000 N 
ATOM     14  O   UNL     1      -4.881  11.914  24.716  0.00  0.00    +0.000 OA
ATOM     15  O   UNL     1      -3.584  13.633  25.125  0.00  0.00    +0.000 OA
ENDBRANCH   7  13
ENDBRANCH   2   3
BRANCH   1  16
ATOM     16  C   UNL     1       2.137   8.976  18.125  0.00  0.00    +0.000 C 
ATOM     17  O   UNL     1       2.505   9.605  17.141  0.00  0.00    +0.000 OA
BRANCH  16  19
ATOM     18  C   UNL     1       2.287   6.489  18.079  0.00  0.00    +0.000 C 
ATOM     19  C   UNL     1       2.749   7.671  18.524  0.00  0.00    +0.000 C 
BRANCH  18  22
ATOM     20  C   UNL     1       3.132   3.298  20.007  0.00  0.00    +0.000 A 
ATOM     21  C   UNL     1       2.577   4.547  19.651  0.00  0.00    +0.000 A 
ATOM     22  C   UNL     1       2.889   5.181  18.435  0.00  0.00    +0.000 A 
ATOM     23  C   UNL     1       3.742   4.509  17.551  0.00  0.00    +0.000 A 
ATOM     24  C   UNL     1       4.303   3.276  17.889  0.00  0.00    +0.000 A 
ATOM     25  C   UNL     1       4.008   2.675  19.113  0.00  0.00    +0.000 A 
BRANCH  20  27
ATOM     26  C   UNL     1       1.327   2.820  21.511  0.00  0.00    +0.000 C 
ATOM     27  O   UNL     1       2.723   2.841  21.235  0.00  0.00    +0.000 OA
ENDBRANCH  20  27
BRANCH  25  28
ATOM     28  O   UNL     1       4.595   1.472  19.395  0.00  0.00    +0.000 OA
ATOM     29  H   UNL     1       4.003   0.752  19.121  0.00  0.00    +0.000 HD
ENDBRANCH  25  28
ENDBRANCH  18  22
ENDBRANCH  16  19
ENDBRANCH   1  16
TORSDOF 7
ENDMDL
MODEL 7
REMARK VINA RESULT:      -7.8      3.861     10.204
REMARK  Name = 
REMARK  9 active torsions:
REMARK  status: ('A' for Active; 'I' for Inactive)
REMARK    1  A    between atoms: C_1  and  O_2
REMARK    2  A    between atoms: O_2  and  C_3
REMARK    3  A    between atoms: C_5  and  C_6
REMARK    4  A    between atoms: C_7  and  C_8
REMARK    5  A    between atoms: C_8  and  C_10
REMARK    6  A    between atoms: C_11  and  C_12
REMARK    7  A    between atoms: C_16  and  N_17
REMARK    8  A    between atoms: N_23  and  C_24
REMARK    9  A    between atoms: C_27  and  O_28
REMARK                            x       y       z     vdW  Elec       q    Type
REMARK                         _______ _______ _______ _____ _____    ______ ____
ROOT
ATOM      1  C   UNL     1       1.663   5.487  20.220  0.00  0.00    +0.000 C 
ATOM      2  C   UNL     1       2.250   6.696  20.192  0.00  0.00    +0.000 C 
ENDROOT
BRANCH   2   3
ATOM      3  C   UNL     1       1.528   7.868  20.570  0.00  0.00    +0.000 A 
ATOM      4  N   UNL     1       1.002   8.181  21.742  0.00  0.00    +0.000 NA
ATOM      5  C   UNL     1       0.388   9.402  21.587  0.00  0.00    +0.000 A 
ATOM      6  C   UNL     1      -0.328  10.166  22.524  0.00  0.00    +0.000 A 
ATOM      7  C   UNL     1      -0.872  11.392  22.103  0.00  0.00    +0.000 A 
ATOM      8  C   UNL     1      -0.709  11.852  20.790  0.00  0.00    +0.000 A 
ATOM      9  C   UNL     1       0.008  11.094  19.855  0.00  0.00    +0.000 A 
ATOM     10  C   UNL     1       0.541   9.870  20.287  0.00  0.00    +0.000 A 
ATOM     11  N   UNL     1       1.272   8.881  19.656  0.00  0.00    +0.000 N 
ATOM     12  C   UNL     1       1.671   8.918  18.266  0.00  0.00    +0.000 C 
BRANCH   7  13
ATOM     13  N   UNL     1      -1.632  12.211  23.059  0.00  0.00    +0.000 N 
ATOM     14  O   UNL     1      -1.131  13.282  23.428  0.00  0.00    +0.000 OA
ATOM     15  O   UNL     1      -2.728  11.783  23.440  0.00  0.00    +0.000 OA
ENDBRANCH   7  13
ENDBRANCH   2   3
BRANCH   1  16
ATOM     16  C   UNL     1       2.415   4.262  19.799  0.00  0.00    +0.000 C 
ATOM     17  O   UNL     1       2.064   3.135  20.123  0.00  0.00    +0.000 OA
BRANCH  16  19
ATOM     18  C   UNL     1       3.607   4.377  17.613  0.00  0.00    +0.000 C 
ATOM     19  C   UNL     1       3.619   4.521  18.951  0.00  0.00    +0.000 C 
BRANCH  18  22
ATOM     20  C   UNL     1       6.127   4.121  14.751  0.00  0.00    +0.000 A 
ATOM     21  C   UNL     1       5.025   3.873  15.599  0.00  0.00    +0.000 A 
ATOM     22  C   UNL     1       4.775   4.652  16.743  0.00  0.00    +0.000 A 
ATOM     23  C   UNL     1       5.636   5.726  16.999  0.00  0.00    +0.000 A 
ATOM     24  C   UNL     1       6.733   5.983  16.174  0.00  0.00    +0.000 A 
ATOM     25  C   UNL     1       6.985   5.181  15.060  0.00  0.00    +0.000 A 
BRANCH  20  27
ATOM     26  C   UNL     1       5.588   3.618  12.469  0.00  0.00    +0.000 C 
ATOM     27  O   UNL     1       6.217   3.252  13.693  0.00  0.00    +0.000 OA
ENDBRANCH  20  27
BRANCH  25  28
ATOM     28  O   UNL     1       8.079   5.473  14.294  0.00  0.00    +0.000 OA
ATOM     29  H   UNL     1       8.860   5.559  14.866  0.00  0.00    +0.000 HD
ENDBRANCH  25  28
ENDBRANCH  18  22
ENDBRANCH  16  19
ENDBRANCH   1  16
TORSDOF 7
ENDMDL
MODEL 8
REMARK VINA RESULT:      -7.7      4.278     11.047
REMARK  Name = 
REMARK  9 active torsions:
REMARK  status: ('A' for Active; 'I' for Inactive)
REMARK    1  A    between atoms: C_1  and  O_2
REMARK    2  A    between atoms: O_2  and  C_3
REMARK    3  A    between atoms: C_5  and  C_6
REMARK    4  A    between atoms: C_7  and  C_8
REMARK    5  A    between atoms: C_8  and  C_10
REMARK    6  A    between atoms: C_11  and  C_12
REMARK    7  A    between atoms: C_16  and  N_17
REMARK    8  A    between atoms: N_23  and  C_24
REMARK    9  A    between atoms: C_27  and  O_28
REMARK                            x       y       z     vdW  Elec       q    Type
REMARK                         _______ _______ _______ _____ _____    ______ ____
ROOT
ATOM      1  C   UNL     1       0.695   9.728  19.015  0.00  0.00    +0.000 C 
ATOM      2  C   UNL     1       0.560  11.025  19.339  0.00  0.00    +0.000 C 
ENDROOT
BRANCH   2   3
ATOM      3  C   UNL     1      -0.581  11.483  20.065  0.00  0.00    +0.000 A 
ATOM      4  N   UNL     1      -0.771  11.534  21.373  0.00  0.00    +0.000 NA
ATOM      5  C   UNL     1      -2.039  12.026  21.570  0.00  0.00    +0.000 A 
ATOM      6  C   UNL     1      -2.729  12.259  22.771  0.00  0.00    +0.000 A 
ATOM      7  C   UNL     1      -4.039  12.764  22.697  0.00  0.00    +0.000 A 
ATOM      8  C   UNL     1      -4.649  13.034  21.465  0.00  0.00    +0.000 A 
ATOM      9  C   UNL     1      -3.962  12.807  20.266  0.00  0.00    +0.000 A 
ATOM     10  C   UNL     1      -2.657  12.298  20.355  0.00  0.00    +0.000 A 
ATOM     11  N   UNL     1      -1.712  11.948  19.409  0.00  0.00    +0.000 N 
ATOM     12  C   UNL     1      -1.908  12.046  17.980  0.00  0.00    +0.000 C 
BRANCH   7  13
ATOM     13  N   UNL     1      -4.790  13.012  23.937  0.00  0.00    +0.000 N 
ATOM     14  O   UNL     1      -4.629  12.222  24.877  0.00  0.00    +0.000 OA
ATOM     15  O   UNL     1      -5.538  13.997  23.969  0.00  0.00    +0.000 OA
ENDBRANCH   7  13
ENDBRANCH   2   3
BRANCH   1  16
ATOM     16  C   UNL     1       1.880   9.254  18.231  0.00  0.00    +0.000 C 
ATOM     17  O   UNL     1       2.310   9.866  17.262  0.00  0.00    +0.000 OA
BRANCH  16  19
ATOM     18  C   UNL     1       2.528   6.860  17.993  0.00  0.00    +0.000 C 
ATOM     19  C   UNL     1       2.499   7.987  18.726  0.00  0.00    +0.000 C 
BRANCH  18  22
ATOM     20  C   UNL     1       5.169   4.320  19.078  0.00  0.00    +0.000 A 
ATOM     21  C   UNL     1       4.548   5.511  18.642  0.00  0.00    +0.000 A 
ATOM     22  C   UNL     1       3.158   5.596  18.444  0.00  0.00    +0.000 A 
ATOM     23  C   UNL     1       2.388   4.465  18.740  0.00  0.00    +0.000 A 
ATOM     24  C   UNL     1       2.987   3.278  19.169  0.00  0.00    +0.000 A 
ATOM     25  C   UNL     1       4.370   3.200  19.330  0.00  0.00    +0.000 A 
BRANCH  20  27
ATOM     26  C   UNL     1       7.128   5.703  19.032  0.00  0.00    +0.000 C 
ATOM     27  O   UNL     1       6.532   4.421  19.203  0.00  0.00    +0.000 OA
ENDBRANCH  20  27
BRANCH  25  28
ATOM     28  O   UNL     1       4.902   2.009  19.742  0.00  0.00    +0.000 OA
ATOM     29  H   UNL     1       4.694   1.870  20.680  0.00  0.00    +0.000 HD
ENDBRANCH  25  28
ENDBRANCH  18  22
ENDBRANCH  16  19
ENDBRANCH   1  16
TORSDOF 7
ENDMDL
MODEL 9
REMARK VINA RESULT:      -7.7      1.016      1.961
REMARK  Name = 
REMARK  9 active torsions:
REMARK  status: ('A' for Active; 'I' for Inactive)
REMARK    1  A    between atoms: C_1  and  O_2
REMARK    2  A    between atoms: O_2  and  C_3
REMARK    3  A    between atoms: C_5  and  C_6
REMARK    4  A    between atoms: C_7  and  C_8
REMARK    5  A    between atoms: C_8  and  C_10
REMARK    6  A    between atoms: C_11  and  C_12
REMARK    7  A    between atoms: C_16  and  N_17
REMARK    8  A    between atoms: N_23  and  C_24
REMARK    9  A    between atoms: C_27  and  O_28
REMARK                            x       y       z     vdW  Elec       q    Type
REMARK                         _______ _______ _______ _____ _____    ______ ____
ROOT
ATOM      1  C   UNL     1       1.981   8.300  20.336  0.00  0.00    +0.000 C 
ATOM      2  C   UNL     1       1.764   7.982  19.048  0.00  0.00    +0.000 C 
ENDROOT
BRANCH   2   3
ATOM      3  C   UNL     1       2.695   7.172  18.329  0.00  0.00    +0.000 A 
ATOM      4  N   UNL     1       3.612   7.538  17.449  0.00  0.00    +0.000 NA
ATOM      5  C   UNL     1       4.232   6.388  17.022  0.00  0.00    +0.000 A 
ATOM      6  C   UNL     1       5.263   6.226  16.083  0.00  0.00    +0.000 A 
ATOM      7  C   UNL     1       5.720   4.924  15.815  0.00  0.00    +0.000 A 
ATOM      8  C   UNL     1       5.172   3.810  16.464  0.00  0.00    +0.000 A 
ATOM      9  C   UNL     1       4.146   3.968  17.404  0.00  0.00    +0.000 A 
ATOM     10  C   UNL     1       3.697   5.273  17.658  0.00  0.00    +0.000 A 
ATOM     11  N   UNL     1       2.722   5.793  18.488  0.00  0.00    +0.000 N 
ATOM     12  C   UNL     1       1.874   5.002  19.352  0.00  0.00    +0.000 C 
BRANCH   7  13
ATOM     13  N   UNL     1       6.794   4.722  14.831  0.00  0.00    +0.000 N 
ATOM     14  O   UNL     1       6.636   3.838  13.977  0.00  0.00    +0.000 OA
ATOM     15  O   UNL     1       7.793   5.447  14.913  0.00  0.00    +0.000 OA
ENDBRANCH   7  13
ENDBRANCH   2   3
BRANCH   1  16
ATOM     16  C   UNL     1       1.016   9.170  21.081  0.00  0.00    +0.000 C 
ATOM     17  O   UNL     1       1.279   9.653  22.175  0.00  0.00    +0.000 OA
BRANCH  16  19
ATOM     18  C   UNL     1      -0.529  10.515  19.660  0.00  0.00    +0.000 C 
ATOM     19  C   UNL     1      -0.286   9.408  20.386  0.00  0.00    +0.000 C 
BRANCH  18  22
ATOM     20  C   UNL     1      -3.966  11.927  18.768  0.00  0.00    +0.000 A 
ATOM     21  C   UNL     1      -2.753  11.666  19.444  0.00  0.00    +0.000 A 
ATOM     22  C   UNL     1      -1.798  10.767  18.937  0.00  0.00    +0.000 A 
ATOM     23  C   UNL     1      -2.065  10.162  17.703  0.00  0.00    +0.000 A 
ATOM     24  C   UNL     1      -3.261  10.405  17.024  0.00  0.00    +0.000 A 
ATOM     25  C   UNL     1      -4.212  11.277  17.555  0.00  0.00    +0.000 A 
BRANCH  20  27
ATOM     26  C   UNL     1      -5.774  12.307  20.297  0.00  0.00    +0.000 C 
ATOM     27  O   UNL     1      -4.779  12.822  19.418  0.00  0.00    +0.000 OA
ENDBRANCH  20  27
BRANCH  25  28
ATOM     28  O   UNL     1      -5.368  11.469  16.852  0.00  0.00    +0.000 OA
ATOM     29  H   UNL     1      -5.913  10.666  16.900  0.00  0.00    +0.000 HD
ENDBRANCH  25  28
ENDBRANCH  18  22
ENDBRANCH  16  19
ENDBRANCH   1  16
TORSDOF 7
ENDMDL
