MODEL 1
REMARK VINA RESULT:      -6.3      0.000      0.000
REMARK  Name = 
REMARK  6 active torsions:
REMARK  status: ('A' for Active; 'I' for Inactive)
REMARK    1  A    between atoms: C_1  and  C_2
REMARK    2  A    between atoms: C_2  and  C_3
REMARK    3  A    between atoms: C_3  and  C_4
REMARK    4  A    between atoms: C_4  and  N_5
REMARK    5  A    between atoms: N_5  and  C_6
REMARK    6  A    between atoms: N_10  and  C_11
REMARK                            x       y       z     vdW  Elec       q    Type
REMARK                         _______ _______ _______ _____ _____    ______ ____
ROOT
ATOM      1  C   UNL     1       5.193   4.415  17.824  0.00  0.00    +0.000 A 
ATOM      2  C   UNL     1       3.987   4.476  17.251  0.00  0.00    +0.000 A 
ATOM      3  C   UNL     1       2.867   3.662  17.756  0.00  0.00    +0.000 A 
ATOM      4  O   UNL     1       1.775   3.752  17.201  0.00  0.00    +0.000 OA
ATOM      5  N   UNL     1       3.141   2.856  18.841  0.00  0.00    +0.000 N 
ATOM      6  C   UNL     1       2.086   2.045  19.409  0.00  0.00    +0.000 C 
ATOM      7  C   UNL     1       4.382   2.802  19.441  0.00  0.00    +0.000 A 
ATOM      8  O   UNL     1       4.642   2.121  20.433  0.00  0.00    +0.000 OA
ATOM      9  N   UNL     1       5.360   3.573  18.879  0.00  0.00    +0.000 N 
ATOM     10  H   UNL     1       6.255   3.522  19.341  0.00  0.00    +0.000 HD
ENDROOT
BRANCH   1  11
ATOM     11  N   UNL     1       6.273   5.154  17.390  0.00  0.00    +0.000 N 
ATOM     12  H   UNL     1       6.391   5.092  16.383  0.00  0.00    +0.000 HD
BRANCH  11  13
ATOM     13  C   UNL     1       7.557   5.134  18.090  0.00  0.00    +0.000 C 
BRANCH  13  14
ATOM     14  C   UNL     1       7.918   6.535  18.581  0.00  0.00    +0.000 C 
BRANCH  14  16
ATOM     15  C   UNL     1       8.151   8.967  17.948  0.00  0.00    +0.000 C 
ATOM     16  C   UNL     1       7.606   7.609  17.538  0.00  0.00    +0.000 C 
ENDBRANCH  14  16
ENDBRANCH  13  14
ENDBRANCH  11  13
ENDBRANCH   1  11
TORSDOF 4
ENDMDL
MODEL 2
REMARK VINA RESULT:      -6.3      2.083      5.380
REMARK  Name = 
REMARK  6 active torsions:
REMARK  status: ('A' for Active; 'I' for Inactive)
REMARK    1  A    between atoms: C_1  and  C_2
REMARK    2  A    between atoms: C_2  and  C_3
REMARK    3  A    between atoms: C_3  and  C_4
REMARK    4  A    between atoms: C_4  and  N_5
REMARK    5  A    between atoms: N_5  and  C_6
REMARK    6  A    between atoms: N_10  and  C_11
REMARK                            x       y       z     vdW  Elec       q    Type
REMARK                         _______ _______ _______ _____ _____    ______ ____
ROOT
ATOM      1  C   UNL     1       4.854   3.716  17.859  0.00  0.00    +0.000 A 
ATOM      2  C   UNL     1       4.870   4.461  16.750  0.00  0.00    +0.000 A 
ATOM      3  C   UNL     1       5.735   5.651  16.650  0.00  0.00    +0.000 A 
ATOM      4  O   UNL     1       5.720   6.306  15.610  0.00  0.00    +0.000 OA
ATOM      5  N   UNL     1       6.515   5.931  17.752  0.00  0.00    +0.000 N 
ATOM      6  C   UNL     1       7.408   7.070  17.720  0.00  0.00    +0.000 C 
ATOM      7  C   UNL     1       6.508   5.155  18.892  0.00  0.00    +0.000 A 
ATOM      8  O   UNL     1       7.223   5.362  19.874  0.00  0.00    +0.000 OA
ATOM      9  N   UNL     1       5.651   4.092  18.896  0.00  0.00    +0.000 N 
ATOM     10  H   UNL     1       5.672   3.536  19.737  0.00  0.00    +0.000 HD
ENDROOT
BRANCH   1  11
ATOM     11  N   UNL     1       4.064   2.596  18.005  0.00  0.00    +0.000 N 
ATOM     12  H   UNL     1       3.447   2.465  17.208  0.00  0.00    +0.000 HD
BRANCH  11  13
ATOM     13  C   UNL     1       3.398   2.275  19.267  0.00  0.00    +0.000 C 
BRANCH  13  14
ATOM     14  C   UNL     1       1.888   2.167  19.061  0.00  0.00    +0.000 C 
BRANCH  14  16
ATOM     15  C   UNL     1       1.516   2.752  21.487  0.00  0.00    +0.000 C 
ATOM     16  C   UNL     1       1.108   3.034  20.050  0.00  0.00    +0.000 C 
ENDBRANCH  14  16
ENDBRANCH  13  14
ENDBRANCH  11  13
ENDBRANCH   1  11
TORSDOF 4
ENDMDL
MODEL 3
REMARK VINA RESULT:      -6.2      2.195      5.799
REMARK  Name = 
REMARK  6 active torsions:
REMARK  status: ('A' for Active; 'I' for Inactive)
REMARK    1  A    between atoms: C_1  and  C_2
REMARK    2  A    between atoms: C_2  and  C_3
REMARK    3  A    between atoms: C_3  and  C_4
REMARK    4  A    between atoms: C_4  and  N_5
REMARK    5  A    between atoms: N_5  and  C_6
REMARK    6  A    between atoms: N_10  and  C_11
REMARK                            x       y       z     vdW  Elec       q    Type
REMARK                         _______ _______ _______ _____ _____    ______ ____
ROOT
ATOM      1  C   UNL     1       4.267   4.183  17.986  0.00  0.00    +0.000 A 
ATOM      2  C   UNL     1       5.131   4.315  18.996  0.00  0.00    +0.000 A 
ATOM      3  C   UNL     1       6.239   5.285  18.924  0.00  0.00    +0.000 A 
ATOM      4  O   UNL     1       7.008   5.375  19.877  0.00  0.00    +0.000 OA
ATOM      5  N   UNL     1       6.313   6.038  17.771  0.00  0.00    +0.000 N 
ATOM      6  C   UNL     1       7.359   7.029  17.635  0.00  0.00    +0.000 C 
ATOM      7  C   UNL     1       5.413   5.912  16.733  0.00  0.00    +0.000 A 
ATOM      8  O   UNL     1       5.437   6.597  15.710  0.00  0.00    +0.000 OA
ATOM      9  N   UNL     1       4.442   4.964  16.886  0.00  0.00    +0.000 N 
ATOM     10  H   UNL     1       3.793   4.897  16.117  0.00  0.00    +0.000 HD
ENDROOT
BRANCH   1  11
ATOM     11  N   UNL     1       3.216   3.290  18.002  0.00  0.00    +0.000 N 
ATOM     12  H   UNL     1       3.366   2.522  17.354  0.00  0.00    +0.000 HD
BRANCH  11  13
ATOM     13  C   UNL     1       1.822   3.732  18.009  0.00  0.00    +0.000 C 
BRANCH  13  14
ATOM     14  C   UNL     1       1.030   2.979  19.076  0.00  0.00    +0.000 C 
BRANCH  14  16
ATOM     15  C   UNL     1       1.641   2.814  21.519  0.00  0.00    +0.000 C 
ATOM     16  C   UNL     1       1.058   3.695  20.427  0.00  0.00    +0.000 C 
ENDBRANCH  14  16
ENDBRANCH  13  14
ENDBRANCH  11  13
ENDBRANCH   1  11
TORSDOF 4
ENDMDL
MODEL 4
REMARK VINA RESULT:      -6.0      2.512      5.212
REMARK  Name = 
REMARK  6 active torsions:
REMARK  status: ('A' for Active; 'I' for Inactive)
REMARK    1  A    between atoms: C_1  and  C_2
REMARK    2  A    between atoms: C_2  and  C_3
REMARK    3  A    between atoms: C_3  and  C_4
REMARK    4  A    between atoms: C_4  and  N_5
REMARK    5  A    between atoms: N_5  and  C_6
REMARK    6  A    between atoms: N_10  and  C_11
REMARK                            x       y       z     vdW  Elec       q    Type
REMARK                         _______ _______ _______ _____ _____    ______ ____
ROOT
ATOM      1  C   UNL     1       3.545   5.232  18.740  0.00  0.00    +0.000 A 
ATOM      2  C   UNL     1       3.694   4.829  17.475  0.00  0.00    +0.000 A 
ATOM      3  C   UNL     1       5.034   4.588  16.910  0.00  0.00    +0.000 A 
ATOM      4  O   UNL     1       5.124   4.216  15.743  0.00  0.00    +0.000 OA
ATOM      5  N   UNL     1       6.099   4.794  17.761  0.00  0.00    +0.000 N 
ATOM      6  C   UNL     1       7.445   4.555  17.287  0.00  0.00    +0.000 C 
ATOM      7  C   UNL     1       5.945   5.198  19.072  0.00  0.00    +0.000 A 
ATOM      8  O   UNL     1       6.877   5.352  19.861  0.00  0.00    +0.000 OA
ATOM      9  N   UNL     1       4.664   5.422  19.489  0.00  0.00    +0.000 N 
ATOM     10  H   UNL     1       4.579   5.708  20.452  0.00  0.00    +0.000 HD
ENDROOT
BRANCH   1  11
ATOM     11  N   UNL     1       2.315   5.473  19.316  0.00  0.00    +0.000 N 
ATOM     12  H   UNL     1       1.949   6.383  19.052  0.00  0.00    +0.000 HD
BRANCH  11  13
ATOM     13  C   UNL     1       2.041   5.162  20.718  0.00  0.00    +0.000 C 
BRANCH  13  14
ATOM     14  C   UNL     1       1.768   3.669  20.889  0.00  0.00    +0.000 C 
BRANCH  14  16
ATOM     15  C   UNL     1       1.360   2.127  18.933  0.00  0.00    +0.000 C 
ATOM     16  C   UNL     1       0.747   3.150  19.876  0.00  0.00    +0.000 C 
ENDBRANCH  14  16
ENDBRANCH  13  14
ENDBRANCH  11  13
ENDBRANCH   1  11
TORSDOF 4
ENDMDL
MODEL 5
REMARK VINA RESULT:      -6.0      2.156      5.327
REMARK  Name = 
REMARK  6 active torsions:
REMARK  status: ('A' for Active; 'I' for Inactive)
REMARK    1  A    between atoms: C_1  and  C_2
REMARK    2  A    between atoms: C_2  and  C_3
REMARK    3  A    between atoms: C_3  and  C_4
REMARK    4  A    between atoms: C_4  and  N_5
REMARK    5  A    between atoms: N_5  and  C_6
REMARK    6  A    between atoms: N_10  and  C_11
REMARK                            x       y       z     vdW  Elec       q    Type
REMARK                         _______ _______ _______ _____ _____    ______ ____
ROOT
ATOM      1  C   UNL     1       5.087   3.971  17.990  0.00  0.00    +0.000 A 
ATOM      2  C   UNL     1       4.807   4.838  17.012  0.00  0.00    +0.000 A 
ATOM      3  C   UNL     1       5.632   6.042  16.808  0.00  0.00    +0.000 A 
ATOM      4  O   UNL     1       5.340   6.810  15.895  0.00  0.00    +0.000 OA
ATOM      5  N   UNL     1       6.694   6.205  17.672  0.00  0.00    +0.000 N 
ATOM      6  C   UNL     1       7.565   7.351  17.521  0.00  0.00    +0.000 C 
ATOM      7  C   UNL     1       6.992   5.304  18.674  0.00  0.00    +0.000 A 
ATOM      8  O   UNL     1       7.955   5.407  19.433  0.00  0.00    +0.000 OA
ATOM      9  N   UNL     1       6.149   4.237  18.798  0.00  0.00    +0.000 N 
ATOM     10  H   UNL     1       6.393   3.589  19.531  0.00  0.00    +0.000 HD
ENDROOT
BRANCH   1  11
ATOM     11  N   UNL     1       4.347   2.832  18.224  0.00  0.00    +0.000 N 
ATOM     12  H   UNL     1       3.746   2.606  17.437  0.00  0.00    +0.000 HD
BRANCH  11  13
ATOM     13  C   UNL     1       3.682   2.588  19.504  0.00  0.00    +0.000 C 
BRANCH  13  14
ATOM     14  C   UNL     1       2.701   3.715  19.818  0.00  0.00    +0.000 C 
BRANCH  14  16
ATOM     15  C   UNL     1       0.751   2.452  18.832  0.00  0.00    +0.000 C 
ATOM     16  C   UNL     1       1.281   3.196  20.047  0.00  0.00    +0.000 C 
ENDBRANCH  14  16
ENDBRANCH  13  14
ENDBRANCH  11  13
ENDBRANCH   1  11
TORSDOF 4
ENDMDL
MODEL 6
REMARK VINA RESULT:      -6.0      1.922      2.732
REMARK  Name = 
REMARK  6 active torsions:
REMARK  status: ('A' for Active; 'I' for Inactive)
REMARK    1  A    between atoms: C_1  and  C_2
REMARK    2  A    between atoms: C_2  and  C_3
REMARK    3  A    between atoms: C_3  and  C_4
REMARK    4  A    between atoms: C_4  and  N_5
REMARK    5  A    between atoms: N_5  and  C_6
REMARK    6  A    between atoms: N_10  and  C_11
REMARK                            x       y       z     vdW  Elec       q    Type
REMARK                         _______ _______ _______ _____ _____    ______ ____
ROOT
ATOM      1  C   UNL     1       5.264   4.556  17.990  0.00  0.00    +0.000 A 
ATOM      2  C   UNL     1       4.013   4.829  17.609  0.00  0.00    +0.000 A 
ATOM      3  C   UNL     1       2.870   4.096  18.182  0.00  0.00    +0.000 A 
ATOM      4  O   UNL     1       1.736   4.382  17.805  0.00  0.00    +0.000 OA
ATOM      5  N   UNL     1       3.174   3.135  19.123  0.00  0.00    +0.000 N 
ATOM      6  C   UNL     1       2.103   2.389  19.749  0.00  0.00    +0.000 C 
ATOM      7  C   UNL     1       4.465   2.861  19.526  0.00  0.00    +0.000 A 
ATOM      8  O   UNL     1       4.758   2.036  20.391  0.00  0.00    +0.000 OA
ATOM      9  N   UNL     1       5.454   3.576  18.914  0.00  0.00    +0.000 N 
ATOM     10  H   UNL     1       6.387   3.363  19.232  0.00  0.00    +0.000 HD
ENDROOT
BRANCH   1  11
ATOM     11  N   UNL     1       6.368   5.210  17.484  0.00  0.00    +0.000 N 
ATOM     12  H   UNL     1       6.166   6.186  17.283  0.00  0.00    +0.000 HD
BRANCH  11  13
ATOM     13  C   UNL     1       7.226   4.610  16.464  0.00  0.00    +0.000 C 
BRANCH  13  14
ATOM     14  C   UNL     1       6.721   4.964  15.066  0.00  0.00    +0.000 C 
BRANCH  14  16
ATOM     15  C   UNL     1       6.257   3.717  12.922  0.00  0.00    +0.000 C 
ATOM     16  C   UNL     1       5.972   3.802  14.413  0.00  0.00    +0.000 C 
ENDBRANCH  14  16
ENDBRANCH  13  14
ENDBRANCH  11  13
ENDBRANCH   1  11
TORSDOF 4
ENDMDL
MODEL 7
REMARK VINA RESULT:      -5.9      1.949      2.489
REMARK  Name = 
REMARK  6 active torsions:
REMARK  status: ('A' for Active; 'I' for Inactive)
REMARK    1  A    between atoms: C_1  and  C_2
REMARK    2  A    between atoms: C_2  and  C_3
REMARK    3  A    between atoms: C_3  and  C_4
REMARK    4  A    between atoms: C_4  and  N_5
REMARK    5  A    between atoms: N_5  and  C_6
REMARK    6  A    between atoms: N_10  and  C_11
REMARK                            x       y       z     vdW  Elec       q    Type
REMARK                         _______ _______ _______ _____ _____    ______ ____
ROOT
ATOM      1  C   UNL     1       5.427   4.499  19.086  0.00  0.00    +0.000 A 
ATOM      2  C   UNL     1       4.424   5.335  19.368  0.00  0.00    +0.000 A 
ATOM      3  C   UNL     1       3.032   4.854  19.428  0.00  0.00    +0.000 A 
ATOM      4  O   UNL     1       2.141   5.657  19.694  0.00  0.00    +0.000 OA
ATOM      5  N   UNL     1       2.842   3.510  19.187  0.00  0.00    +0.000 N 
ATOM      6  C   UNL     1       1.505   2.957  19.252  0.00  0.00    +0.000 C 
ATOM      7  C   UNL     1       3.878   2.643  18.909  0.00  0.00    +0.000 A 
ATOM      8  O   UNL     1       3.739   1.433  18.728  0.00  0.00    +0.000 OA
ATOM      9  N   UNL     1       5.127   3.193  18.847  0.00  0.00    +0.000 N 
ATOM     10  H   UNL     1       5.868   2.538  18.651  0.00  0.00    +0.000 HD
ENDROOT
BRANCH   1  11
ATOM     11  N   UNL     1       6.745   4.897  19.016  0.00  0.00    +0.000 N 
ATOM     12  H   UNL     1       6.883   5.816  19.427  0.00  0.00    +0.000 HD
BRANCH  11  13
ATOM     13  C   UNL     1       7.547   4.716  17.806  0.00  0.00    +0.000 C 
BRANCH  13  14
ATOM     14  C   UNL     1       7.052   5.642  16.696  0.00  0.00    +0.000 C 
BRANCH  14  16
ATOM     15  C   UNL     1       5.871   3.871  15.340  0.00  0.00    +0.000 C 
ATOM     16  C   UNL     1       6.965   4.926  15.347  0.00  0.00    +0.000 C 
ENDBRANCH  14  16
ENDBRANCH  13  14
ENDBRANCH  11  13
ENDBRANCH   1  11
TORSDOF 4
ENDMDL
MODEL 8
REMARK VINA RESULT:      -5.9      2.110      2.578
REMARK  Name = 
REMARK  6 active torsions:
REMARK  status: ('A' for Active; 'I' for Inactive)
REMARK    1  A    between atoms: C_1  and  C_2
REMARK    2  A    between atoms: C_2  and  C_3
REMARK    3  A    between atoms: C_3  and  C_4
REMARK    4  A    between atoms: C_4  and  N_5
REMARK    5  A    between atoms: N_5  and  C_6
REMARK    6  A    between atoms: N_10  and  C_11
REMARK                            x       y       z     vdW  Elec       q    Type
REMARK                         _______ _______ _______ _____ _____    ______ ____
ROOT
ATOM      1  C   UNL     1       5.228   4.143  18.763  0.00  0.00    +0.000 A 
ATOM      2  C   UNL     1       4.568   5.205  19.233  0.00  0.00    +0.000 A 
ATOM      3  C   UNL     1       3.148   5.106  19.618  0.00  0.00    +0.000 A 
ATOM      4  O   UNL     1       2.582   6.108  20.048  0.00  0.00    +0.000 OA
ATOM      5  N   UNL     1       2.564   3.866  19.471  0.00  0.00    +0.000 N 
ATOM      6  C   UNL     1       1.179   3.683  19.851  0.00  0.00    +0.000 C 
ATOM      7  C   UNL     1       3.248   2.765  18.998  0.00  0.00    +0.000 A 
ATOM      8  O   UNL     1       2.759   1.640  18.894  0.00  0.00    +0.000 OA
ATOM      9  N   UNL     1       4.550   2.969  18.642  0.00  0.00    +0.000 N 
ATOM     10  H   UNL     1       5.030   2.147  18.307  0.00  0.00    +0.000 HD
ENDROOT
BRANCH   1  11
ATOM     11  N   UNL     1       6.554   4.182  18.387  0.00  0.00    +0.000 N 
ATOM     12  H   UNL     1       7.166   4.322  19.186  0.00  0.00    +0.000 HD
BRANCH  11  13
ATOM     13  C   UNL     1       7.006   4.931  17.216  0.00  0.00    +0.000 C 
BRANCH  13  14
ATOM     14  C   UNL     1       6.569   4.228  15.932  0.00  0.00    +0.000 C 
BRANCH  14  16
ATOM     15  C   UNL     1       5.232   6.366  15.808  0.00  0.00    +0.000 C 
ATOM     16  C   UNL     1       5.678   5.118  15.063  0.00  0.00    +0.000 C 
ENDBRANCH  14  16
ENDBRANCH  13  14
ENDBRANCH  11  13
ENDBRANCH   1  11
TORSDOF 4
ENDMDL
MODEL 9
REMARK VINA RESULT:      -5.9      2.166      5.442
REMARK  Name = 
REMARK  6 active torsions:
REMARK  status: ('A' for Active; 'I' for Inactive)
REMARK    1  A    between atoms: C_1  and  C_2
REMARK    2  A    between atoms: C_2  and  C_3
REMARK    3  A    between atoms: C_3  and  C_4
REMARK    4  A    between atoms: C_4  and  N_5
REMARK    5  A    between atoms: N_5  and  C_6
REMARK    6  A    between atoms: N_10  and  C_11
REMARK                            x       y       z     vdW  Elec       q    Type
REMARK                         _______ _______ _______ _____ _____    ______ ____
ROOT
ATOM      1  C   UNL     1       4.414   3.805  17.660  0.00  0.00    +0.000 A 
ATOM      2  C   UNL     1       3.862   5.021  17.631  0.00  0.00    +0.000 A 
ATOM      3  C   UNL     1       4.699   6.230  17.521  0.00  0.00    +0.000 A 
ATOM      4  O   UNL     1       4.149   7.328  17.495  0.00  0.00    +0.000 OA
ATOM      5  N   UNL     1       6.060   6.022  17.444  0.00  0.00    +0.000 N 
ATOM      6  C   UNL     1       6.947   7.158  17.311  0.00  0.00    +0.000 C 
ATOM      7  C   UNL     1       6.630   4.765  17.461  0.00  0.00    +0.000 A 
ATOM      8  O   UNL     1       7.838   4.553  17.356  0.00  0.00    +0.000 OA
ATOM      9  N   UNL     1       5.770   3.713  17.595  0.00  0.00    +0.000 N 
ATOM     10  H   UNL     1       6.210   2.806  17.597  0.00  0.00    +0.000 HD
ENDROOT
BRANCH   1  11
ATOM     11  N   UNL     1       3.677   2.644  17.763  0.00  0.00    +0.000 N 
ATOM     12  H   UNL     1       4.018   1.925  17.131  0.00  0.00    +0.000 HD
BRANCH  11  13
ATOM     13  C   UNL     1       2.217   2.655  17.837  0.00  0.00    +0.000 C 
BRANCH  13  14
ATOM     14  C   UNL     1       1.745   2.038  19.153  0.00  0.00    +0.000 C 
BRANCH  14  16
ATOM     15  C   UNL     1       1.548   2.779  21.558  0.00  0.00    +0.000 C 
ATOM     16  C   UNL     1       1.187   3.089  20.114  0.00  0.00    +0.000 C 
ENDBRANCH  14  16
ENDBRANCH  13  14
ENDBRANCH  11  13
ENDBRANCH   1  11
TORSDOF 4
ENDMDL
