MODEL 1
REMARK VINA RESULT:      -8.2      0.000      0.000
REMARK  Name = 
REMARK  7 active torsions:
REMARK  status: ('A' for Active; 'I' for Inactive)
REMARK    1  A    between atoms: C_1  and  C_2
REMARK    2  A    between atoms: C_5  and  S_6
REMARK    3  A    between atoms: S_6  and  N_9
REMARK    4  A    between atoms: N_9  and  C_10
REMARK    5  A    between atoms: C_10  and  C_11
REMARK    6  A    between atoms: C_18  and  C_19
REMARK    7  A    between atoms: N_21  and  C_22
REMARK                            x       y       z     vdW  Elec       q    Type
REMARK                         _______ _______ _______ _____ _____    ______ ____
ROOT
ATOM      1  C   UNL     1       0.684   8.746  21.092  0.00  0.00    +0.000 C 
ATOM      2  C   UNL     1       1.614   8.045  20.141  0.00  0.00    +0.000 A 
ATOM      3  C   UNL     1       2.223   6.861  20.605  0.00  0.00    +0.000 A 
ATOM      4  C   UNL     1       3.043   6.097  19.779  0.00  0.00    +0.000 A 
ATOM      5  C   UNL     1       3.271   6.501  18.466  0.00  0.00    +0.000 A 
ATOM      6  C   UNL     1       2.687   7.682  17.981  0.00  0.00    +0.000 A 
ATOM      7  C   UNL     1       1.863   8.469  18.818  0.00  0.00    +0.000 A 
ENDROOT
BRANCH   7   8
ATOM      8  C   UNL     1       1.207   9.672  18.196  0.00  0.00    +0.000 C 
ATOM      9  O   UNL     1       1.912  10.479  17.599  0.00  0.00    +0.000 OA
ATOM     10  N   UNL     1      -0.166   9.803  18.330  0.00  0.00    +0.000 N 
ATOM     11  H   UNL     1      -0.651   9.222  18.997  0.00  0.00    +0.000 HD
BRANCH  10  12
ATOM     12  C   UNL     1      -0.947  10.779  17.556  0.00  0.00    +0.000 C 
ATOM     13  C   UNL     1      -2.108  10.090  16.814  0.00  0.00    +0.000 C 
ATOM     14  C   UNL     1      -3.401   9.977  17.619  0.00  0.00    +0.000 C 
ATOM     15  C   UNL     1      -3.828  11.338  18.147  0.00  0.00    +0.000 C 
ATOM     16  C   UNL     1      -2.753  11.896  19.068  0.00  0.00    +0.000 C 
ATOM     17  C   UNL     1      -1.388  12.002  18.383  0.00  0.00    +0.000 C 
ENDBRANCH  10  12
ENDBRANCH   7   8
BRANCH   5  18
ATOM     18  S   UNL     1       4.417   5.541  17.486  0.00  0.00    +0.000 S 
ATOM     19  O   UNL     1       4.746   6.333  16.326  0.00  0.00    +0.000 OA
ATOM     20  O   UNL     1       5.433   5.052  18.390  0.00  0.00    +0.000 OA
BRANCH  18  21
ATOM     21  N   UNL     1       3.529   4.189  17.010  0.00  0.00    +0.000 NA
ATOM     22  H   UNL     1       3.517   4.044  16.002  0.00  0.00    +0.000 HD
BRANCH  21  23
ATOM     23  C   UNL     1       3.777   2.968  17.783  0.00  0.00    +0.000 C 
BRANCH  23  24
ATOM     24  C   UNL     1       2.898   2.868  19.004  0.00  0.00    +0.000 A 
ATOM     25  C   UNL     1       3.466   2.619  20.261  0.00  0.00    +0.000 A 
ATOM     26  C   UNL     1       2.671   2.593  21.406  0.00  0.00    +0.000 A 
ATOM     27  C   UNL     1       1.298   2.809  21.306  0.00  0.00    +0.000 A 
ATOM     28  C   UNL     1       0.718   3.045  20.061  0.00  0.00    +0.000 A 
ATOM     29  C   UNL     1       1.513   3.072  18.912  0.00  0.00    +0.000 A 
ENDBRANCH  23  24
ENDBRANCH  21  23
ENDBRANCH  18  21
ENDBRANCH   5  18
TORSDOF 6
ENDMDL
MODEL 2
REMARK VINA RESULT:      -7.8      2.477      3.678
REMARK  Name = 
REMARK  7 active torsions:
REMARK  status: ('A' for Active; 'I' for Inactive)
REMARK    1  A    between atoms: C_1  and  C_2
REMARK    2  A    between atoms: C_5  and  S_6
REMARK    3  A    between atoms: S_6  and  N_9
REMARK    4  A    between atoms: N_9  and  C_10
REMARK    5  A    between atoms: C_10  and  C_11
REMARK    6  A    between atoms: C_18  and  C_19
REMARK    7  A    between atoms: N_21  and  C_22
REMARK                            x       y       z     vdW  Elec       q    Type
REMARK                         _______ _______ _______ _____ _____    ______ ____
ROOT
ATOM      1  C   UNL     1       1.319   8.073  21.303  0.00  0.00    +0.000 C 
ATOM      2  C   UNL     1       1.863   7.074  20.320  0.00  0.00    +0.000 A 
ATOM      3  C   UNL     1       2.126   5.778  20.810  0.00  0.00    +0.000 A 
ATOM      4  C   UNL     1       2.562   4.760  19.968  0.00  0.00    +0.000 A 
ATOM      5  C   UNL     1       2.742   5.015  18.610  0.00  0.00    +0.000 A 
ATOM      6  C   UNL     1       2.499   6.298  18.097  0.00  0.00    +0.000 A 
ATOM      7  C   UNL     1       2.068   7.340  18.949  0.00  0.00    +0.000 A 
ENDROOT
BRANCH   7   8
ATOM      8  C   UNL     1       1.748   8.662  18.305  0.00  0.00    +0.000 C 
ATOM      9  O   UNL     1       2.433   9.032  17.357  0.00  0.00    +0.000 OA
ATOM     10  N   UNL     1       0.688   9.393  18.819  0.00  0.00    +0.000 N 
ATOM     11  H   UNL     1       0.302   9.133  19.714  0.00  0.00    +0.000 HD
BRANCH  10  12
ATOM     12  C   UNL     1       0.118  10.556  18.123  0.00  0.00    +0.000 C 
ATOM     13  C   UNL     1      -1.170  10.169  17.370  0.00  0.00    +0.000 C 
ATOM     14  C   UNL     1      -2.448  10.275  18.199  0.00  0.00    +0.000 C 
ATOM     15  C   UNL     1      -2.578  11.659  18.816  0.00  0.00    +0.000 C 
ATOM     16  C   UNL     1      -1.399  11.925  19.742  0.00  0.00    +0.000 C 
ATOM     17  C   UNL     1      -0.050  11.789  19.031  0.00  0.00    +0.000 C 
ENDBRANCH  10  12
ENDBRANCH   7   8
BRANCH   5  18
ATOM     18  S   UNL     1       3.405   3.699  17.597  0.00  0.00    +0.000 S 
ATOM     19  O   UNL     1       4.244   2.894  18.450  0.00  0.00    +0.000 OA
ATOM     20  O   UNL     1       2.295   3.134  16.865  0.00  0.00    +0.000 OA
BRANCH  18  21
ATOM     21  N   UNL     1       4.360   4.492  16.456  0.00  0.00    +0.000 NA
ATOM     22  H   UNL     1       4.182   5.493  16.401  0.00  0.00    +0.000 HD
BRANCH  21  23
ATOM     23  C   UNL     1       5.783   4.142  16.473  0.00  0.00    +0.000 C 
BRANCH  23  24
ATOM     24  C   UNL     1       6.624   5.169  17.189  0.00  0.00    +0.000 A 
ATOM     25  C   UNL     1       6.722   6.473  16.685  0.00  0.00    +0.000 A 
ATOM     26  C   UNL     1       7.441   7.448  17.376  0.00  0.00    +0.000 A 
ATOM     27  C   UNL     1       8.073   7.128  18.577  0.00  0.00    +0.000 A 
ATOM     28  C   UNL     1       7.993   5.832  19.083  0.00  0.00    +0.000 A 
ATOM     29  C   UNL     1       7.274   4.853  18.392  0.00  0.00    +0.000 A 
ENDBRANCH  23  24
ENDBRANCH  21  23
ENDBRANCH  18  21
ENDBRANCH   5  18
TORSDOF 6
ENDMDL
MODEL 3
REMARK VINA RESULT:      -7.8      1.923      2.627
REMARK  Name = 
REMARK  7 active torsions:
REMARK  status: ('A' for Active; 'I' for Inactive)
REMARK    1  A    between atoms: C_1  and  C_2
REMARK    2  A    between atoms: C_5  and  S_6
REMARK    3  A    between atoms: S_6  and  N_9
REMARK    4  A    between atoms: N_9  and  C_10
REMARK    5  A    between atoms: C_10  and  C_11
REMARK    6  A    between atoms: C_18  and  C_19
REMARK    7  A    between atoms: N_21  and  C_22
REMARK                            x       y       z     vdW  Elec       q    Type
REMARK                         _______ _______ _______ _____ _____    ______ ____
ROOT
ATOM      1  C   UNL     1       0.443   8.803  21.205  0.00  0.00    +0.000 C 
ATOM      2  C   UNL     1       1.416   8.176  20.246  0.00  0.00    +0.000 A 
ATOM      3  C   UNL     1       1.971   6.937  20.624  0.00  0.00    +0.000 A 
ATOM      4  C   UNL     1       2.825   6.237  19.777  0.00  0.00    +0.000 A 
ATOM      5  C   UNL     1       3.142   6.763  18.526  0.00  0.00    +0.000 A 
ATOM      6  C   UNL     1       2.614   8.000  18.129  0.00  0.00    +0.000 A 
ATOM      7  C   UNL     1       1.756   8.722  18.989  0.00  0.00    +0.000 A 
ENDROOT
BRANCH   7   8
ATOM      8  C   UNL     1       1.164   9.997  18.453  0.00  0.00    +0.000 C 
ATOM      9  O   UNL     1       0.115   9.934  17.820  0.00  0.00    +0.000 OA
ATOM     10  N   UNL     1       1.838  11.182  18.705  0.00  0.00    +0.000 N 
ATOM     11  H   UNL     1       2.786  11.142  19.049  0.00  0.00    +0.000 HD
BRANCH  10  12
ATOM     12  C   UNL     1       1.237  12.502  18.466  0.00  0.00    +0.000 C 
ATOM     13  C   UNL     1       0.320  12.909  19.636  0.00  0.00    +0.000 C 
ATOM     14  C   UNL     1       1.026  13.646  20.772  0.00  0.00    +0.000 C 
ATOM     15  C   UNL     1       1.791  14.847  20.241  0.00  0.00    +0.000 C 
ATOM     16  C   UNL     1       2.854  14.389  19.253  0.00  0.00    +0.000 C 
ATOM     17  C   UNL     1       2.268  13.583  18.090  0.00  0.00    +0.000 C 
ENDBRANCH  10  12
ENDBRANCH   7   8
BRANCH   5  18
ATOM     18  S   UNL     1       4.328   5.874  17.526  0.00  0.00    +0.000 S 
ATOM     19  O   UNL     1       4.607   6.697  16.374  0.00  0.00    +0.000 OA
ATOM     20  O   UNL     1       5.375   5.426  18.416  0.00  0.00    +0.000 OA
BRANCH  18  21
ATOM     21  N   UNL     1       3.505   4.485  17.039  0.00  0.00    +0.000 NA
ATOM     22  H   UNL     1       3.476   4.363  16.028  0.00  0.00    +0.000 HD
BRANCH  21  23
ATOM     23  C   UNL     1       3.842   3.263  17.775  0.00  0.00    +0.000 C 
BRANCH  23  24
ATOM     24  C   UNL     1       2.942   3.037  18.964  0.00  0.00    +0.000 A 
ATOM     25  C   UNL     1       3.496   2.788  20.228  0.00  0.00    +0.000 A 
ATOM     26  C   UNL     1       2.675   2.647  21.346  0.00  0.00    +0.000 A 
ATOM     27  C   UNL     1       1.292   2.747  21.213  0.00  0.00    +0.000 A 
ATOM     28  C   UNL     1       0.727   2.982  19.960  0.00  0.00    +0.000 A 
ATOM     29  C   UNL     1       1.547   3.125  18.838  0.00  0.00    +0.000 A 
ENDBRANCH  23  24
ENDBRANCH  21  23
ENDBRANCH  18  21
ENDBRANCH   5  18
TORSDOF 6
ENDMDL
MODEL 4
REMARK VINA RESULT:      -7.7      2.628      3.854
REMARK  Name = 
REMARK  7 active torsions:
REMARK  status: ('A' for Active; 'I' for Inactive)
REMARK    1  A    between atoms: C_1  and  C_2
REMARK    2  A    between atoms: C_5  and  S_6
REMARK    3  A    between atoms: S_6  and  N_9
REMARK    4  A    between atoms: N_9  and  C_10
REMARK    5  A    between atoms: C_10  and  C_11
REMARK    6  A    between atoms: C_18  and  C_19
REMARK    7  A    between atoms: N_21  and  C_22
REMARK                            x       y       z     vdW  Elec       q    Type
REMARK                         _______ _______ _______ _____ _____    ______ ____
ROOT
ATOM      1  C   UNL     1       1.153   7.996  21.310  0.00  0.00    +0.000 C 
ATOM      2  C   UNL     1       1.740   7.010  20.339  0.00  0.00    +0.000 A 
ATOM      3  C   UNL     1       1.862   5.677  20.781  0.00  0.00    +0.000 A 
ATOM      4  C   UNL     1       2.325   4.673  19.936  0.00  0.00    +0.000 A 
ATOM      5  C   UNL     1       2.674   4.980  18.624  0.00  0.00    +0.000 A 
ATOM      6  C   UNL     1       2.574   6.300  18.159  0.00  0.00    +0.000 A 
ATOM      7  C   UNL     1       2.117   7.328  19.015  0.00  0.00    +0.000 A 
ENDROOT
BRANCH   7   8
ATOM      8  C   UNL     1       1.957   8.698  18.415  0.00  0.00    +0.000 C 
ATOM      9  O   UNL     1       2.358   8.886  17.271  0.00  0.00    +0.000 OA
ATOM     10  N   UNL     1       1.361   9.680  19.190  0.00  0.00    +0.000 N 
ATOM     11  H   UNL     1       1.241   9.519  20.179  0.00  0.00    +0.000 HD
BRANCH  10  12
ATOM     12  C   UNL     1       0.916  10.966  18.634  0.00  0.00    +0.000 C 
ATOM     13  C   UNL     1      -0.618  10.999  18.482  0.00  0.00    +0.000 C 
ATOM     14  C   UNL     1      -1.370  11.488  19.718  0.00  0.00    +0.000 C 
ATOM     15  C   UNL     1      -0.843  12.840  20.170  0.00  0.00    +0.000 C 
ATOM     16  C   UNL     1       0.630  12.725  20.537  0.00  0.00    +0.000 C 
ATOM     17  C   UNL     1       1.483  12.185  19.386  0.00  0.00    +0.000 C 
ENDBRANCH  10  12
ENDBRANCH   7   8
BRANCH   5  18
ATOM     18  S   UNL     1       3.363   3.672  17.618  0.00  0.00    +0.000 S 
ATOM     19  O   UNL     1       4.217   2.887  18.476  0.00  0.00    +0.000 OA
ATOM     20  O   UNL     1       2.265   3.082  16.888  0.00  0.00    +0.000 OA
BRANCH  18  21
ATOM     21  N   UNL     1       4.304   4.477  16.473  0.00  0.00    +0.000 NA
ATOM     22  H   UNL     1       4.087   5.469  16.393  0.00  0.00    +0.000 HD
BRANCH  21  23
ATOM     23  C   UNL     1       5.740   4.184  16.519  0.00  0.00    +0.000 C 
BRANCH  23  24
ATOM     24  C   UNL     1       6.523   5.241  17.258  0.00  0.00    +0.000 A 
ATOM     25  C   UNL     1       7.193   4.918  18.446  0.00  0.00    +0.000 A 
ATOM     26  C   UNL     1       7.976   5.869  19.099  0.00  0.00    +0.000 A 
ATOM     27  C   UNL     1       8.093   7.155  18.575  0.00  0.00    +0.000 A 
ATOM     28  C   UNL     1       7.421   7.493  17.401  0.00  0.00    +0.000 A 
ATOM     29  C   UNL     1       6.636   6.542  16.744  0.00  0.00    +0.000 A 
ENDBRANCH  23  24
ENDBRANCH  21  23
ENDBRANCH  18  21
ENDBRANCH   5  18
TORSDOF 6
ENDMDL
MODEL 5
REMARK VINA RESULT:      -7.7      2.554      3.938
REMARK  Name = 
REMARK  7 active torsions:
REMARK  status: ('A' for Active; 'I' for Inactive)
REMARK    1  A    between atoms: C_1  and  C_2
REMARK    2  A    between atoms: C_5  and  S_6
REMARK    3  A    between atoms: S_6  and  N_9
REMARK    4  A    between atoms: N_9  and  C_10
REMARK    5  A    between atoms: C_10  and  C_11
REMARK    6  A    between atoms: C_18  and  C_19
REMARK    7  A    between atoms: N_21  and  C_22
REMARK                            x       y       z     vdW  Elec       q    Type
REMARK                         _______ _______ _______ _____ _____    ______ ____
ROOT
ATOM      1  C   UNL     1       1.537   7.809  21.352  0.00  0.00    +0.000 C 
ATOM      2  C   UNL     1       1.906   6.695  20.414  0.00  0.00    +0.000 A 
ATOM      3  C   UNL     1       1.944   5.393  20.956  0.00  0.00    +0.000 A 
ATOM      4  C   UNL     1       2.202   4.283  20.157  0.00  0.00    +0.000 A 
ATOM      5  C   UNL     1       2.426   4.450  18.793  0.00  0.00    +0.000 A 
ATOM      6  C   UNL     1       2.406   5.734  18.228  0.00  0.00    +0.000 A 
ATOM      7  C   UNL     1       2.157   6.868  19.035  0.00  0.00    +0.000 A 
ENDROOT
BRANCH   7   8
ATOM      8  C   UNL     1       2.067   8.198  18.338  0.00  0.00    +0.000 C 
ATOM      9  O   UNL     1       2.619   8.326  17.249  0.00  0.00    +0.000 OA
ATOM     10  N   UNL     1       1.361   9.212  18.964  0.00  0.00    +0.000 N 
ATOM     11  H   UNL     1       1.110   9.106  19.936  0.00  0.00    +0.000 HD
BRANCH  10  12
ATOM     12  C   UNL     1       0.984  10.456  18.277  0.00  0.00    +0.000 C 
ATOM     13  C   UNL     1      -0.548  10.580  18.167  0.00  0.00    +0.000 C 
ATOM     14  C   UNL     1      -1.220  11.258  19.359  0.00  0.00    +0.000 C 
ATOM     15  C   UNL     1      -0.586  12.612  19.638  0.00  0.00    +0.000 C 
ATOM     16  C   UNL     1       0.888  12.434  19.973  0.00  0.00    +0.000 C 
ATOM     17  C   UNL     1       1.660  11.709  18.866  0.00  0.00    +0.000 C 
ENDBRANCH  10  12
ENDBRANCH   7   8
BRANCH   5  18
ATOM     18  S   UNL     1       2.859   3.002  17.837  0.00  0.00    +0.000 S 
ATOM     19  O   UNL     1       2.466   1.852  18.615  0.00  0.00    +0.000 OA
ATOM     20  O   UNL     1       2.365   3.222  16.497  0.00  0.00    +0.000 OA
BRANCH  18  21
ATOM     21  N   UNL     1       4.540   3.060  17.730  0.00  0.00    +0.000 NA
ATOM     22  H   UNL     1       4.986   2.150  17.831  0.00  0.00    +0.000 HD
BRANCH  21  23
ATOM     23  C   UNL     1       5.074   3.863  16.626  0.00  0.00    +0.000 C 
BRANCH  23  24
ATOM     24  C   UNL     1       5.983   4.969  17.100  0.00  0.00    +0.000 A 
ATOM     25  C   UNL     1       5.791   6.281  16.645  0.00  0.00    +0.000 A 
ATOM     26  C   UNL     1       6.582   7.322  17.131  0.00  0.00    +0.000 A 
ATOM     27  C   UNL     1       7.576   7.062  18.072  0.00  0.00    +0.000 A 
ATOM     28  C   UNL     1       7.785   5.760  18.524  0.00  0.00    +0.000 A 
ATOM     29  C   UNL     1       6.994   4.715  18.039  0.00  0.00    +0.000 A 
ENDBRANCH  23  24
ENDBRANCH  21  23
ENDBRANCH  18  21
ENDBRANCH   5  18
TORSDOF 6
ENDMDL
MODEL 6
REMARK VINA RESULT:      -7.6      3.883      7.691
REMARK  Name = 
REMARK  7 active torsions:
REMARK  status: ('A' for Active; 'I' for Inactive)
REMARK    1  A    between atoms: C_1  and  C_2
REMARK    2  A    between atoms: C_5  and  S_6
REMARK    3  A    between atoms: S_6  and  N_9
REMARK    4  A    between atoms: N_9  and  C_10
REMARK    5  A    between atoms: C_10  and  C_11
REMARK    6  A    between atoms: C_18  and  C_19
REMARK    7  A    between atoms: N_21  and  C_22
REMARK                            x       y       z     vdW  Elec       q    Type
REMARK                         _______ _______ _______ _____ _____    ______ ____
ROOT
ATOM      1  C   UNL     1       7.176   6.997  17.057  0.00  0.00    +0.000 C 
ATOM      2  C   UNL     1       6.414   5.781  17.505  0.00  0.00    +0.000 A 
ATOM      3  C   UNL     1       6.450   5.480  18.882  0.00  0.00    +0.000 A 
ATOM      4  C   UNL     1       5.720   4.420  19.411  0.00  0.00    +0.000 A 
ATOM      5  C   UNL     1       4.932   3.636  18.571  0.00  0.00    +0.000 A 
ATOM      6  C   UNL     1       4.887   3.905  17.195  0.00  0.00    +0.000 A 
ATOM      7  C   UNL     1       5.636   4.972  16.649  0.00  0.00    +0.000 A 
ENDROOT
BRANCH   7   8
ATOM      8  C   UNL     1       5.464   5.247  15.179  0.00  0.00    +0.000 C 
ATOM      9  O   UNL     1       5.219   6.395  14.824  0.00  0.00    +0.000 OA
ATOM     10  N   UNL     1       5.595   4.183  14.301  0.00  0.00    +0.000 N 
ATOM     11  H   UNL     1       5.594   3.243  14.667  0.00  0.00    +0.000 HD
BRANCH  10  12
ATOM     12  C   UNL     1       5.709   4.366  12.847  0.00  0.00    +0.000 C 
ATOM     13  C   UNL     1       7.179   4.269  12.394  0.00  0.00    +0.000 C 
ATOM     14  C   UNL     1       7.652   2.855  12.063  0.00  0.00    +0.000 C 
ATOM     15  C   UNL     1       6.728   2.202  11.046  0.00  0.00    +0.000 C 
ATOM     16  C   UNL     1       5.321   2.101  11.616  0.00  0.00    +0.000 C 
ATOM     17  C   UNL     1       4.758   3.461  12.041  0.00  0.00    +0.000 C 
ENDBRANCH  10  12
ENDBRANCH   7   8
BRANCH   5  18
ATOM     18  S   UNL     1       4.103   2.223  19.288  0.00  0.00    +0.000 S 
ATOM     19  O   UNL     1       3.641   1.406  18.192  0.00  0.00    +0.000 OA
ATOM     20  O   UNL     1       4.975   1.702  20.315  0.00  0.00    +0.000 OA
BRANCH  18  21
ATOM     21  N   UNL     1       2.777   2.883  20.094  0.00  0.00    +0.000 NA
ATOM     22  H   UNL     1       3.030   3.425  20.919  0.00  0.00    +0.000 HD
BRANCH  21  23
ATOM     23  C   UNL     1       1.779   3.533  19.239  0.00  0.00    +0.000 C 
BRANCH  23  24
ATOM     24  C   UNL     1       1.894   5.037  19.257  0.00  0.00    +0.000 A 
ATOM     25  C   UNL     1       1.735   5.741  20.459  0.00  0.00    +0.000 A 
ATOM     26  C   UNL     1       1.907   7.124  20.498  0.00  0.00    +0.000 A 
ATOM     27  C   UNL     1       2.235   7.819  19.336  0.00  0.00    +0.000 A 
ATOM     28  C   UNL     1       2.384   7.133  18.132  0.00  0.00    +0.000 A 
ATOM     29  C   UNL     1       2.212   5.748  18.089  0.00  0.00    +0.000 A 
ENDBRANCH  23  24
ENDBRANCH  21  23
ENDBRANCH  18  21
ENDBRANCH   5  18
TORSDOF 6
ENDMDL
MODEL 7
REMARK VINA RESULT:      -7.6      3.162      4.689
REMARK  Name = 
REMARK  7 active torsions:
REMARK  status: ('A' for Active; 'I' for Inactive)
REMARK    1  A    between atoms: C_1  and  C_2
REMARK    2  A    between atoms: C_5  and  S_6
REMARK    3  A    between atoms: S_6  and  N_9
REMARK    4  A    between atoms: N_9  and  C_10
REMARK    5  A    between atoms: C_10  and  C_11
REMARK    6  A    between atoms: C_18  and  C_19
REMARK    7  A    between atoms: N_21  and  C_22
REMARK                            x       y       z     vdW  Elec       q    Type
REMARK                         _______ _______ _______ _____ _____    ______ ____
ROOT
ATOM      1  C   UNL     1       1.271  11.280  18.833  0.00  0.00    +0.000 C 
ATOM      2  C   UNL     1       1.463   9.820  19.133  0.00  0.00    +0.000 A 
ATOM      3  C   UNL     1       1.948   9.013  18.083  0.00  0.00    +0.000 A 
ATOM      4  C   UNL     1       2.230   7.664  18.276  0.00  0.00    +0.000 A 
ATOM      5  C   UNL     1       2.036   7.090  19.531  0.00  0.00    +0.000 A 
ATOM      6  C   UNL     1       1.543   7.865  20.591  0.00  0.00    +0.000 A 
ATOM      7  C   UNL     1       1.243   9.233  20.399  0.00  0.00    +0.000 A 
ENDROOT
BRANCH   7   8
ATOM      8  C   UNL     1       0.802  10.014  21.607  0.00  0.00    +0.000 C 
ATOM      9  O   UNL     1       1.409   9.852  22.661  0.00  0.00    +0.000 OA
ATOM     10  N   UNL     1      -0.271  10.879  21.464  0.00  0.00    +0.000 N 
ATOM     11  H   UNL     1      -0.846  10.814  20.638  0.00  0.00    +0.000 HD
BRANCH  10  12
ATOM     12  C   UNL     1      -0.625  11.877  22.484  0.00  0.00    +0.000 C 
ATOM     13  C   UNL     1      -0.449  13.308  21.938  0.00  0.00    +0.000 C 
ATOM     14  C   UNL     1      -1.677  13.874  21.230  0.00  0.00    +0.000 C 
ATOM     15  C   UNL     1      -2.905  13.783  22.122  0.00  0.00    +0.000 C 
ATOM     16  C   UNL     1      -3.193  12.326  22.458  0.00  0.00    +0.000 C 
ATOM     17  C   UNL     1      -2.003  11.631  23.127  0.00  0.00    +0.000 C 
ENDBRANCH  10  12
ENDBRANCH   7   8
BRANCH   5  18
ATOM     18  S   UNL     1       2.312   5.331  19.692  0.00  0.00    +0.000 S 
ATOM     19  O   UNL     1       1.440   4.863  20.743  0.00  0.00    +0.000 OA
ATOM     20  O   UNL     1       2.267   4.776  18.359  0.00  0.00    +0.000 OA
BRANCH  18  21
ATOM     21  N   UNL     1       3.916   5.205  20.196  0.00  0.00    +0.000 NA
ATOM     22  H   UNL     1       4.017   4.888  21.159  0.00  0.00    +0.000 HD
BRANCH  21  23
ATOM     23  C   UNL     1       4.821   4.539  19.254  0.00  0.00    +0.000 C 
BRANCH  23  24
ATOM     24  C   UNL     1       5.831   5.485  18.654  0.00  0.00    +0.000 A 
ATOM     25  C   UNL     1       5.491   6.263  17.539  0.00  0.00    +0.000 A 
ATOM     26  C   UNL     1       6.393   7.190  17.020  0.00  0.00    +0.000 A 
ATOM     27  C   UNL     1       7.648   7.347  17.606  0.00  0.00    +0.000 A 
ATOM     28  C   UNL     1       8.003   6.571  18.708  0.00  0.00    +0.000 A 
ATOM     29  C   UNL     1       7.101   5.641  19.231  0.00  0.00    +0.000 A 
ENDBRANCH  23  24
ENDBRANCH  21  23
ENDBRANCH  18  21
ENDBRANCH   5  18
TORSDOF 6
ENDMDL
MODEL 8
REMARK VINA RESULT:      -7.4      2.686      8.170
REMARK  Name = 
REMARK  7 active torsions:
REMARK  status: ('A' for Active; 'I' for Inactive)
REMARK    1  A    between atoms: C_1  and  C_2
REMARK    2  A    between atoms: C_5  and  S_6
REMARK    3  A    between atoms: S_6  and  N_9
REMARK    4  A    between atoms: N_9  and  C_10
REMARK    5  A    between atoms: C_10  and  C_11
REMARK    6  A    between atoms: C_18  and  C_19
REMARK    7  A    between atoms: N_21  and  C_22
REMARK                            x       y       z     vdW  Elec       q    Type
REMARK                         _______ _______ _______ _____ _____    ______ ____
ROOT
ATOM      1  C   UNL     1       3.063   7.480  17.452  0.00  0.00    +0.000 C 
ATOM      2  C   UNL     1       2.333   8.409  18.382  0.00  0.00    +0.000 A 
ATOM      3  C   UNL     1       2.077   9.712  17.907  0.00  0.00    +0.000 A 
ATOM      4  C   UNL     1       1.345  10.626  18.658  0.00  0.00    +0.000 A 
ATOM      5  C   UNL     1       0.848  10.255  19.906  0.00  0.00    +0.000 A 
ATOM      6  C   UNL     1       1.097   8.969  20.409  0.00  0.00    +0.000 A 
ATOM      7  C   UNL     1       1.851   8.039  19.656  0.00  0.00    +0.000 A 
ENDROOT
BRANCH   7   8
ATOM      8  C   UNL     1       1.999   6.656  20.229  0.00  0.00    +0.000 C 
ATOM      9  O   UNL     1       1.232   6.306  21.120  0.00  0.00    +0.000 OA
ATOM     10  N   UNL     1       2.998   5.845  19.714  0.00  0.00    +0.000 N 
ATOM     11  H   UNL     1       3.714   6.257  19.135  0.00  0.00    +0.000 HD
BRANCH  10  12
ATOM     12  C   UNL     1       3.075   4.405  20.000  0.00  0.00    +0.000 C 
ATOM     13  C   UNL     1       1.730   3.713  19.704  0.00  0.00    +0.000 C 
ATOM     14  C   UNL     1       1.567   3.226  18.266  0.00  0.00    +0.000 C 
ATOM     15  C   UNL     1       2.733   2.338  17.861  0.00  0.00    +0.000 C 
ATOM     16  C   UNL     1       4.034   3.123  17.943  0.00  0.00    +0.000 C 
ATOM     17  C   UNL     1       4.280   3.713  19.334  0.00  0.00    +0.000 C 
ENDBRANCH  10  12
ENDBRANCH   7   8
BRANCH   5  18
ATOM     18  S   UNL     1       0.008  11.503  20.871  0.00  0.00    +0.000 S 
ATOM     19  O   UNL     1      -0.838  10.809  21.812  0.00  0.00    +0.000 OA
ATOM     20  O   UNL     1       1.014  12.447  21.302  0.00  0.00    +0.000 OA
BRANCH  18  21
ATOM     21  N   UNL     1      -0.950  12.323  19.752  0.00  0.00    +0.000 NA
ATOM     22  H   UNL     1      -0.524  12.399  18.830  0.00  0.00    +0.000 HD
BRANCH  21  23
ATOM     23  C   UNL     1      -2.362  11.929  19.723  0.00  0.00    +0.000 C 
BRANCH  23  24
ATOM     24  C   UNL     1      -2.769  11.329  18.401  0.00  0.00    +0.000 A 
ATOM     25  C   UNL     1      -3.929  11.776  17.753  0.00  0.00    +0.000 A 
ATOM     26  C   UNL     1      -4.277  11.277  16.498  0.00  0.00    +0.000 A 
ATOM     27  C   UNL     1      -3.472  10.322  15.880  0.00  0.00    +0.000 A 
ATOM     28  C   UNL     1      -2.322   9.860  16.519  0.00  0.00    +0.000 A 
ATOM     29  C   UNL     1      -1.971  10.358  17.776  0.00  0.00    +0.000 A 
ENDBRANCH  23  24
ENDBRANCH  21  23
ENDBRANCH  18  21
ENDBRANCH   5  18
TORSDOF 6
ENDMDL
MODEL 9
REMARK VINA RESULT:      -7.3      2.772      4.164
REMARK  Name = 
REMARK  7 active torsions:
REMARK  status: ('A' for Active; 'I' for Inactive)
REMARK    1  A    between atoms: C_1  and  C_2
REMARK    2  A    between atoms: C_5  and  S_6
REMARK    3  A    between atoms: S_6  and  N_9
REMARK    4  A    between atoms: N_9  and  C_10
REMARK    5  A    between atoms: C_10  and  C_11
REMARK    6  A    between atoms: C_18  and  C_19
REMARK    7  A    between atoms: N_21  and  C_22
REMARK                            x       y       z     vdW  Elec       q    Type
REMARK                         _______ _______ _______ _____ _____    ______ ____
ROOT
ATOM      1  C   UNL     1       1.750  10.292  18.167  0.00  0.00    +0.000 C 
ATOM      2  C   UNL     1       1.841   8.900  18.725  0.00  0.00    +0.000 A 
ATOM      3  C   UNL     1       2.344   7.901  17.866  0.00  0.00    +0.000 A 
ATOM      4  C   UNL     1       2.538   6.596  18.307  0.00  0.00    +0.000 A 
ATOM      5  C   UNL     1       2.234   6.259  19.624  0.00  0.00    +0.000 A 
ATOM      6  C   UNL     1       1.721   7.229  20.499  0.00  0.00    +0.000 A 
ATOM      7  C   UNL     1       1.510   8.554  20.054  0.00  0.00    +0.000 A 
ENDROOT
BRANCH   7   8
ATOM      8  C   UNL     1       1.040   9.552  21.077  0.00  0.00    +0.000 C 
ATOM      9  O   UNL     1       1.590   9.570  22.173  0.00  0.00    +0.000 OA
ATOM     10  N   UNL     1       0.005  10.404  20.723  0.00  0.00    +0.000 N 
ATOM     11  H   UNL     1      -0.532  10.204  19.893  0.00  0.00    +0.000 HD
BRANCH  10  12
ATOM     12  C   UNL     1      -0.362  11.580  21.526  0.00  0.00    +0.000 C 
ATOM     13  C   UNL     1       0.502  12.798  21.145  0.00  0.00    +0.000 C 
ATOM     14  C   UNL     1      -0.055  13.641  20.001  0.00  0.00    +0.000 C 
ATOM     15  C   UNL     1      -1.487  14.063  20.289  0.00  0.00    +0.000 C 
ATOM     16  C   UNL     1      -2.370  12.831  20.433  0.00  0.00    +0.000 C 
ATOM     17  C   UNL     1      -1.874  11.875  21.521  0.00  0.00    +0.000 C 
ENDBRANCH  10  12
ENDBRANCH   7   8
BRANCH   5  18
ATOM     18  S   UNL     1       2.401   4.545  20.104  0.00  0.00    +0.000 S 
ATOM     19  O   UNL     1       2.207   4.487  21.533  0.00  0.00    +0.000 OA
ATOM     20  O   UNL     1       1.589   3.773  19.192  0.00  0.00    +0.000 OA
BRANCH  18  21
ATOM     21  N   UNL     1       4.002   4.163  19.739  0.00  0.00    +0.000 NA
ATOM     22  H   UNL     1       4.536   3.835  20.542  0.00  0.00    +0.000 HD
BRANCH  21  23
ATOM     23  C   UNL     1       4.198   3.359  18.528  0.00  0.00    +0.000 C 
BRANCH  23  24
ATOM     24  C   UNL     1       5.096   4.036  17.523  0.00  0.00    +0.000 A 
ATOM     25  C   UNL     1       6.362   4.498  17.910  0.00  0.00    +0.000 A 
ATOM     26  C   UNL     1       7.226   5.062  16.972  0.00  0.00    +0.000 A 
ATOM     27  C   UNL     1       6.833   5.176  15.640  0.00  0.00    +0.000 A 
ATOM     28  C   UNL     1       5.573   4.732  15.245  0.00  0.00    +0.000 A 
ATOM     29  C   UNL     1       4.704   4.166  16.182  0.00  0.00    +0.000 A 
ENDBRANCH  23  24
ENDBRANCH  21  23
ENDBRANCH  18  21
ENDBRANCH   5  18
TORSDOF 6
ENDMDL
