MODEL 1
REMARK VINA RESULT:      -8.5      0.000      0.000
REMARK  Name = 
REMARK  7 active torsions:
REMARK  status: ('A' for Active; 'I' for Inactive)
REMARK    1  A    between atoms: C_2  and  C_5
REMARK    2  A    between atoms: N_3  and  O_4
REMARK    3  A    between atoms: N_10  and  S_11
REMARK    4  A    between atoms: S_11  and  N_14
REMARK    5  A    between atoms: C_17  and  C_18
REMARK    6  A    between atoms: C_21  and  O_22
REMARK    7  A    between atoms: O_22  and  C_23
REMARK                            x       y       z     vdW  Elec       q    Type
REMARK                         _______ _______ _______ _____ _____    ______ ____
ROOT
ATOM      1  N   UNL     1       2.257   7.376  19.836  0.00  0.00    +0.000 NA
ATOM      2  C   UNL     1       1.799   8.366  18.838  0.00  0.00    +0.000 C 
ATOM      3  C   UNL     1       0.876   9.411  19.361  0.00  0.00    +0.000 C 
ATOM      4  C   UNL     1       0.491   9.501  20.639  0.00  0.00    +0.000 C 
ATOM      5  C   UNL     1       0.976   8.531  21.662  0.00  0.00    +0.000 C 
ATOM      6  C   UNL     1       1.367   7.196  21.022  0.00  0.00    +0.000 C 
ENDROOT
BRANCH   4   7
ATOM      7  C   UNL     1      -0.392  10.588  21.051  0.00  0.00    +0.000 A 
ATOM      8  C   UNL     1      -0.753  10.746  22.394  0.00  0.00    +0.000 A 
ATOM      9  C   UNL     1      -1.631  11.767  22.763  0.00  0.00    +0.000 A 
ATOM     10  C   UNL     1      -2.149  12.625  21.792  0.00  0.00    +0.000 A 
ATOM     11  C   UNL     1      -1.825  12.430  20.446  0.00  0.00    +0.000 A 
ATOM     12  C   UNL     1      -0.929  11.432  20.078  0.00  0.00    +0.000 A 
BRANCH  10  13
ATOM     13  O   UNL     1      -3.010  13.603  22.237  0.00  0.00    +0.000 OA
BRANCH  13  14
ATOM     14  C   UNL     1      -4.339  13.294  22.430  0.00  0.00    +0.000 A 
ATOM     15  C   UNL     1      -4.822  13.417  23.733  0.00  0.00    +0.000 A 
ATOM     16  C   UNL     1      -6.156  13.119  24.014  0.00  0.00    +0.000 A 
ATOM     17  C   UNL     1      -7.008  12.695  22.994  0.00  0.00    +0.000 A 
ATOM     18  C   UNL     1      -6.534  12.587  21.687  0.00  0.00    +0.000 A 
ATOM     19  C   UNL     1      -5.211  12.915  21.402  0.00  0.00    +0.000 A 
ENDBRANCH  13  14
ENDBRANCH  10  13
ENDBRANCH   4   7
BRANCH   1  20
ATOM     20  S   UNL     1       2.775   5.913  19.152  0.00  0.00    +0.000 S 
ATOM     21  O   UNL     1       2.059   5.688  17.919  0.00  0.00    +0.000 OA
ATOM     22  O   UNL     1       2.755   4.905  20.202  0.00  0.00    +0.000 OA
BRANCH  20  28
ATOM     23  C   UNL     1       5.324   5.142  19.271  0.00  0.00    +0.000 C 
ATOM     24  C   UNL     1       6.785   5.570  19.110  0.00  0.00    +0.000 C 
ATOM     25  C   UNL     1       7.134   5.928  17.673  0.00  0.00    +0.000 C 
ATOM     26  C   UNL     1       6.171   6.972  17.143  0.00  0.00    +0.000 C 
ATOM     27  C   UNL     1       4.698   6.632  17.371  0.00  0.00    +0.000 C 
ATOM     28  N   UNL     1       4.412   6.240  18.790  0.00  0.00    +0.000 NA
BRANCH  23  30
ATOM     29  O   UNL     1       5.052   3.625  17.367  0.00  0.00    +0.000 OA
ATOM     30  C   UNL     1       5.056   3.796  18.589  0.00  0.00    +0.000 C 
ATOM     31  N   UNL     1       4.819   2.741  19.445  0.00  0.00    +0.000 N 
ATOM     32  H   UNL     1       4.297   2.910  20.307  0.00  0.00    +0.000 HD
BRANCH  31  33
ATOM     33  O   UNL     1       4.500   1.531  18.774  0.00  0.00    +0.000 OA
ATOM     34  H   UNL     1       5.388   1.146  18.590  0.00  0.00    +0.000 HD
ENDBRANCH  31  33
ENDBRANCH  23  30
ENDBRANCH  20  28
ENDBRANCH   1  20
TORSDOF 7
ENDMDL
MODEL 2
REMARK VINA RESULT:      -8.3      2.032      3.102
REMARK  Name = 
REMARK  7 active torsions:
REMARK  status: ('A' for Active; 'I' for Inactive)
REMARK    1  A    between atoms: C_2  and  C_5
REMARK    2  A    between atoms: N_3  and  O_4
REMARK    3  A    between atoms: N_10  and  S_11
REMARK    4  A    between atoms: S_11  and  N_14
REMARK    5  A    between atoms: C_17  and  C_18
REMARK    6  A    between atoms: C_21  and  O_22
REMARK    7  A    between atoms: O_22  and  C_23
REMARK                            x       y       z     vdW  Elec       q    Type
REMARK                         _______ _______ _______ _____ _____    ______ ____
ROOT
ATOM      1  N   UNL     1       3.684   5.741  18.920  0.00  0.00    +0.000 NA
ATOM      2  C   UNL     1       3.529   6.737  17.838  0.00  0.00    +0.000 C 
ATOM      3  C   UNL     1       2.599   7.859  18.139  0.00  0.00    +0.000 C 
ATOM      4  C   UNL     1       1.956   8.009  19.302  0.00  0.00    +0.000 C 
ATOM      5  C   UNL     1       2.133   7.032  20.415  0.00  0.00    +0.000 C 
ATOM      6  C   UNL     1       2.548   5.656  19.886  0.00  0.00    +0.000 C 
ENDROOT
BRANCH   4   7
ATOM      7  C   UNL     1       1.091   9.168  19.503  0.00  0.00    +0.000 A 
ATOM      8  C   UNL     1       1.034  10.191  18.550  0.00  0.00    +0.000 A 
ATOM      9  C   UNL     1       0.231  11.311  18.779  0.00  0.00    +0.000 A 
ATOM     10  C   UNL     1      -0.510  11.408  19.958  0.00  0.00    +0.000 A 
ATOM     11  C   UNL     1      -0.409  10.406  20.928  0.00  0.00    +0.000 A 
ATOM     12  C   UNL     1       0.368   9.277  20.691  0.00  0.00    +0.000 A 
BRANCH  10  13
ATOM     13  O   UNL     1      -1.272  12.545  20.108  0.00  0.00    +0.000 OA
BRANCH  13  14
ATOM     14  C   UNL     1      -2.644  12.451  20.026  0.00  0.00    +0.000 A 
ATOM     15  C   UNL     1      -3.362  12.852  21.153  0.00  0.00    +0.000 A 
ATOM     16  C   UNL     1      -4.756  12.785  21.154  0.00  0.00    +0.000 A 
ATOM     17  C   UNL     1      -5.434  12.315  20.029  0.00  0.00    +0.000 A 
ATOM     18  C   UNL     1      -4.722  11.931  18.894  0.00  0.00    +0.000 A 
ATOM     19  C   UNL     1      -3.333  12.027  18.883  0.00  0.00    +0.000 A 
ENDBRANCH  13  14
ENDBRANCH  10  13
ENDBRANCH   4   7
BRANCH   1  20
ATOM     20  S   UNL     1       4.222   4.227  18.377  0.00  0.00    +0.000 S 
ATOM     21  O   UNL     1       3.082   3.424  18.007  0.00  0.00    +0.000 OA
ATOM     22  O   UNL     1       5.183   3.727  19.351  0.00  0.00    +0.000 OA
BRANCH  20  28
ATOM     23  C   UNL     1       6.163   5.660  17.243  0.00  0.00    +0.000 C 
ATOM     24  C   UNL     1       6.776   6.143  15.925  0.00  0.00    +0.000 C 
ATOM     25  C   UNL     1       7.362   5.006  15.101  0.00  0.00    +0.000 C 
ATOM     26  C   UNL     1       6.322   3.924  14.885  0.00  0.00    +0.000 C 
ATOM     27  C   UNL     1       5.613   3.479  16.164  0.00  0.00    +0.000 C 
ATOM     28  N   UNL     1       5.094   4.636  16.966  0.00  0.00    +0.000 NA
BRANCH  23  30
ATOM     29  O   UNL     1       8.097   4.318  17.921  0.00  0.00    +0.000 OA
ATOM     30  C   UNL     1       7.241   5.157  18.211  0.00  0.00    +0.000 C 
ATOM     31  N   UNL     1       7.207   5.721  19.469  0.00  0.00    +0.000 N 
ATOM     32  H   UNL     1       6.303   5.938  19.890  0.00  0.00    +0.000 HD
BRANCH  31  33
ATOM     33  O   UNL     1       8.172   5.174  20.357  0.00  0.00    +0.000 OA
ATOM     34  H   UNL     1       7.643   5.002  21.169  0.00  0.00    +0.000 HD
ENDBRANCH  31  33
ENDBRANCH  23  30
ENDBRANCH  20  28
ENDBRANCH   1  20
TORSDOF 7
ENDMDL
MODEL 3
REMARK VINA RESULT:      -8.3      0.423      1.209
REMARK  Name = 
REMARK  7 active torsions:
REMARK  status: ('A' for Active; 'I' for Inactive)
REMARK    1  A    between atoms: C_2  and  C_5
REMARK    2  A    between atoms: N_3  and  O_4
REMARK    3  A    between atoms: N_10  and  S_11
REMARK    4  A    between atoms: S_11  and  N_14
REMARK    5  A    between atoms: C_17  and  C_18
REMARK    6  A    between atoms: C_21  and  O_22
REMARK    7  A    between atoms: O_22  and  C_23
REMARK                            x       y       z     vdW  Elec       q    Type
REMARK                         _______ _______ _______ _____ _____    ______ ____
ROOT
ATOM      1  N   UNL     1       2.249   7.394  19.808  0.00  0.00    +0.000 NA
ATOM      2  C   UNL     1       1.772   8.399  18.834  0.00  0.00    +0.000 C 
ATOM      3  C   UNL     1       0.870   9.443  19.392  0.00  0.00    +0.000 C 
ATOM      4  C   UNL     1       0.519   9.521  20.680  0.00  0.00    +0.000 C 
ATOM      5  C   UNL     1       1.023   8.536  21.680  0.00  0.00    +0.000 C 
ATOM      6  C   UNL     1       1.388   7.206  21.015  0.00  0.00    +0.000 C 
ENDROOT
BRANCH   4   7
ATOM      7  C   UNL     1      -0.346  10.609  21.127  0.00  0.00    +0.000 A 
ATOM      8  C   UNL     1      -0.945  11.472  20.202  0.00  0.00    +0.000 A 
ATOM      9  C   UNL     1      -1.736  12.531  20.650  0.00  0.00    +0.000 A 
ATOM     10  C   UNL     1      -1.926  12.730  22.019  0.00  0.00    +0.000 A 
ATOM     11  C   UNL     1      -1.284  11.894  22.938  0.00  0.00    +0.000 A 
ATOM     12  C   UNL     1      -0.518  10.821  22.495  0.00  0.00    +0.000 A 
BRANCH  10  13
ATOM     13  O   UNL     1      -2.717  13.798  22.378  0.00  0.00    +0.000 OA
BRANCH  13  14
ATOM     14  C   UNL     1      -4.021  13.572  22.762  0.00  0.00    +0.000 A 
ATOM     15  C   UNL     1      -5.011  14.023  21.890  0.00  0.00    +0.000 A 
ATOM     16  C   UNL     1      -6.358  13.838  22.207  0.00  0.00    +0.000 A 
ATOM     17  C   UNL     1      -6.715  13.205  23.397  0.00  0.00    +0.000 A 
ATOM     18  C   UNL     1      -5.729  12.736  24.263  0.00  0.00    +0.000 A 
ATOM     19  C   UNL     1      -4.385  12.894  23.931  0.00  0.00    +0.000 A 
ENDBRANCH  13  14
ENDBRANCH  10  13
ENDBRANCH   4   7
BRANCH   1  20
ATOM     20  S   UNL     1       2.738   5.935  19.095  0.00  0.00    +0.000 S 
ATOM     21  O   UNL     1       2.027   5.755  17.852  0.00  0.00    +0.000 OA
ATOM     22  O   UNL     1       2.687   4.904  20.122  0.00  0.00    +0.000 OA
BRANCH  20  28
ATOM     23  C   UNL     1       5.272   5.123  19.254  0.00  0.00    +0.000 C 
ATOM     24  C   UNL     1       6.743   5.525  19.109  0.00  0.00    +0.000 C 
ATOM     25  C   UNL     1       7.116   5.868  17.674  0.00  0.00    +0.000 C 
ATOM     26  C   UNL     1       6.178   6.923  17.124  0.00  0.00    +0.000 C 
ATOM     27  C   UNL     1       4.697   6.610  17.335  0.00  0.00    +0.000 C 
ATOM     28  N   UNL     1       4.385   6.232  18.753  0.00  0.00    +0.000 NA
BRANCH  23  30
ATOM     29  O   UNL     1       4.955   3.607  17.356  0.00  0.00    +0.000 OA
ATOM     30  C   UNL     1       4.990   3.776  18.576  0.00  0.00    +0.000 C 
ATOM     31  N   UNL     1       4.780   2.720  19.438  0.00  0.00    +0.000 N 
ATOM     32  H   UNL     1       4.281   2.886  20.313  0.00  0.00    +0.000 HD
BRANCH  31  33
ATOM     33  O   UNL     1       4.448   1.509  18.773  0.00  0.00    +0.000 OA
ATOM     34  H   UNL     1       5.298   1.259  18.344  0.00  0.00    +0.000 HD
ENDBRANCH  31  33
ENDBRANCH  23  30
ENDBRANCH  20  28
ENDBRANCH   1  20
TORSDOF 7
ENDMDL
MODEL 4
REMARK VINA RESULT:      -8.3      2.122      3.231
REMARK  Name = 
REMARK  7 active torsions:
REMARK  status: ('A' for Active; 'I' for Inactive)
REMARK    1  A    between atoms: C_2  and  C_5
REMARK    2  A    between atoms: N_3  and  O_4
REMARK    3  A    between atoms: N_10  and  S_11
REMARK    4  A    between atoms: S_11  and  N_14
REMARK    5  A    between atoms: C_17  and  C_18
REMARK    6  A    between atoms: C_21  and  O_22
REMARK    7  A    between atoms: O_22  and  C_23
REMARK                            x       y       z     vdW  Elec       q    Type
REMARK                         _______ _______ _______ _____ _____    ______ ____
ROOT
ATOM      1  N   UNL     1       3.667   5.698  18.946  0.00  0.00    +0.000 NA
ATOM      2  C   UNL     1       3.547   6.702  17.867  0.00  0.00    +0.000 C 
ATOM      3  C   UNL     1       2.648   7.850  18.168  0.00  0.00    +0.000 C 
ATOM      4  C   UNL     1       2.002   8.013  19.327  0.00  0.00    +0.000 C 
ATOM      5  C   UNL     1       2.144   7.027  20.436  0.00  0.00    +0.000 C 
ATOM      6  C   UNL     1       2.523   5.642  19.905  0.00  0.00    +0.000 C 
ENDROOT
BRANCH   4   7
ATOM      7  C   UNL     1       1.169   9.195  19.528  0.00  0.00    +0.000 A 
ATOM      8  C   UNL     1       0.327   9.296  20.642  0.00  0.00    +0.000 A 
ATOM      9  C   UNL     1      -0.491  10.417  20.795  0.00  0.00    +0.000 A 
ATOM     10  C   UNL     1      -0.471  11.432  19.838  0.00  0.00    +0.000 A 
ATOM     11  C   UNL     1       0.334  11.301  18.702  0.00  0.00    +0.000 A 
ATOM     12  C   UNL     1       1.172  10.199  18.560  0.00  0.00    +0.000 A 
BRANCH  10  13
ATOM     13  O   UNL     1      -1.310  12.500  20.061  0.00  0.00    +0.000 OA
BRANCH  13  14
ATOM     14  C   UNL     1      -2.654  12.370  19.787  0.00  0.00    +0.000 A 
ATOM     15  C   UNL     1      -2.984  11.740  18.587  0.00  0.00    +0.000 A 
ATOM     16  C   UNL     1      -4.323  11.572  18.231  0.00  0.00    +0.000 A 
ATOM     17  C   UNL     1      -5.334  12.036  19.074  0.00  0.00    +0.000 A 
ATOM     18  C   UNL     1      -5.009  12.651  20.282  0.00  0.00    +0.000 A 
ATOM     19  C   UNL     1      -3.673  12.790  20.650  0.00  0.00    +0.000 A 
ENDBRANCH  13  14
ENDBRANCH  10  13
ENDBRANCH   4   7
BRANCH   1  20
ATOM     20  S   UNL     1       4.165   4.172  18.400  0.00  0.00    +0.000 S 
ATOM     21  O   UNL     1       3.003   3.394  18.045  0.00  0.00    +0.000 OA
ATOM     22  O   UNL     1       5.126   3.652  19.363  0.00  0.00    +0.000 OA
BRANCH  20  28
ATOM     23  C   UNL     1       6.084   5.604  17.228  0.00  0.00    +0.000 C 
ATOM     24  C   UNL     1       6.689   6.064  15.898  0.00  0.00    +0.000 C 
ATOM     25  C   UNL     1       7.289   4.915  15.101  0.00  0.00    +0.000 C 
ATOM     26  C   UNL     1       6.264   3.814  14.913  0.00  0.00    +0.000 C 
ATOM     27  C   UNL     1       5.563   3.390  16.203  0.00  0.00    +0.000 C 
ATOM     28  N   UNL     1       5.029   4.559  16.978  0.00  0.00    +0.000 NA
BRANCH  23  30
ATOM     29  O   UNL     1       8.063   4.338  17.923  0.00  0.00    +0.000 OA
ATOM     30  C   UNL     1       7.170   5.140  18.206  0.00  0.00    +0.000 C 
ATOM     31  N   UNL     1       7.099   5.695  19.467  0.00  0.00    +0.000 N 
ATOM     32  H   UNL     1       6.182   5.872  19.879  0.00  0.00    +0.000 HD
BRANCH  31  33
ATOM     33  O   UNL     1       8.075   5.182  20.364  0.00  0.00    +0.000 OA
ATOM     34  H   UNL     1       8.790   5.856  20.311  0.00  0.00    +0.000 HD
ENDBRANCH  31  33
ENDBRANCH  23  30
ENDBRANCH  20  28
ENDBRANCH   1  20
TORSDOF 7
ENDMDL
MODEL 5
REMARK VINA RESULT:      -8.2      1.621      2.465
REMARK  Name = 
REMARK  7 active torsions:
REMARK  status: ('A' for Active; 'I' for Inactive)
REMARK    1  A    between atoms: C_2  and  C_5
REMARK    2  A    between atoms: N_3  and  O_4
REMARK    3  A    between atoms: N_10  and  S_11
REMARK    4  A    between atoms: S_11  and  N_14
REMARK    5  A    between atoms: C_17  and  C_18
REMARK    6  A    between atoms: C_21  and  O_22
REMARK    7  A    between atoms: O_22  and  C_23
REMARK                            x       y       z     vdW  Elec       q    Type
REMARK                         _______ _______ _______ _____ _____    ______ ____
ROOT
ATOM      1  N   UNL     1       2.290   7.391  19.753  0.00  0.00    +0.000 NA
ATOM      2  C   UNL     1       1.837   8.397  18.768  0.00  0.00    +0.000 C 
ATOM      3  C   UNL     1       0.967   9.473  19.317  0.00  0.00    +0.000 C 
ATOM      4  C   UNL     1       0.624   9.577  20.605  0.00  0.00    +0.000 C 
ATOM      5  C   UNL     1       1.105   8.591  21.615  0.00  0.00    +0.000 C 
ATOM      6  C   UNL     1       1.430   7.243  20.966  0.00  0.00    +0.000 C 
ENDROOT
BRANCH   4   7
ATOM      7  C   UNL     1      -0.209  10.694  21.041  0.00  0.00    +0.000 A 
ATOM      8  C   UNL     1      -0.502  11.750  20.170  0.00  0.00    +0.000 A 
ATOM      9  C   UNL     1      -1.267  12.829  20.618  0.00  0.00    +0.000 A 
ATOM     10  C   UNL     1      -1.734  12.854  21.933  0.00  0.00    +0.000 A 
ATOM     11  C   UNL     1      -1.395  11.821  22.812  0.00  0.00    +0.000 A 
ATOM     12  C   UNL     1      -0.657  10.731  22.361  0.00  0.00    +0.000 A 
BRANCH  10  13
ATOM     13  O   UNL     1      -2.477  13.955  22.296  0.00  0.00    +0.000 OA
BRANCH  13  14
ATOM     14  C   UNL     1      -2.204  14.588  23.489  0.00  0.00    +0.000 A 
ATOM     15  C   UNL     1      -1.062  15.389  23.518  0.00  0.00    +0.000 A 
ATOM     16  C   UNL     1      -0.712  16.063  24.690  0.00  0.00    +0.000 A 
ATOM     17  C   UNL     1      -1.501  15.934  25.833  0.00  0.00    +0.000 A 
ATOM     18  C   UNL     1      -2.652  15.149  25.803  0.00  0.00    +0.000 A 
ATOM     19  C   UNL     1      -3.017  14.503  24.624  0.00  0.00    +0.000 A 
ENDBRANCH  13  14
ENDBRANCH  10  13
ENDBRANCH   4   7
BRANCH   1  20
ATOM     20  S   UNL     1       2.736   5.911  19.056  0.00  0.00    +0.000 S 
ATOM     21  O   UNL     1       1.994   5.722  17.833  0.00  0.00    +0.000 OA
ATOM     22  O   UNL     1       2.688   4.900  20.103  0.00  0.00    +0.000 OA
BRANCH  20  28
ATOM     23  C   UNL     1       5.262   5.072  19.207  0.00  0.00    +0.000 C 
ATOM     24  C   UNL     1       6.735   5.448  19.018  0.00  0.00    +0.000 C 
ATOM     25  C   UNL     1       7.086   5.721  17.564  0.00  0.00    +0.000 C 
ATOM     26  C   UNL     1       6.152   6.764  16.984  0.00  0.00    +0.000 C 
ATOM     27  C   UNL     1       4.671   6.480  17.234  0.00  0.00    +0.000 C 
ATOM     28  N   UNL     1       4.380   6.170  18.673  0.00  0.00    +0.000 NA
BRANCH  23  30
ATOM     29  O   UNL     1       4.807   3.495  17.389  0.00  0.00    +0.000 OA
ATOM     30  C   UNL     1       4.951   3.701  18.596  0.00  0.00    +0.000 C 
ATOM     31  N   UNL     1       4.846   2.666  19.502  0.00  0.00    +0.000 N 
ATOM     32  H   UNL     1       4.426   2.847  20.414  0.00  0.00    +0.000 HD
BRANCH  31  33
ATOM     33  O   UNL     1       4.483   1.429  18.904  0.00  0.00    +0.000 OA
ATOM     34  H   UNL     1       5.062   0.786  19.373  0.00  0.00    +0.000 HD
ENDBRANCH  31  33
ENDBRANCH  23  30
ENDBRANCH  20  28
ENDBRANCH   1  20
TORSDOF 7
ENDMDL
MODEL 6
REMARK VINA RESULT:      -8.1      1.950      2.733
REMARK  Name = 
REMARK  7 active torsions:
REMARK  status: ('A' for Active; 'I' for Inactive)
REMARK    1  A    between atoms: C_2  and  C_5
REMARK    2  A    between atoms: N_3  and  O_4
REMARK    3  A    between atoms: N_10  and  S_11
REMARK    4  A    between atoms: S_11  and  N_14
REMARK    5  A    between atoms: C_17  and  C_18
REMARK    6  A    between atoms: C_21  and  O_22
REMARK    7  A    between atoms: O_22  and  C_23
REMARK                            x       y       z     vdW  Elec       q    Type
REMARK                         _______ _______ _______ _____ _____    ______ ____
ROOT
ATOM      1  N   UNL     1       2.335   7.629  19.730  0.00  0.00    +0.000 NA
ATOM      2  C   UNL     1       1.872   8.714  18.838  0.00  0.00    +0.000 C 
ATOM      3  C   UNL     1       0.897   9.661  19.445  0.00  0.00    +0.000 C 
ATOM      4  C   UNL     1       0.471   9.590  20.710  0.00  0.00    +0.000 C 
ATOM      5  C   UNL     1       0.959   8.524  21.632  0.00  0.00    +0.000 C 
ATOM      6  C   UNL     1       1.416   7.285  20.857  0.00  0.00    +0.000 C 
ENDROOT
BRANCH   4   7
ATOM      7  C   UNL     1      -0.462  10.594  21.214  0.00  0.00    +0.000 A 
ATOM      8  C   UNL     1      -0.832  10.613  22.564  0.00  0.00    +0.000 A 
ATOM      9  C   UNL     1      -1.756  11.555  23.018  0.00  0.00    +0.000 A 
ATOM     10  C   UNL     1      -2.312  12.473  22.126  0.00  0.00    +0.000 A 
ATOM     11  C   UNL     1      -1.977  12.416  20.770  0.00  0.00    +0.000 A 
ATOM     12  C   UNL     1      -1.035  11.497  20.319  0.00  0.00    +0.000 A 
BRANCH  10  13
ATOM     13  O   UNL     1      -3.218  13.366  22.653  0.00  0.00    +0.000 OA
BRANCH  13  14
ATOM     14  C   UNL     1      -4.554  13.029  22.688  0.00  0.00    +0.000 A 
ATOM     15  C   UNL     1      -5.153  13.000  23.948  0.00  0.00    +0.000 A 
ATOM     16  C   UNL     1      -6.502  12.664  24.072  0.00  0.00    +0.000 A 
ATOM     17  C   UNL     1      -7.253  12.354  22.937  0.00  0.00    +0.000 A 
ATOM     18  C   UNL     1      -6.663  12.400  21.675  0.00  0.00    +0.000 A 
ATOM     19  C   UNL     1      -5.325  12.766  21.550  0.00  0.00    +0.000 A 
ENDBRANCH  13  14
ENDBRANCH  10  13
ENDBRANCH   4   7
BRANCH   1  20
ATOM     20  S   UNL     1       2.924   6.273  18.901  0.00  0.00    +0.000 S 
ATOM     21  O   UNL     1       4.319   6.092  19.221  0.00  0.00    +0.000 OA
ATOM     22  O   UNL     1       2.502   6.389  17.512  0.00  0.00    +0.000 OA
BRANCH  20  28
ATOM     23  C   UNL     1       1.805   3.868  18.633  0.00  0.00    +0.000 C 
ATOM     24  C   UNL     1       0.830   2.850  19.232  0.00  0.00    +0.000 C 
ATOM     25  C   UNL     1       1.312   2.295  20.564  0.00  0.00    +0.000 C 
ATOM     26  C   UNL     1       1.620   3.426  21.525  0.00  0.00    +0.000 C 
ATOM     27  C   UNL     1       2.513   4.517  20.935  0.00  0.00    +0.000 C 
ATOM     28  N   UNL     1       2.025   5.000  19.601  0.00  0.00    +0.000 NA
BRANCH  23  30
ATOM     29  O   UNL     1       3.582   2.183  18.703  0.00  0.00    +0.000 OA
ATOM     30  C   UNL     1       3.110   3.198  18.185  0.00  0.00    +0.000 C 
ATOM     31  N   UNL     1       3.747   3.806  17.124  0.00  0.00    +0.000 N 
ATOM     32  H   UNL     1       3.728   4.825  17.054  0.00  0.00    +0.000 HD
BRANCH  31  33
ATOM     33  O   UNL     1       4.988   3.200  16.791  0.00  0.00    +0.000 OA
ATOM     34  H   UNL     1       4.893   3.032  15.826  0.00  0.00    +0.000 HD
ENDBRANCH  31  33
ENDBRANCH  23  30
ENDBRANCH  20  28
ENDBRANCH   1  20
TORSDOF 7
ENDMDL
MODEL 7
REMARK VINA RESULT:      -8.1      1.914      2.999
REMARK  Name = 
REMARK  7 active torsions:
REMARK  status: ('A' for Active; 'I' for Inactive)
REMARK    1  A    between atoms: C_2  and  C_5
REMARK    2  A    between atoms: N_3  and  O_4
REMARK    3  A    between atoms: N_10  and  S_11
REMARK    4  A    between atoms: S_11  and  N_14
REMARK    5  A    between atoms: C_17  and  C_18
REMARK    6  A    between atoms: C_21  and  O_22
REMARK    7  A    between atoms: O_22  and  C_23
REMARK                            x       y       z     vdW  Elec       q    Type
REMARK                         _______ _______ _______ _____ _____    ______ ____
ROOT
ATOM      1  N   UNL     1       2.445   7.509  19.693  0.00  0.00    +0.000 NA
ATOM      2  C   UNL     1       2.042   8.598  18.778  0.00  0.00    +0.000 C 
ATOM      3  C   UNL     1       1.033   9.545  19.326  0.00  0.00    +0.000 C 
ATOM      4  C   UNL     1       0.526   9.470  20.561  0.00  0.00    +0.000 C 
ATOM      5  C   UNL     1       0.952   8.399  21.507  0.00  0.00    +0.000 C 
ATOM      6  C   UNL     1       1.455   7.162  20.757  0.00  0.00    +0.000 C 
ENDROOT
BRANCH   4   7
ATOM      7  C   UNL     1      -0.436  10.473  21.008  0.00  0.00    +0.000 A 
ATOM      8  C   UNL     1      -1.048  11.336  20.091  0.00  0.00    +0.000 A 
ATOM      9  C   UNL     1      -1.934  12.315  20.543  0.00  0.00    +0.000 A 
ATOM     10  C   UNL     1      -2.206  12.435  21.906  0.00  0.00    +0.000 A 
ATOM     11  C   UNL     1      -1.553  11.603  22.821  0.00  0.00    +0.000 A 
ATOM     12  C   UNL     1      -0.691  10.608  22.373  0.00  0.00    +0.000 A 
BRANCH  10  13
ATOM     13  O   UNL     1      -3.088  13.427  22.269  0.00  0.00    +0.000 OA
BRANCH  13  14
ATOM     14  C   UNL     1      -4.378  13.089  22.616  0.00  0.00    +0.000 A 
ATOM     15  C   UNL     1      -5.265  12.866  21.563  0.00  0.00    +0.000 A 
ATOM     16  C   UNL     1      -6.592  12.523  21.829  0.00  0.00    +0.000 A 
ATOM     17  C   UNL     1      -7.033  12.406  23.147  0.00  0.00    +0.000 A 
ATOM     18  C   UNL     1      -6.146  12.612  24.202  0.00  0.00    +0.000 A 
ATOM     19  C   UNL     1      -4.815  12.923  23.935  0.00  0.00    +0.000 A 
ENDBRANCH  13  14
ENDBRANCH  10  13
ENDBRANCH   4   7
BRANCH   1  20
ATOM     20  S   UNL     1       3.083   6.155  18.897  0.00  0.00    +0.000 S 
ATOM     21  O   UNL     1       4.419   5.906  19.384  0.00  0.00    +0.000 OA
ATOM     22  O   UNL     1       2.846   6.331  17.472  0.00  0.00    +0.000 OA
BRANCH  20  28
ATOM     23  C   UNL     1       1.859   3.844  18.378  0.00  0.00    +0.000 C 
ATOM     24  C   UNL     1       0.779   2.855  18.825  0.00  0.00    +0.000 C 
ATOM     25  C   UNL     1       1.108   2.191  20.153  0.00  0.00    +0.000 C 
ATOM     26  C   UNL     1       1.394   3.240  21.209  0.00  0.00    +0.000 C 
ATOM     27  C   UNL     1       2.396   4.308  20.770  0.00  0.00    +0.000 C 
ATOM     28  N   UNL     1       2.055   4.900  19.434  0.00  0.00    +0.000 NA
BRANCH  23  30
ATOM     29  O   UNL     1       3.515   2.041  18.474  0.00  0.00    +0.000 OA
ATOM     30  C   UNL     1       3.159   3.123  18.000  0.00  0.00    +0.000 C 
ATOM     31  N   UNL     1       3.934   3.767  17.059  0.00  0.00    +0.000 N 
ATOM     32  H   UNL     1       3.983   4.786  17.072  0.00  0.00    +0.000 HD
BRANCH  31  33
ATOM     33  O   UNL     1       5.162   3.105  16.793  0.00  0.00    +0.000 OA
ATOM     34  H   UNL     1       5.391   2.716  17.668  0.00  0.00    +0.000 HD
ENDBRANCH  31  33
ENDBRANCH  23  30
ENDBRANCH  20  28
ENDBRANCH   1  20
TORSDOF 7
ENDMDL
MODEL 8
REMARK VINA RESULT:      -8.1      3.554     11.226
REMARK  Name = 
REMARK  7 active torsions:
REMARK  status: ('A' for Active; 'I' for Inactive)
REMARK    1  A    between atoms: C_2  and  C_5
REMARK    2  A    between atoms: N_3  and  O_4
REMARK    3  A    between atoms: N_10  and  S_11
REMARK    4  A    between atoms: S_11  and  N_14
REMARK    5  A    between atoms: C_17  and  C_18
REMARK    6  A    between atoms: C_21  and  O_22
REMARK    7  A    between atoms: O_22  and  C_23
REMARK                            x       y       z     vdW  Elec       q    Type
REMARK                         _______ _______ _______ _____ _____    ______ ____
ROOT
ATOM      1  N   UNL     1      -1.252  11.652  21.410  0.00  0.00    +0.000 NA
ATOM      2  C   UNL     1      -0.570  11.947  20.131  0.00  0.00    +0.000 C 
ATOM      3  C   UNL     1       0.311  10.863  19.618  0.00  0.00    +0.000 C 
ATOM      4  C   UNL     1       0.477   9.681  20.223  0.00  0.00    +0.000 C 
ATOM      5  C   UNL     1      -0.234   9.357  21.493  0.00  0.00    +0.000 C 
ATOM      6  C   UNL     1      -0.590  10.626  22.271  0.00  0.00    +0.000 C 
ENDROOT
BRANCH   4   7
ATOM      7  C   UNL     1       1.341   8.675  19.614  0.00  0.00    +0.000 A 
ATOM      8  C   UNL     1       1.753   7.552  20.341  0.00  0.00    +0.000 A 
ATOM      9  C   UNL     1       2.612   6.621  19.754  0.00  0.00    +0.000 A 
ATOM     10  C   UNL     1       3.060   6.812  18.446  0.00  0.00    +0.000 A 
ATOM     11  C   UNL     1       2.685   7.961  17.743  0.00  0.00    +0.000 A 
ATOM     12  C   UNL     1       1.807   8.877  18.315  0.00  0.00    +0.000 A 
BRANCH  10  13
ATOM     13  O   UNL     1       3.907   5.850  17.943  0.00  0.00    +0.000 OA
BRANCH  13  14
ATOM     14  C   UNL     1       3.597   4.519  18.121  0.00  0.00    +0.000 A 
ATOM     15  C   UNL     1       4.430   3.799  18.977  0.00  0.00    +0.000 A 
ATOM     16  C   UNL     1       4.188   2.444  19.209  0.00  0.00    +0.000 A 
ATOM     17  C   UNL     1       3.115   1.808  18.584  0.00  0.00    +0.000 A 
ATOM     18  C   UNL     1       2.270   2.528  17.742  0.00  0.00    +0.000 A 
ATOM     19  C   UNL     1       2.494   3.887  17.536  0.00  0.00    +0.000 A 
ENDBRANCH  13  14
ENDBRANCH  10  13
ENDBRANCH   4   7
BRANCH   1  20
ATOM     20  S   UNL     1      -1.732  13.039  22.259  0.00  0.00    +0.000 S 
ATOM     21  O   UNL     1      -1.771  14.160  21.351  0.00  0.00    +0.000 OA
ATOM     22  O   UNL     1      -0.932  13.110  23.473  0.00  0.00    +0.000 OA
BRANCH  20  28
ATOM     23  C   UNL     1      -3.612  13.039  24.150  0.00  0.00    +0.000 C 
ATOM     24  C   UNL     1      -4.974  12.487  24.581  0.00  0.00    +0.000 C 
ATOM     25  C   UNL     1      -6.108  12.965  23.687  0.00  0.00    +0.000 C 
ATOM     26  C   UNL     1      -5.799  12.655  22.236  0.00  0.00    +0.000 C 
ATOM     27  C   UNL     1      -4.408  13.101  21.786  0.00  0.00    +0.000 C 
ATOM     28  N   UNL     1      -3.328  12.646  22.723  0.00  0.00    +0.000 NA
BRANCH  23  30
ATOM     29  O   UNL     1      -4.157  15.393  23.752  0.00  0.00    +0.000 OA
ATOM     30  C   UNL     1      -3.518  14.551  24.386  0.00  0.00    +0.000 C 
ATOM     31  N   UNL     1      -2.656  14.934  25.393  0.00  0.00    +0.000 N 
ATOM     32  H   UNL     1      -1.789  14.413  25.527  0.00  0.00    +0.000 HD
BRANCH  31  33
ATOM     33  O   UNL     1      -2.542  16.343  25.529  0.00  0.00    +0.000 OA
ATOM     34  H   UNL     1      -2.957  16.509  26.406  0.00  0.00    +0.000 HD
ENDBRANCH  31  33
ENDBRANCH  23  30
ENDBRANCH  20  28
ENDBRANCH   1  20
TORSDOF 7
ENDMDL
MODEL 9
REMARK VINA RESULT:      -8.1      3.663     11.410
REMARK  Name = 
REMARK  7 active torsions:
REMARK  status: ('A' for Active; 'I' for Inactive)
REMARK    1  A    between atoms: C_2  and  C_5
REMARK    2  A    between atoms: N_3  and  O_4
REMARK    3  A    between atoms: N_10  and  S_11
REMARK    4  A    between atoms: S_11  and  N_14
REMARK    5  A    between atoms: C_17  and  C_18
REMARK    6  A    between atoms: C_21  and  O_22
REMARK    7  A    between atoms: O_22  and  C_23
REMARK                            x       y       z     vdW  Elec       q    Type
REMARK                         _______ _______ _______ _____ _____    ______ ____
ROOT
ATOM      1  N   UNL     1      -1.700  11.762  21.520  0.00  0.00    +0.000 NA
ATOM      2  C   UNL     1      -1.300  11.902  20.103  0.00  0.00    +0.000 C 
ATOM      3  C   UNL     1      -0.317  10.895  19.619  0.00  0.00    +0.000 C 
ATOM      4  C   UNL     1       0.171   9.902  20.371  0.00  0.00    +0.000 C 
ATOM      5  C   UNL     1      -0.253   9.727  21.790  0.00  0.00    +0.000 C 
ATOM      6  C   UNL     1      -0.722  11.051  22.398  0.00  0.00    +0.000 C 
ENDROOT
BRANCH   4   7
ATOM      7  C   UNL     1       1.107   8.948  19.784  0.00  0.00    +0.000 A 
ATOM      8  C   UNL     1       1.543   9.093  18.462  0.00  0.00    +0.000 A 
ATOM      9  C   UNL     1       2.407   8.148  17.906  0.00  0.00    +0.000 A 
ATOM     10  C   UNL     1       2.833   7.059  18.668  0.00  0.00    +0.000 A 
ATOM     11  C   UNL     1       2.354   6.893  19.972  0.00  0.00    +0.000 A 
ATOM     12  C   UNL     1       1.515   7.847  20.538  0.00  0.00    +0.000 A 
BRANCH  10  13
ATOM     13  O   UNL     1       3.681   6.172  18.046  0.00  0.00    +0.000 OA
BRANCH  13  14
ATOM     14  C   UNL     1       3.455   4.819  18.176  0.00  0.00    +0.000 A 
ATOM     15  C   UNL     1       4.351   4.116  18.983  0.00  0.00    +0.000 A 
ATOM     16  C   UNL     1       4.196   2.741  19.164  0.00  0.00    +0.000 A 
ATOM     17  C   UNL     1       3.147   2.067  18.538  0.00  0.00    +0.000 A 
ATOM     18  C   UNL     1       2.240   2.768  17.746  0.00  0.00    +0.000 A 
ATOM     19  C   UNL     1       2.377   4.145  17.591  0.00  0.00    +0.000 A 
ENDBRANCH  13  14
ENDBRANCH  10  13
ENDBRANCH   4   7
BRANCH   1  20
ATOM     20  S   UNL     1      -2.301  13.194  22.200  0.00  0.00    +0.000 S 
ATOM     21  O   UNL     1      -2.279  14.237  21.203  0.00  0.00    +0.000 OA
ATOM     22  O   UNL     1      -1.630  13.390  23.477  0.00  0.00    +0.000 OA
BRANCH  20  28
ATOM     23  C   UNL     1      -4.364  13.283  23.886  0.00  0.00    +0.000 C 
ATOM     24  C   UNL     1      -5.747  12.720  24.227  0.00  0.00    +0.000 C 
ATOM     25  C   UNL     1      -6.796  13.079  23.185  0.00  0.00    +0.000 C 
ATOM     26  C   UNL     1      -6.332  12.658  21.805  0.00  0.00    +0.000 C 
ATOM     27  C   UNL     1      -4.915  13.116  21.459  0.00  0.00    +0.000 C 
ATOM     28  N   UNL     1      -3.925  12.783  22.536  0.00  0.00    +0.000 NA
BRANCH  23  30
ATOM     29  O   UNL     1      -4.819  15.578  23.159  0.00  0.00    +0.000 OA
ATOM     30  C   UNL     1      -4.339  14.813  23.998  0.00  0.00    +0.000 C 
ATOM     31  N   UNL     1      -3.736  15.307  25.136  0.00  0.00    +0.000 N 
ATOM     32  H   UNL     1      -2.919  14.824  25.513  0.00  0.00    +0.000 HD
BRANCH  31  33
ATOM     33  O   UNL     1      -3.665  16.726  25.164  0.00  0.00    +0.000 OA
ATOM     34  H   UNL     1      -3.804  16.929  26.117  0.00  0.00    +0.000 HD
ENDBRANCH  31  33
ENDBRANCH  23  30
ENDBRANCH  20  28
ENDBRANCH   1  20
TORSDOF 7
ENDMDL
