MODEL 1
REMARK VINA RESULT:      -5.2      0.000      0.000
REMARK  Name = 
REMARK  7 active torsions:
REMARK  status: ('A' for Active; 'I' for Inactive)
REMARK    1  A    between atoms: C_2  and  C_3
REMARK    2  A    between atoms: C_3  and  N_4
REMARK    3  A    between atoms: C_6  and  C_7
REMARK    4  A    between atoms: N_8  and  O_9
REMARK    5  A    between atoms: N_10  and  C_11
REMARK    6  A    between atoms: C_12  and  S_13
REMARK    7  A    between atoms: S_13  and  C_14
REMARK                            x       y       z     vdW  Elec       q    Type
REMARK                         _______ _______ _______ _____ _____    ______ ____
ROOT
ATOM      1  N   UNL     1       3.162   5.980  18.355  0.00  0.00    +0.000 N 
ATOM      2  C   UNL     1       4.478   6.270  18.385  0.00  0.00    +0.000 A 
ATOM      3  C   UNL     1       5.167   5.146  18.798  0.00  0.00    +0.000 A 
ATOM      4  N   UNL     1       4.268   4.164  19.046  0.00  0.00    +0.000 N 
ATOM      5  C   UNL     1       4.521   2.797  19.507  0.00  0.00    +0.000 C 
ATOM      6  C   UNL     1       3.054   4.689  18.753  0.00  0.00    +0.000 A 
ENDROOT
BRANCH   3   7
ATOM      7  C   UNL     1       6.641   5.045  18.911  0.00  0.00    +0.000 C 
ATOM      8  N   UNL     1       7.233   5.371  20.004  0.00  0.00    +0.000 NA
BRANCH   8   9
ATOM      9  O   UNL     1       8.546   5.313  20.100  0.00  0.00    +0.000 OA
ATOM     10  H   UNL     1       9.082   6.079  19.861  0.00  0.00    +0.000 HD
ENDBRANCH   8   9
ENDBRANCH   3   7
BRANCH   6  11
ATOM     11  S   UNL     1       1.503   3.744  18.807  0.00  0.00    +0.000 S 
ATOM     12  C   UNL     1       1.091   3.938  20.575  0.00  0.00    +0.000 C 
ENDBRANCH   6  11
BRANCH   1  13
ATOM     13  C   UNL     1       2.114   6.901  17.930  0.00  0.00    +0.000 C 
BRANCH  13  15
ATOM     14  C   UNL     1       1.889   9.376  17.922  0.00  0.00    +0.000 C 
ATOM     15  C   UNL     1       2.662   8.294  17.808  0.00  0.00    +0.000 C 
ENDBRANCH  13  15
ENDBRANCH   1  13
TORSDOF 5
ENDMDL
MODEL 2
REMARK VINA RESULT:      -5.2      3.475      4.660
REMARK  Name = 
REMARK  7 active torsions:
REMARK  status: ('A' for Active; 'I' for Inactive)
REMARK    1  A    between atoms: C_2  and  C_3
REMARK    2  A    between atoms: C_3  and  N_4
REMARK    3  A    between atoms: C_6  and  C_7
REMARK    4  A    between atoms: N_8  and  O_9
REMARK    5  A    between atoms: N_10  and  C_11
REMARK    6  A    between atoms: C_12  and  S_13
REMARK    7  A    between atoms: S_13  and  C_14
REMARK                            x       y       z     vdW  Elec       q    Type
REMARK                         _______ _______ _______ _____ _____    ______ ____
ROOT
ATOM      1  N   UNL     1       6.070   4.657  18.312  0.00  0.00    +0.000 N 
ATOM      2  C   UNL     1       5.378   4.724  19.468  0.00  0.00    +0.000 A 
ATOM      3  C   UNL     1       4.092   4.273  19.238  0.00  0.00    +0.000 A 
ATOM      4  N   UNL     1       3.985   3.948  17.927  0.00  0.00    +0.000 N 
ATOM      5  C   UNL     1       2.815   3.429  17.214  0.00  0.00    +0.000 C 
ATOM      6  C   UNL     1       5.206   4.174  17.386  0.00  0.00    +0.000 A 
ENDROOT
BRANCH   3   7
ATOM      7  C   UNL     1       3.038   4.144  20.271  0.00  0.00    +0.000 C 
ATOM      8  N   UNL     1       2.967   3.089  21.000  0.00  0.00    +0.000 NA
BRANCH   8   9
ATOM      9  O   UNL     1       2.014   2.956  21.899  0.00  0.00    +0.000 OA
ATOM     10  H   UNL     1       1.172   3.415  21.782  0.00  0.00    +0.000 HD
ENDBRANCH   8   9
ENDBRANCH   3   7
BRANCH   6  11
ATOM     11  S   UNL     1       5.636   3.790  15.664  0.00  0.00    +0.000 S 
ATOM     12  C   UNL     1       5.630   5.477  14.966  0.00  0.00    +0.000 C 
ENDBRANCH   6  11
BRANCH   1  13
ATOM     13  C   UNL     1       7.477   5.010  18.160  0.00  0.00    +0.000 C 
BRANCH  13  15
ATOM     14  C   UNL     1       7.575   7.418  17.557  0.00  0.00    +0.000 C 
ATOM     15  C   UNL     1       7.688   6.462  18.481  0.00  0.00    +0.000 C 
ENDBRANCH  13  15
ENDBRANCH   1  13
TORSDOF 5
ENDMDL
MODEL 3
REMARK VINA RESULT:      -5.2      3.161      4.618
REMARK  Name = 
REMARK  7 active torsions:
REMARK  status: ('A' for Active; 'I' for Inactive)
REMARK    1  A    between atoms: C_2  and  C_3
REMARK    2  A    between atoms: C_3  and  N_4
REMARK    3  A    between atoms: C_6  and  C_7
REMARK    4  A    between atoms: N_8  and  O_9
REMARK    5  A    between atoms: N_10  and  C_11
REMARK    6  A    between atoms: C_12  and  S_13
REMARK    7  A    between atoms: S_13  and  C_14
REMARK                            x       y       z     vdW  Elec       q    Type
REMARK                         _______ _______ _______ _____ _____    ______ ____
ROOT
ATOM      1  N   UNL     1       4.723   5.150  17.676  0.00  0.00    +0.000 N 
ATOM      2  C   UNL     1       4.245   6.386  17.429  0.00  0.00    +0.000 A 
ATOM      3  C   UNL     1       3.199   6.635  18.298  0.00  0.00    +0.000 A 
ATOM      4  N   UNL     1       3.017   5.536  19.069  0.00  0.00    +0.000 N 
ATOM      5  C   UNL     1       2.028   5.325  20.128  0.00  0.00    +0.000 C 
ATOM      6  C   UNL     1       3.967   4.650  18.685  0.00  0.00    +0.000 A 
ENDROOT
BRANCH   3   7
ATOM      7  C   UNL     1       2.442   7.906  18.377  0.00  0.00    +0.000 C 
ATOM      8  N   UNL     1       2.445   8.727  17.388  0.00  0.00    +0.000 NA
BRANCH   8   9
ATOM      9  O   UNL     1       1.799   9.872  17.464  0.00  0.00    +0.000 OA
ATOM     10  H   UNL     1       0.853   9.907  17.273  0.00  0.00    +0.000 HD
ENDBRANCH   8   9
ENDBRANCH   3   7
BRANCH   6  11
ATOM     11  S   UNL     1       4.236   3.043  19.487  0.00  0.00    +0.000 S 
ATOM     12  C   UNL     1       3.432   1.954  18.262  0.00  0.00    +0.000 C 
ENDBRANCH   6  11
BRANCH   1  13
ATOM     13  C   UNL     1       5.856   4.541  16.989  0.00  0.00    +0.000 C 
BRANCH  13  15
ATOM     14  C   UNL     1       6.222   4.294  14.544  0.00  0.00    +0.000 C 
ATOM     15  C   UNL     1       5.453   4.090  15.615  0.00  0.00    +0.000 C 
ENDBRANCH  13  15
ENDBRANCH   1  13
TORSDOF 5
ENDMDL
MODEL 4
REMARK VINA RESULT:      -5.1      2.805      4.549
REMARK  Name = 
REMARK  7 active torsions:
REMARK  status: ('A' for Active; 'I' for Inactive)
REMARK    1  A    between atoms: C_2  and  C_3
REMARK    2  A    between atoms: C_3  and  N_4
REMARK    3  A    between atoms: C_6  and  C_7
REMARK    4  A    between atoms: N_8  and  O_9
REMARK    5  A    between atoms: N_10  and  C_11
REMARK    6  A    between atoms: C_12  and  S_13
REMARK    7  A    between atoms: S_13  and  C_14
REMARK                            x       y       z     vdW  Elec       q    Type
REMARK                         _______ _______ _______ _____ _____    ______ ____
ROOT
ATOM      1  N   UNL     1       4.972   5.259  17.923  0.00  0.00    +0.000 N 
ATOM      2  C   UNL     1       4.427   6.456  17.628  0.00  0.00    +0.000 A 
ATOM      3  C   UNL     1       3.222   6.567  18.295  0.00  0.00    +0.000 A 
ATOM      4  N   UNL     1       3.013   5.423  18.989  0.00  0.00    +0.000 N 
ATOM      5  C   UNL     1       1.875   5.073  19.841  0.00  0.00    +0.000 C 
ATOM      6  C   UNL     1       4.100   4.647  18.761  0.00  0.00    +0.000 A 
ENDROOT
BRANCH   3   7
ATOM      7  C   UNL     1       2.341   7.759  18.269  0.00  0.00    +0.000 C 
ATOM      8  N   UNL     1       2.554   8.706  17.427  0.00  0.00    +0.000 NA
BRANCH   8   9
ATOM      9  O   UNL     1       1.793   9.781  17.419  0.00  0.00    +0.000 OA
ATOM     10  H   UNL     1       1.082   9.875  18.066  0.00  0.00    +0.000 HD
ENDBRANCH   8   9
ENDBRANCH   3   7
BRANCH   6  11
ATOM     11  S   UNL     1       4.377   3.036  19.554  0.00  0.00    +0.000 S 
ATOM     12  C   UNL     1       3.469   1.964  18.389  0.00  0.00    +0.000 C 
ENDBRANCH   6  11
BRANCH   1  13
ATOM     13  C   UNL     1       6.266   4.789  17.441  0.00  0.00    +0.000 C 
BRANCH  13  15
ATOM     14  C   UNL     1       7.793   5.743  19.153  0.00  0.00    +0.000 C 
ATOM     15  C   UNL     1       7.358   5.716  17.892  0.00  0.00    +0.000 C 
ENDBRANCH  13  15
ENDBRANCH   1  13
TORSDOF 5
ENDMDL
MODEL 5
REMARK VINA RESULT:      -5.1      3.070      4.245
REMARK  Name = 
REMARK  7 active torsions:
REMARK  status: ('A' for Active; 'I' for Inactive)
REMARK    1  A    between atoms: C_2  and  C_3
REMARK    2  A    between atoms: C_3  and  N_4
REMARK    3  A    between atoms: C_6  and  C_7
REMARK    4  A    between atoms: N_8  and  O_9
REMARK    5  A    between atoms: N_10  and  C_11
REMARK    6  A    between atoms: C_12  and  S_13
REMARK    7  A    between atoms: S_13  and  C_14
REMARK                            x       y       z     vdW  Elec       q    Type
REMARK                         _______ _______ _______ _____ _____    ______ ____
ROOT
ATOM      1  N   UNL     1       3.845   4.045  17.145  0.00  0.00    +0.000 N 
ATOM      2  C   UNL     1       4.708   3.862  16.125  0.00  0.00    +0.000 A 
ATOM      3  C   UNL     1       5.864   4.569  16.395  0.00  0.00    +0.000 A 
ATOM      4  N   UNL     1       5.705   5.210  17.577  0.00  0.00    +0.000 N 
ATOM      5  C   UNL     1       6.654   6.081  18.273  0.00  0.00    +0.000 C 
ATOM      6  C   UNL     1       4.474   4.862  18.025  0.00  0.00    +0.000 A 
ENDROOT
BRANCH   3   7
ATOM      7  C   UNL     1       7.073   4.583  15.537  0.00  0.00    +0.000 C 
ATOM      8  N   UNL     1       7.275   5.549  14.715  0.00  0.00    +0.000 NA
BRANCH   8   9
ATOM      9  O   UNL     1       8.332   5.551  13.928  0.00  0.00    +0.000 OA
ATOM     10  H   UNL     1       8.782   6.381  13.726  0.00  0.00    +0.000 HD
ENDBRANCH   8   9
ENDBRANCH   3   7
BRANCH   6  11
ATOM     11  S   UNL     1       3.805   5.365  19.637  0.00  0.00    +0.000 S 
ATOM     12  C   UNL     1       2.680   6.697  19.098  0.00  0.00    +0.000 C 
ENDBRANCH   6  11
BRANCH   1  13
ATOM     13  C   UNL     1       2.529   3.426  17.246  0.00  0.00    +0.000 C 
BRANCH  13  15
ATOM     14  C   UNL     1       1.741   2.019  19.136  0.00  0.00    +0.000 C 
ATOM     15  C   UNL     1       2.590   2.211  18.125  0.00  0.00    +0.000 C 
ENDBRANCH  13  15
ENDBRANCH   1  13
TORSDOF 5
ENDMDL
MODEL 6
REMARK VINA RESULT:      -5.1      2.950      3.916
REMARK  Name = 
REMARK  7 active torsions:
REMARK  status: ('A' for Active; 'I' for Inactive)
REMARK    1  A    between atoms: C_2  and  C_3
REMARK    2  A    between atoms: C_3  and  N_4
REMARK    3  A    between atoms: C_6  and  C_7
REMARK    4  A    between atoms: N_8  and  O_9
REMARK    5  A    between atoms: N_10  and  C_11
REMARK    6  A    between atoms: C_12  and  S_13
REMARK    7  A    between atoms: S_13  and  C_14
REMARK                            x       y       z     vdW  Elec       q    Type
REMARK                         _______ _______ _______ _____ _____    ______ ____
ROOT
ATOM      1  N   UNL     1       3.241   5.646  18.136  0.00  0.00    +0.000 N 
ATOM      2  C   UNL     1       2.398   5.297  19.128  0.00  0.00    +0.000 A 
ATOM      3  C   UNL     1       2.396   3.919  19.240  0.00  0.00    +0.000 A 
ATOM      4  N   UNL     1       3.226   3.415  18.296  0.00  0.00    +0.000 N 
ATOM      5  C   UNL     1       3.545   2.012  18.024  0.00  0.00    +0.000 C 
ATOM      6  C   UNL     1       3.743   4.486  17.646  0.00  0.00    +0.000 A 
ENDROOT
BRANCH   3   7
ATOM      7  C   UNL     1       1.633   3.148  20.250  0.00  0.00    +0.000 C 
ATOM      8  N   UNL     1       2.035   3.098  21.469  0.00  0.00    +0.000 NA
BRANCH   8   9
ATOM      9  O   UNL     1       1.377   2.390  22.364  0.00  0.00    +0.000 OA
ATOM     10  H   UNL     1       1.432   2.623  23.300  0.00  0.00    +0.000 HD
ENDBRANCH   8   9
ENDBRANCH   3   7
BRANCH   6  11
ATOM     11  S   UNL     1       5.010   4.367  16.349  0.00  0.00    +0.000 S 
ATOM     12  C   UNL     1       6.502   4.682  17.351  0.00  0.00    +0.000 C 
ENDBRANCH   6  11
BRANCH   1  13
ATOM     13  C   UNL     1       3.545   7.016  17.742  0.00  0.00    +0.000 C 
BRANCH  13  15
ATOM     14  C   UNL     1       2.016   8.975  17.697  0.00  0.00    +0.000 C 
ATOM     15  C   UNL     1       2.571   7.968  18.375  0.00  0.00    +0.000 C 
ENDBRANCH  13  15
ENDBRANCH   1  13
TORSDOF 5
ENDMDL
MODEL 7
REMARK VINA RESULT:      -5.1      1.593      1.593
REMARK  Name = 
REMARK  7 active torsions:
REMARK  status: ('A' for Active; 'I' for Inactive)
REMARK    1  A    between atoms: C_2  and  C_3
REMARK    2  A    between atoms: C_3  and  N_4
REMARK    3  A    between atoms: C_6  and  C_7
REMARK    4  A    between atoms: N_8  and  O_9
REMARK    5  A    between atoms: N_10  and  C_11
REMARK    6  A    between atoms: C_12  and  S_13
REMARK    7  A    between atoms: S_13  and  C_14
REMARK                            x       y       z     vdW  Elec       q    Type
REMARK                         _______ _______ _______ _____ _____    ______ ____
ROOT
ATOM      1  N   UNL     1       3.253   5.986  19.213  0.00  0.00    +0.000 N 
ATOM      2  C   UNL     1       4.461   6.036  18.617  0.00  0.00    +0.000 A 
ATOM      3  C   UNL     1       5.066   4.800  18.742  0.00  0.00    +0.000 A 
ATOM      4  N   UNL     1       4.234   3.989  19.439  0.00  0.00    +0.000 N 
ATOM      5  C   UNL     1       4.440   2.591  19.823  0.00  0.00    +0.000 C 
ATOM      6  C   UNL     1       3.128   4.727  19.701  0.00  0.00    +0.000 A 
ENDROOT
BRANCH   3   7
ATOM      7  C   UNL     1       6.385   4.436  18.173  0.00  0.00    +0.000 C 
ATOM      8  N   UNL     1       6.694   4.780  16.975  0.00  0.00    +0.000 NA
BRANCH   8   9
ATOM      9  O   UNL     1       7.853   4.432  16.454  0.00  0.00    +0.000 OA
ATOM     10  H   UNL     1       8.664   4.866  16.748  0.00  0.00    +0.000 HD
ENDBRANCH   8   9
ENDBRANCH   3   7
BRANCH   6  11
ATOM     11  S   UNL     1       1.646   4.074  20.523  0.00  0.00    +0.000 S 
ATOM     12  C   UNL     1       0.940   3.103  19.148  0.00  0.00    +0.000 C 
ENDBRANCH   6  11
BRANCH   1  13
ATOM     13  C   UNL     1       2.297   7.086  19.255  0.00  0.00    +0.000 C 
BRANCH  13  15
ATOM     14  C   UNL     1       1.748   9.083  17.882  0.00  0.00    +0.000 C 
ATOM     15  C   UNL     1       2.485   7.987  18.068  0.00  0.00    +0.000 C 
ENDBRANCH  13  15
ENDBRANCH   1  13
TORSDOF 5
ENDMDL
MODEL 8
REMARK VINA RESULT:      -5.1      2.463      2.604
REMARK  Name = 
REMARK  7 active torsions:
REMARK  status: ('A' for Active; 'I' for Inactive)
REMARK    1  A    between atoms: C_2  and  C_3
REMARK    2  A    between atoms: C_3  and  N_4
REMARK    3  A    between atoms: C_6  and  C_7
REMARK    4  A    between atoms: N_8  and  O_9
REMARK    5  A    between atoms: N_10  and  C_11
REMARK    6  A    between atoms: C_12  and  S_13
REMARK    7  A    between atoms: S_13  and  C_14
REMARK                            x       y       z     vdW  Elec       q    Type
REMARK                         _______ _______ _______ _____ _____    ______ ____
ROOT
ATOM      1  N   UNL     1       3.057   5.737  18.383  0.00  0.00    +0.000 N 
ATOM      2  C   UNL     1       4.069   5.670  17.495  0.00  0.00    +0.000 A 
ATOM      3  C   UNL     1       4.320   4.340  17.213  0.00  0.00    +0.000 A 
ATOM      4  N   UNL     1       3.473   3.583  17.949  0.00  0.00    +0.000 N 
ATOM      5  C   UNL     1       3.365   2.123  17.992  0.00  0.00    +0.000 C 
ATOM      6  C   UNL     1       2.701   4.454  18.642  0.00  0.00    +0.000 A 
ENDROOT
BRANCH   3   7
ATOM      7  C   UNL     1       5.328   3.852  16.242  0.00  0.00    +0.000 C 
ATOM      8  N   UNL     1       5.468   4.430  15.104  0.00  0.00    +0.000 NA
BRANCH   8   9
ATOM      9  O   UNL     1       6.341   3.981  14.225  0.00  0.00    +0.000 OA
ATOM     10  H   UNL     1       6.118   3.968  13.286  0.00  0.00    +0.000 HD
ENDBRANCH   8   9
ENDBRANCH   3   7
BRANCH   6  11
ATOM     11  S   UNL     1       1.316   3.955  19.706  0.00  0.00    +0.000 S 
ATOM     12  C   UNL     1       2.175   3.896  21.315  0.00  0.00    +0.000 C 
ENDBRANCH   6  11
BRANCH   1  13
ATOM     13  C   UNL     1       2.476   6.972  18.895  0.00  0.00    +0.000 C 
BRANCH  13  15
ATOM     14  C   UNL     1       1.892   9.158  17.866  0.00  0.00    +0.000 C 
ATOM     15  C   UNL     1       2.696   8.094  17.921  0.00  0.00    +0.000 C 
ENDBRANCH  13  15
ENDBRANCH   1  13
TORSDOF 5
ENDMDL
MODEL 9
REMARK VINA RESULT:      -5.0      2.450      3.286
REMARK  Name = 
REMARK  7 active torsions:
REMARK  status: ('A' for Active; 'I' for Inactive)
REMARK    1  A    between atoms: C_2  and  C_3
REMARK    2  A    between atoms: C_3  and  N_4
REMARK    3  A    between atoms: C_6  and  C_7
REMARK    4  A    between atoms: N_8  and  O_9
REMARK    5  A    between atoms: N_10  and  C_11
REMARK    6  A    between atoms: C_12  and  S_13
REMARK    7  A    between atoms: S_13  and  C_14
REMARK                            x       y       z     vdW  Elec       q    Type
REMARK                         _______ _______ _______ _____ _____    ______ ____
ROOT
ATOM      1  N   UNL     1       3.339   5.154  19.157  0.00  0.00    +0.000 N 
ATOM      2  C   UNL     1       4.421   5.951  19.255  0.00  0.00    +0.000 A 
ATOM      3  C   UNL     1       5.310   5.612  18.252  0.00  0.00    +0.000 A 
ATOM      4  N   UNL     1       4.781   4.584  17.546  0.00  0.00    +0.000 N 
ATOM      5  C   UNL     1       5.355   3.884  16.394  0.00  0.00    +0.000 C 
ATOM      6  C   UNL     1       3.572   4.332  18.104  0.00  0.00    +0.000 A 
ENDROOT
BRANCH   3   7
ATOM      7  C   UNL     1       6.600   6.292  17.992  0.00  0.00    +0.000 C 
ATOM      8  N   UNL     1       6.658   7.290  17.185  0.00  0.00    +0.000 NA
BRANCH   8   9
ATOM      9  O   UNL     1       7.808   7.879  16.927  0.00  0.00    +0.000 OA
ATOM     10  H   UNL     1       8.327   7.610  16.159  0.00  0.00    +0.000 HD
ENDBRANCH   8   9
ENDBRANCH   3   7
BRANCH   6  11
ATOM     11  S   UNL     1       2.394   3.110  17.458  0.00  0.00    +0.000 S 
ATOM     12  C   UNL     1       3.041   1.607  18.266  0.00  0.00    +0.000 C 
ENDBRANCH   6  11
BRANCH   1  13
ATOM     13  C   UNL     1       2.162   5.234  20.015  0.00  0.00    +0.000 C 
BRANCH  13  15
ATOM     14  C   UNL     1       1.466   3.204  21.267  0.00  0.00    +0.000 C 
ATOM     15  C   UNL     1       2.277   4.256  21.149  0.00  0.00    +0.000 C 
ENDBRANCH  13  15
ENDBRANCH   1  13
TORSDOF 5
ENDMDL
