MODEL 1
REMARK VINA RESULT:      -7.4      0.000      0.000
REMARK  Name = 
REMARK  2 active torsions:
REMARK  status: ('A' for Active; 'I' for Inactive)
REMARK    1  A    between atoms: O_1  and  C_2
REMARK    2  A    between atoms: C_6  and  C_7
REMARK                            x       y       z     vdW  Elec       q    Type
REMARK                         _______ _______ _______ _____ _____    ______ ____
ROOT
ATOM      1  C   UNL     1      -0.722  12.751  22.245  0.00  0.00    +0.000 A 
ATOM      2  N   UNL     1      -0.234  13.599  21.309  0.00  0.00    +0.000 NA
ATOM      3  C   UNL     1       0.419  13.109  20.240  0.00  0.00    +0.000 A 
ATOM      4  N   UNL     1       0.860  13.983  19.283  0.00  0.00    +0.000 N 
ATOM      5  C   UNL     1       1.498  13.528  18.050  0.00  0.00    +0.000 C 
ATOM      6  C   UNL     1       2.928  14.083  17.955  0.00  0.00    +0.000 C 
ATOM      7  O   UNL     1       2.958  15.510  18.130  0.00  0.00    +0.000 OA
ATOM      8  C   UNL     1       2.421  15.862  19.418  0.00  0.00    +0.000 C 
ATOM      9  C   UNL     1       0.959  15.412  19.561  0.00  0.00    +0.000 C 
ATOM     10  N   UNL     1       0.615  11.799  20.058  0.00  0.00    +0.000 NA
ATOM     11  C   UNL     1       0.139  10.969  20.990  0.00  0.00    +0.000 A 
ATOM     12  C   UNL     1      -0.528  11.402  22.115  0.00  0.00    +0.000 A 
ATOM     13  C   UNL     1      -0.958  10.243  22.937  0.00  0.00    +0.000 C 
ATOM     14  C   UNL     1      -0.288   9.060  22.223  0.00  0.00    +0.000 C 
ATOM     15  N   UNL     1       0.235   9.552  20.949  0.00  0.00    +0.000 N 
ATOM     16  C   UNL     1       1.065   8.728  20.196  0.00  0.00    +0.000 A 
ATOM     17  C   UNL     1       1.578   9.143  18.968  0.00  0.00    +0.000 A 
ATOM     18  C   UNL     1       2.468   8.333  18.262  0.00  0.00    +0.000 A 
ATOM     19  C   UNL     1       2.824   7.106  18.794  0.00  0.00    +0.000 A 
ATOM     20  C   UNL     1       2.252   6.735  19.993  0.00  0.00    +0.000 A 
ATOM     21  N   UNL     1       1.383   7.505  20.688  0.00  0.00    +0.000 NA
ENDROOT
BRANCH   1  26
ATOM     22  C   UNL     1      -3.574  13.640  24.598  0.00  0.00    +0.000 A 
ATOM     23  C   UNL     1      -3.076  14.759  25.249  0.00  0.00    +0.000 A 
ATOM     24  C   UNL     1      -1.782  15.184  24.964  0.00  0.00    +0.000 A 
ATOM     25  C   UNL     1      -1.016  14.510  24.006  0.00  0.00    +0.000 A 
ATOM     26  C   UNL     1      -1.521  13.390  23.312  0.00  0.00    +0.000 A 
ATOM     27  C   UNL     1      -2.806  12.946  23.666  0.00  0.00    +0.000 A 
BRANCH  22  28
ATOM     28  O   UNL     1      -4.836  13.177  24.831  0.00  0.00    +0.000 OA
ATOM     29  H   UNL     1      -4.774  12.334  25.308  0.00  0.00    +0.000 HD
ENDBRANCH  22  28
ENDBRANCH   1  26
TORSDOF 2
ENDMDL
MODEL 2
REMARK VINA RESULT:      -7.3      4.441      7.459
REMARK  Name = 
REMARK  2 active torsions:
REMARK  status: ('A' for Active; 'I' for Inactive)
REMARK    1  A    between atoms: O_1  and  C_2
REMARK    2  A    between atoms: C_6  and  C_7
REMARK                            x       y       z     vdW  Elec       q    Type
REMARK                         _______ _______ _______ _____ _____    ______ ____
ROOT
ATOM      1  C   UNL     1      -1.283  10.988  19.493  0.00  0.00    +0.000 A 
ATOM      2  N   UNL     1      -1.179  11.778  20.587  0.00  0.00    +0.000 NA
ATOM      3  C   UNL     1      -2.197  12.591  20.924  0.00  0.00    +0.000 A 
ATOM      4  N   UNL     1      -2.087  13.344  22.062  0.00  0.00    +0.000 N 
ATOM      5  C   UNL     1      -3.182  14.182  22.548  0.00  0.00    +0.000 C 
ATOM      6  C   UNL     1      -2.743  15.654  22.591  0.00  0.00    +0.000 C 
ATOM      7  O   UNL     1      -1.516  15.823  23.323  0.00  0.00    +0.000 OA
ATOM      8  C   UNL     1      -0.465  15.057  22.708  0.00  0.00    +0.000 C 
ATOM      9  C   UNL     1      -0.792  13.556  22.700  0.00  0.00    +0.000 C 
ATOM     10  N   UNL     1      -3.327  12.656  20.213  0.00  0.00    +0.000 NA
ATOM     11  C   UNL     1      -3.419  11.881  19.129  0.00  0.00    +0.000 A 
ATOM     12  C   UNL     1      -2.411  11.036  18.719  0.00  0.00    +0.000 A 
ATOM     13  C   UNL     1      -2.828  10.288  17.506  0.00  0.00    +0.000 C 
ATOM     14  C   UNL     1      -4.168  10.949  17.149  0.00  0.00    +0.000 C 
ATOM     15  N   UNL     1      -4.550  11.804  18.272  0.00  0.00    +0.000 N 
ATOM     16  C   UNL     1      -5.626  12.673  18.123  0.00  0.00    +0.000 A 
ATOM     17  C   UNL     1      -6.041  13.500  19.166  0.00  0.00    +0.000 A 
ATOM     18  C   UNL     1      -7.074  14.417  18.976  0.00  0.00    +0.000 A 
ATOM     19  C   UNL     1      -7.689  14.486  17.738  0.00  0.00    +0.000 A 
ATOM     20  C   UNL     1      -7.260  13.615  16.758  0.00  0.00    +0.000 A 
ATOM     21  N   UNL     1      -6.264  12.715  16.927  0.00  0.00    +0.000 NA
ENDROOT
BRANCH   1  26
ATOM     22  C   UNL     1       1.459   8.425  20.102  0.00  0.00    +0.000 A 
ATOM     23  C   UNL     1       2.119   8.410  18.883  0.00  0.00    +0.000 A 
ATOM     24  C   UNL     1       1.629   9.192  17.841  0.00  0.00    +0.000 A 
ATOM     25  C   UNL     1       0.508  10.005  18.042  0.00  0.00    +0.000 A 
ATOM     26  C   UNL     1      -0.156  10.056  19.286  0.00  0.00    +0.000 A 
ATOM     27  C   UNL     1       0.324   9.209  20.299  0.00  0.00    +0.000 A 
BRANCH  22  28
ATOM     28  O   UNL     1       1.893   7.684  21.163  0.00  0.00    +0.000 OA
ATOM     29  H   UNL     1       2.746   8.039  21.460  0.00  0.00    +0.000 HD
ENDBRANCH  22  28
ENDBRANCH   1  26
TORSDOF 2
ENDMDL
MODEL 3
REMARK VINA RESULT:      -7.3      5.029     10.761
REMARK  Name = 
REMARK  2 active torsions:
REMARK  status: ('A' for Active; 'I' for Inactive)
REMARK    1  A    between atoms: O_1  and  C_2
REMARK    2  A    between atoms: C_6  and  C_7
REMARK                            x       y       z     vdW  Elec       q    Type
REMARK                         _______ _______ _______ _____ _____    ______ ____
ROOT
ATOM      1  C   UNL     1       4.149   5.660  17.508  0.00  0.00    +0.000 A 
ATOM      2  N   UNL     1       3.799   4.566  18.223  0.00  0.00    +0.000 NA
ATOM      3  C   UNL     1       2.840   4.659  19.161  0.00  0.00    +0.000 A 
ATOM      4  N   UNL     1       2.470   3.527  19.837  0.00  0.00    +0.000 N 
ATOM      5  C   UNL     1       1.376   3.523  20.806  0.00  0.00    +0.000 C 
ATOM      6  C   UNL     1       1.897   3.116  22.193  0.00  0.00    +0.000 C 
ATOM      7  O   UNL     1       2.632   1.880  22.144  0.00  0.00    +0.000 OA
ATOM      8  C   UNL     1       3.759   2.009  21.259  0.00  0.00    +0.000 C 
ATOM      9  C   UNL     1       3.315   2.337  19.825  0.00  0.00    +0.000 C 
ATOM     10  N   UNL     1       2.205   5.805  19.426  0.00  0.00    +0.000 NA
ATOM     11  C   UNL     1       2.561   6.884  18.723  0.00  0.00    +0.000 A 
ATOM     12  C   UNL     1       3.544   6.864  17.757  0.00  0.00    +0.000 A 
ATOM     13  C   UNL     1       3.683   8.205  17.136  0.00  0.00    +0.000 C 
ATOM     14  C   UNL     1       2.760   9.073  18.004  0.00  0.00    +0.000 C 
ATOM     15  N   UNL     1       1.981   8.174  18.854  0.00  0.00    +0.000 N 
ATOM     16  C   UNL     1       1.211   8.714  19.879  0.00  0.00    +0.000 A 
ATOM     17  C   UNL     1       0.438   7.903  20.710  0.00  0.00    +0.000 A 
ATOM     18  C   UNL     1      -0.269   8.454  21.778  0.00  0.00    +0.000 A 
ATOM     19  C   UNL     1      -0.202   9.819  21.994  0.00  0.00    +0.000 A 
ATOM     20  C   UNL     1       0.547  10.572  21.115  0.00  0.00    +0.000 A 
ATOM     21  N   UNL     1       1.235  10.056  20.070  0.00  0.00    +0.000 NA
ENDROOT
BRANCH   1  26
ATOM     22  C   UNL     1       5.767   4.436  14.292  0.00  0.00    +0.000 A 
ATOM     23  C   UNL     1       7.088   4.825  14.465  0.00  0.00    +0.000 A 
ATOM     24  C   UNL     1       7.435   5.544  15.605  0.00  0.00    +0.000 A 
ATOM     25  C   UNL     1       6.468   5.833  16.574  0.00  0.00    +0.000 A 
ATOM     26  C   UNL     1       5.128   5.416  16.429  0.00  0.00    +0.000 A 
ATOM     27  C   UNL     1       4.794   4.748  15.239  0.00  0.00    +0.000 A 
BRANCH  22  28
ATOM     28  O   UNL     1       5.366   3.726  13.198  0.00  0.00    +0.000 OA
ATOM     29  H   UNL     1       5.124   4.350  12.495  0.00  0.00    +0.000 HD
ENDBRANCH  22  28
ENDBRANCH   1  26
TORSDOF 2
ENDMDL
MODEL 4
REMARK VINA RESULT:      -7.2      0.978      1.330
REMARK  Name = 
REMARK  2 active torsions:
REMARK  status: ('A' for Active; 'I' for Inactive)
REMARK    1  A    between atoms: O_1  and  C_2
REMARK    2  A    between atoms: C_6  and  C_7
REMARK                            x       y       z     vdW  Elec       q    Type
REMARK                         _______ _______ _______ _____ _____    ______ ____
ROOT
ATOM      1  C   UNL     1      -0.728  12.982  22.330  0.00  0.00    +0.000 A 
ATOM      2  N   UNL     1      -0.203  13.775  21.367  0.00  0.00    +0.000 NA
ATOM      3  C   UNL     1       0.436  13.222  20.321  0.00  0.00    +0.000 A 
ATOM      4  N   UNL     1       0.915  14.043  19.335  0.00  0.00    +0.000 N 
ATOM      5  C   UNL     1       1.540  13.519  18.123  0.00  0.00    +0.000 C 
ATOM      6  C   UNL     1       2.991  14.014  18.017  0.00  0.00    +0.000 C 
ATOM      7  O   UNL     1       3.075  15.445  18.140  0.00  0.00    +0.000 OA
ATOM      8  C   UNL     1       2.546  15.865  19.410  0.00  0.00    +0.000 C 
ATOM      9  C   UNL     1       1.067  15.477  19.561  0.00  0.00    +0.000 C 
ATOM     10  N   UNL     1       0.582  11.900  20.188  0.00  0.00    +0.000 NA
ATOM     11  C   UNL     1       0.070  11.123  21.146  0.00  0.00    +0.000 A 
ATOM     12  C   UNL     1      -0.585  11.622  22.251  0.00  0.00    +0.000 A 
ATOM     13  C   UNL     1      -1.063  10.511  23.112  0.00  0.00    +0.000 C 
ATOM     14  C   UNL     1      -0.435   9.278  22.446  0.00  0.00    +0.000 C 
ATOM     15  N   UNL     1       0.111   9.703  21.158  0.00  0.00    +0.000 N 
ATOM     16  C   UNL     1       0.913   8.821  20.440  0.00  0.00    +0.000 A 
ATOM     17  C   UNL     1       1.447   9.170  19.201  0.00  0.00    +0.000 A 
ATOM     18  C   UNL     1       2.308   8.302  18.530  0.00  0.00    +0.000 A 
ATOM     19  C   UNL     1       2.615   7.083  19.109  0.00  0.00    +0.000 A 
ATOM     20  C   UNL     1       2.023   6.778  20.317  0.00  0.00    +0.000 A 
ATOM     21  N   UNL     1       1.182   7.606  20.979  0.00  0.00    +0.000 NA
ENDROOT
BRANCH   1  26
ATOM     22  C   UNL     1      -1.684  15.273  25.210  0.00  0.00    +0.000 A 
ATOM     23  C   UNL     1      -2.995  14.895  25.461  0.00  0.00    +0.000 A 
ATOM     24  C   UNL     1      -3.586  13.935  24.645  0.00  0.00    +0.000 A 
ATOM     25  C   UNL     1      -2.850  13.338  23.615  0.00  0.00    +0.000 A 
ATOM     26  C   UNL     1      -1.506  13.689  23.368  0.00  0.00    +0.000 A 
ATOM     27  C   UNL     1      -0.956  14.707  24.167  0.00  0.00    +0.000 A 
BRANCH  22  28
ATOM     28  O   UNL     1      -1.048  16.206  25.977  0.00  0.00    +0.000 OA
ATOM     29  H   UNL     1      -1.544  16.318  26.804  0.00  0.00    +0.000 HD
ENDBRANCH  22  28
ENDBRANCH   1  26
TORSDOF 2
ENDMDL
MODEL 5
REMARK VINA RESULT:      -7.0      4.246      7.434
REMARK  Name = 
REMARK  2 active torsions:
REMARK  status: ('A' for Active; 'I' for Inactive)
REMARK    1  A    between atoms: O_1  and  C_2
REMARK    2  A    between atoms: C_6  and  C_7
REMARK                            x       y       z     vdW  Elec       q    Type
REMARK                         _______ _______ _______ _____ _____    ______ ____
ROOT
ATOM      1  C   UNL     1      -1.183  11.034  19.779  0.00  0.00    +0.000 A 
ATOM      2  N   UNL     1      -1.112  11.877  20.835  0.00  0.00    +0.000 NA
ATOM      3  C   UNL     1      -2.141  12.702  21.101  0.00  0.00    +0.000 A 
ATOM      4  N   UNL     1      -2.066  13.510  22.204  0.00  0.00    +0.000 N 
ATOM      5  C   UNL     1      -3.175  14.368  22.615  0.00  0.00    +0.000 C 
ATOM      6  C   UNL     1      -2.740  15.842  22.598  0.00  0.00    +0.000 C 
ATOM      7  O   UNL     1      -1.535  16.051  23.356  0.00  0.00    +0.000 OA
ATOM      8  C   UNL     1      -0.465  15.258  22.811  0.00  0.00    +0.000 C 
ATOM      9  C   UNL     1      -0.790  13.757  22.867  0.00  0.00    +0.000 C 
ATOM     10  N   UNL     1      -3.250  12.729  20.355  0.00  0.00    +0.000 NA
ATOM     11  C   UNL     1      -3.309  11.901  19.309  0.00  0.00    +0.000 A 
ATOM     12  C   UNL     1      -2.288  11.039  18.970  0.00  0.00    +0.000 A 
ATOM     13  C   UNL     1      -2.667  10.232  17.784  0.00  0.00    +0.000 C 
ATOM     14  C   UNL     1      -3.998  10.870  17.356  0.00  0.00    +0.000 C 
ATOM     15  N   UNL     1      -4.413  11.779  18.423  0.00  0.00    +0.000 N 
ATOM     16  C   UNL     1      -5.486  12.636  18.200  0.00  0.00    +0.000 A 
ATOM     17  C   UNL     1      -5.933  13.512  19.189  0.00  0.00    +0.000 A 
ATOM     18  C   UNL     1      -6.961  14.415  18.923  0.00  0.00    +0.000 A 
ATOM     19  C   UNL     1      -7.540  14.422  17.666  0.00  0.00    +0.000 A 
ATOM     20  C   UNL     1      -7.081  13.505  16.743  0.00  0.00    +0.000 A 
ATOM     21  N   UNL     1      -6.089  12.617  16.986  0.00  0.00    +0.000 NA
ENDROOT
BRANCH   1  26
ATOM     22  C   UNL     1       1.695   9.002  18.348  0.00  0.00    +0.000 A 
ATOM     23  C   UNL     1       2.008   8.157  19.403  0.00  0.00    +0.000 A 
ATOM     24  C   UNL     1       1.320   8.297  20.604  0.00  0.00    +0.000 A 
ATOM     25  C   UNL     1       0.303   9.251  20.724  0.00  0.00    +0.000 A 
ATOM     26  C   UNL     1      -0.049  10.096  19.650  0.00  0.00    +0.000 A 
ATOM     27  C   UNL     1       0.706   9.975  18.471  0.00  0.00    +0.000 A 
BRANCH  22  28
ATOM     28  O   UNL     1       2.332   8.912  17.144  0.00  0.00    +0.000 OA
ATOM     29  H   UNL     1       2.676   9.788  16.909  0.00  0.00    +0.000 HD
ENDBRANCH  22  28
ENDBRANCH   1  26
TORSDOF 2
ENDMDL
MODEL 6
REMARK VINA RESULT:      -6.8      2.577      6.613
REMARK  Name = 
REMARK  2 active torsions:
REMARK  status: ('A' for Active; 'I' for Inactive)
REMARK    1  A    between atoms: O_1  and  C_2
REMARK    2  A    between atoms: C_6  and  C_7
REMARK                            x       y       z     vdW  Elec       q    Type
REMARK                         _______ _______ _______ _____ _____    ______ ____
ROOT
ATOM      1  C   UNL     1       0.971  11.450  20.439  0.00  0.00    +0.000 A 
ATOM      2  N   UNL     1       1.752  12.489  20.064  0.00  0.00    +0.000 NA
ATOM      3  C   UNL     1       1.613  13.683  20.670  0.00  0.00    +0.000 A 
ATOM      4  N   UNL     1       2.449  14.704  20.306  0.00  0.00    +0.000 N 
ATOM      5  C   UNL     1       2.425  16.003  20.976  0.00  0.00    +0.000 C 
ATOM      6  C   UNL     1       2.075  17.112  19.971  0.00  0.00    +0.000 C 
ATOM      7  O   UNL     1       2.930  17.072  18.815  0.00  0.00    +0.000 OA
ATOM      8  C   UNL     1       2.803  15.804  18.149  0.00  0.00    +0.000 C 
ATOM      9  C   UNL     1       3.215  14.642  19.066  0.00  0.00    +0.000 C 
ATOM     10  N   UNL     1       0.719  13.893  21.641  0.00  0.00    +0.000 NA
ATOM     11  C   UNL     1      -0.055  12.866  22.000  0.00  0.00    +0.000 A 
ATOM     12  C   UNL     1       0.025  11.621  21.415  0.00  0.00    +0.000 A 
ATOM     13  C   UNL     1      -0.940  10.689  22.052  0.00  0.00    +0.000 C 
ATOM     14  C   UNL     1      -1.735  11.617  22.984  0.00  0.00    +0.000 C 
ATOM     15  N   UNL     1      -1.039  12.902  23.025  0.00  0.00    +0.000 N 
ATOM     16  C   UNL     1      -1.658  13.986  23.639  0.00  0.00    +0.000 A 
ATOM     17  C   UNL     1      -1.033  15.229  23.719  0.00  0.00    +0.000 A 
ATOM     18  C   UNL     1      -1.698  16.323  24.272  0.00  0.00    +0.000 A 
ATOM     19  C   UNL     1      -2.985  16.152  24.752  0.00  0.00    +0.000 A 
ATOM     20  C   UNL     1      -3.535  14.888  24.681  0.00  0.00    +0.000 A 
ATOM     21  N   UNL     1      -2.902  13.815  24.153  0.00  0.00    +0.000 NA
ENDROOT
BRANCH   1  26
ATOM     22  C   UNL     1       1.865   7.796  19.881  0.00  0.00    +0.000 A 
ATOM     23  C   UNL     1       2.067   7.753  18.510  0.00  0.00    +0.000 A 
ATOM     24  C   UNL     1       1.848   8.904  17.760  0.00  0.00    +0.000 A 
ATOM     25  C   UNL     1       1.467  10.093  18.392  0.00  0.00    +0.000 A 
ATOM     26  C   UNL     1       1.289  10.162  19.790  0.00  0.00    +0.000 A 
ATOM     27  C   UNL     1       1.455   8.968  20.513  0.00  0.00    +0.000 A 
BRANCH  22  28
ATOM     28  O   UNL     1       2.066   6.702  20.672  0.00  0.00    +0.000 OA
ATOM     29  H   UNL     1       2.953   6.350  20.493  0.00  0.00    +0.000 HD
ENDBRANCH  22  28
ENDBRANCH   1  26
TORSDOF 2
ENDMDL
MODEL 7
REMARK VINA RESULT:      -6.8      3.711      8.123
REMARK  Name = 
REMARK  2 active torsions:
REMARK  status: ('A' for Active; 'I' for Inactive)
REMARK    1  A    between atoms: O_1  and  C_2
REMARK    2  A    between atoms: C_6  and  C_7
REMARK                            x       y       z     vdW  Elec       q    Type
REMARK                         _______ _______ _______ _____ _____    ______ ____
ROOT
ATOM      1  C   UNL     1      -1.648  11.884  20.470  0.00  0.00    +0.000 A 
ATOM      2  N   UNL     1      -2.753  11.767  19.697  0.00  0.00    +0.000 NA
ATOM      3  C   UNL     1      -3.782  12.617  19.869  0.00  0.00    +0.000 A 
ATOM      4  N   UNL     1      -4.868  12.508  19.042  0.00  0.00    +0.000 N 
ATOM      5  C   UNL     1      -5.986  13.447  19.101  0.00  0.00    +0.000 C 
ATOM      6  C   UNL     1      -7.286  12.703  19.447  0.00  0.00    +0.000 C 
ATOM      7  O   UNL     1      -7.511  11.588  18.566  0.00  0.00    +0.000 OA
ATOM      8  C   UNL     1      -6.420  10.656  18.659  0.00  0.00    +0.000 C 
ATOM      9  C   UNL     1      -5.089  11.304  18.247  0.00  0.00    +0.000 C 
ATOM     10  N   UNL     1      -3.763  13.588  20.787  0.00  0.00    +0.000 NA
ATOM     11  C   UNL     1      -2.674  13.692  21.553  0.00  0.00    +0.000 A 
ATOM     12  C   UNL     1      -1.590  12.849  21.440  0.00  0.00    +0.000 A 
ATOM     13  C   UNL     1      -0.530  13.241  22.403  0.00  0.00    +0.000 C 
ATOM     14  C   UNL     1      -1.220  14.334  23.233  0.00  0.00    +0.000 C 
ATOM     15  N   UNL     1      -2.472  14.675  22.559  0.00  0.00    +0.000 N 
ATOM     16  C   UNL     1      -3.386  15.497  23.209  0.00  0.00    +0.000 A 
ATOM     17  C   UNL     1      -4.588  15.865  22.605  0.00  0.00    +0.000 A 
ATOM     18  C   UNL     1      -5.526  16.629  23.300  0.00  0.00    +0.000 A 
ATOM     19  C   UNL     1      -5.239  17.027  24.594  0.00  0.00    +0.000 A 
ATOM     20  C   UNL     1      -4.017  16.665  25.122  0.00  0.00    +0.000 A 
ATOM     21  N   UNL     1      -3.094  15.930  24.461  0.00  0.00    +0.000 NA
ENDROOT
BRANCH   1  26
ATOM     22  C   UNL     1       1.181  10.180  18.585  0.00  0.00    +0.000 A 
ATOM     23  C   UNL     1       1.468   9.100  19.406  0.00  0.00    +0.000 A 
ATOM     24  C   UNL     1       0.780   8.965  20.608  0.00  0.00    +0.000 A 
ATOM     25  C   UNL     1      -0.212   9.889  20.956  0.00  0.00    +0.000 A 
ATOM     26  C   UNL     1      -0.539  10.975  20.117  0.00  0.00    +0.000 A 
ATOM     27  C   UNL     1       0.217  11.121  18.941  0.00  0.00    +0.000 A 
BRANCH  22  28
ATOM     28  O   UNL     1       1.818  10.365  17.393  0.00  0.00    +0.000 OA
ATOM     29  H   UNL     1       1.290  10.971  16.849  0.00  0.00    +0.000 HD
ENDBRANCH  22  28
ENDBRANCH   1  26
TORSDOF 2
ENDMDL
MODEL 8
REMARK VINA RESULT:      -6.7      3.647      5.200
REMARK  Name = 
REMARK  2 active torsions:
REMARK  status: ('A' for Active; 'I' for Inactive)
REMARK    1  A    between atoms: O_1  and  C_2
REMARK    2  A    between atoms: C_6  and  C_7
REMARK                            x       y       z     vdW  Elec       q    Type
REMARK                         _______ _______ _______ _____ _____    ______ ____
ROOT
ATOM      1  C   UNL     1      -3.537  13.397  21.268  0.00  0.00    +0.000 A 
ATOM      2  N   UNL     1      -3.854  12.563  20.250  0.00  0.00    +0.000 NA
ATOM      3  C   UNL     1      -2.894  12.143  19.407  0.00  0.00    +0.000 A 
ATOM      4  N   UNL     1      -3.231  11.262  18.415  0.00  0.00    +0.000 N 
ATOM      5  C   UNL     1      -2.234  10.687  17.514  0.00  0.00    +0.000 C 
ATOM      6  C   UNL     1      -2.546  11.075  16.060  0.00  0.00    +0.000 C 
ATOM      7  O   UNL     1      -3.902  10.754  15.703  0.00  0.00    +0.000 OA
ATOM      8  C   UNL     1      -4.819  11.454  16.563  0.00  0.00    +0.000 C 
ATOM      9  C   UNL     1      -4.626  11.057  18.035  0.00  0.00    +0.000 C 
ATOM     10  N   UNL     1      -1.617  12.520  19.529  0.00  0.00    +0.000 NA
ATOM     11  C   UNL     1      -1.313  13.350  20.530  0.00  0.00    +0.000 A 
ATOM     12  C   UNL     1      -2.247  13.830  21.422  0.00  0.00    +0.000 A 
ATOM     13  C   UNL     1      -1.595  14.700  22.433  0.00  0.00    +0.000 C 
ATOM     14  C   UNL     1      -0.158  14.812  21.900  0.00  0.00    +0.000 C 
ATOM     15  N   UNL     1      -0.010  13.835  20.824  0.00  0.00    +0.000 N 
ATOM     16  C   UNL     1       1.136  13.867  20.036  0.00  0.00    +0.000 A 
ATOM     17  C   UNL     1       1.335  12.949  19.005  0.00  0.00    +0.000 A 
ATOM     18  C   UNL     1       2.454  13.043  18.178  0.00  0.00    +0.000 A 
ATOM     19  C   UNL     1       3.371  14.054  18.404  0.00  0.00    +0.000 A 
ATOM     20  C   UNL     1       3.139  14.907  19.463  0.00  0.00    +0.000 A 
ATOM     21  N   UNL     1       2.062  14.828  20.278  0.00  0.00    +0.000 NA
ENDROOT
BRANCH   1  26
ATOM     22  C   UNL     1      -6.527  13.021  23.587  0.00  0.00    +0.000 A 
ATOM     23  C   UNL     1      -6.868  14.342  23.838  0.00  0.00    +0.000 A 
ATOM     24  C   UNL     1      -6.081  15.355  23.300  0.00  0.00    +0.000 A 
ATOM     25  C   UNL     1      -4.986  15.037  22.489  0.00  0.00    +0.000 A 
ATOM     26  C   UNL     1      -4.645  13.699  22.197  0.00  0.00    +0.000 A 
ATOM     27  C   UNL     1      -5.420  12.698  22.806  0.00  0.00    +0.000 A 
BRANCH  22  28
ATOM     28  O   UNL     1      -7.262  11.983  24.083  0.00  0.00    +0.000 OA
ATOM     29  H   UNL     1      -7.914  11.717  23.414  0.00  0.00    +0.000 HD
ENDBRANCH  22  28
ENDBRANCH   1  26
TORSDOF 2
ENDMDL
MODEL 9
REMARK VINA RESULT:      -6.7      3.851      7.972
REMARK  Name = 
REMARK  2 active torsions:
REMARK  status: ('A' for Active; 'I' for Inactive)
REMARK    1  A    between atoms: O_1  and  C_2
REMARK    2  A    between atoms: C_6  and  C_7
REMARK                            x       y       z     vdW  Elec       q    Type
REMARK                         _______ _______ _______ _____ _____    ______ ____
ROOT
ATOM      1  C   UNL     1      -1.614  11.564  20.279  0.00  0.00    +0.000 A 
ATOM      2  N   UNL     1      -2.739  11.523  19.527  0.00  0.00    +0.000 NA
ATOM      3  C   UNL     1      -3.723  12.413  19.747  0.00  0.00    +0.000 A 
ATOM      4  N   UNL     1      -4.829  12.381  18.941  0.00  0.00    +0.000 N 
ATOM      5  C   UNL     1      -5.901  13.368  19.053  0.00  0.00    +0.000 C 
ATOM      6  C   UNL     1      -7.227  12.675  19.404  0.00  0.00    +0.000 C 
ATOM      7  O   UNL     1      -7.522  11.600  18.494  0.00  0.00    +0.000 OA
ATOM      8  C   UNL     1      -6.474  10.616  18.534  0.00  0.00    +0.000 C 
ATOM      9  C   UNL     1      -5.122  11.214  18.115  0.00  0.00    +0.000 C 
ATOM     10  N   UNL     1      -3.640  13.353  20.693  0.00  0.00    +0.000 NA
ATOM     11  C   UNL     1      -2.532  13.383  21.438  0.00  0.00    +0.000 A 
ATOM     12  C   UNL     1      -1.491  12.495  21.276  0.00  0.00    +0.000 A 
ATOM     13  C   UNL     1      -0.395  12.806  22.228  0.00  0.00    +0.000 C 
ATOM     14  C   UNL     1      -1.016  13.904  23.105  0.00  0.00    +0.000 C 
ATOM     15  N   UNL     1      -2.264  14.323  22.469  0.00  0.00    +0.000 N 
ATOM     16  C   UNL     1      -3.125  15.166  23.163  0.00  0.00    +0.000 A 
ATOM     17  C   UNL     1      -4.321  15.608  22.598  0.00  0.00    +0.000 A 
ATOM     18  C   UNL     1      -5.207  16.392  23.336  0.00  0.00    +0.000 A 
ATOM     19  C   UNL     1      -4.876  16.735  24.635  0.00  0.00    +0.000 A 
ATOM     20  C   UNL     1      -3.661  16.301  25.125  0.00  0.00    +0.000 A 
ATOM     21  N   UNL     1      -2.787  15.545  24.421  0.00  0.00    +0.000 NA
ENDROOT
BRANCH   1  26
ATOM     22  C   UNL     1       1.083   8.886  20.378  0.00  0.00    +0.000 A 
ATOM     23  C   UNL     1       1.592   8.937  19.089  0.00  0.00    +0.000 A 
ATOM     24  C   UNL     1       1.008   9.803  18.169  0.00  0.00    +0.000 A 
ATOM     25  C   UNL     1      -0.049  10.633  18.557  0.00  0.00    +0.000 A 
ATOM     26  C   UNL     1      -0.556  10.616  19.874  0.00  0.00    +0.000 A 
ATOM     27  C   UNL     1       0.010   9.687  20.763  0.00  0.00    +0.000 A 
BRANCH  22  28
ATOM     28  O   UNL     1       1.615   8.061  21.327  0.00  0.00    +0.000 OA
ATOM     29  H   UNL     1       0.894   7.561  21.742  0.00  0.00    +0.000 HD
ENDBRANCH  22  28
ENDBRANCH   1  26
TORSDOF 2
ENDMDL
