MODEL 1
REMARK VINA RESULT:      -8.9      0.000      0.000
REMARK  Name = 
REMARK  12 active torsions:
REMARK  status: ('A' for Active; 'I' for Inactive)
REMARK    1  A    between atoms: C_1  and  C_2
REMARK    2  A    between atoms: C_2  and  C_3
REMARK    3  A    between atoms: C_8  and  N_9
REMARK    4  A    between atoms: C_10  and  C_12
REMARK    5  A    between atoms: C_12  and  C_13
REMARK    6  A    between atoms: N_22  and  C_23
REMARK    7  A    between atoms: C_23  and  C_24
REMARK    8  A    between atoms: C_24  and  C_25
REMARK    9  A    between atoms: C_28  and  O_29
REMARK   10  A    between atoms: O_29  and  C_30
REMARK   11  A    between atoms: C_31  and  O_32
REMARK   12  A    between atoms: O_32  and  C_33
REMARK                            x       y       z     vdW  Elec       q    Type
REMARK                         _______ _______ _______ _____ _____    ______ ____
ROOT
ATOM      1  C   UNL     1       2.242   5.284  19.817  0.00  0.00    +0.000 C 
ATOM      2  O   UNL     1       3.593   4.850  19.737  0.00  0.00    +0.000 OA
ATOM      3  C   UNL     1       4.014   4.836  18.437  0.00  0.00    +0.000 A 
ATOM      4  C   UNL     1       4.293   3.605  17.867  0.00  0.00    +0.000 A 
ATOM      5  C   UNL     1       4.788   3.543  16.565  0.00  0.00    +0.000 A 
ATOM      6  C   UNL     1       5.038   4.705  15.829  0.00  0.00    +0.000 A 
ATOM      7  C   UNL     1       4.745   5.950  16.421  0.00  0.00    +0.000 A 
ATOM      8  C   UNL     1       4.220   6.025  17.731  0.00  0.00    +0.000 A 
ATOM      9  C   UNL     1       3.979   7.327  18.439  0.00  0.00    +0.000 C 
ATOM     10  N   UNL     1       2.597   7.567  18.867  0.00  0.00    +0.000 N 
ATOM     11  C   UNL     1       2.031   6.816  19.903  0.00  0.00    +0.000 C 
ATOM     12  O   UNL     1       1.254   7.317  20.717  0.00  0.00    +0.000 OA
ENDROOT
BRANCH   6  13
ATOM     13  N   UNL     1       5.598   4.674  14.525  0.00  0.00    +0.000 N 
ATOM     14  C   UNL     1       6.924   4.939  14.189  0.00  0.00    +0.000 C 
ATOM     15  O   UNL     1       7.831   5.216  14.976  0.00  0.00    +0.000 OA
ATOM     16  H   UNL     1       4.960   4.482  13.762  0.00  0.00    +0.000 HD
BRANCH  14  17
ATOM     17  C   UNL     1       7.229   4.872  12.699  0.00  0.00    +0.000 C 
BRANCH  17  18
ATOM     18  C   UNL     1       6.719   3.604  12.058  0.00  0.00    +0.000 A 
ATOM     19  C   UNL     1       5.340   3.369  11.931  0.00  0.00    +0.000 A 
ATOM     20  C   UNL     1       4.871   2.168  11.394  0.00  0.00    +0.000 A 
ATOM     21  C   UNL     1       5.773   1.199  10.963  0.00  0.00    +0.000 A 
ATOM     22  C   UNL     1       7.144   1.441  11.042  0.00  0.00    +0.000 A 
ATOM     23  C   UNL     1       7.616   2.640  11.579  0.00  0.00    +0.000 A 
ENDBRANCH  17  18
ENDBRANCH  14  17
ENDBRANCH   6  13
BRANCH   1  25
ATOM     24  C   UNL     1       2.244   3.241  21.404  0.00  0.00    +0.000 C 
ATOM     25  C   UNL     1       1.548   4.519  20.960  0.00  0.00    +0.000 C 
ENDBRANCH   1  25
BRANCH  10  26
ATOM     26  C   UNL     1       1.724   8.355  17.985  0.00  0.00    +0.000 C 
BRANCH  26  27
ATOM     27  C   UNL     1       1.488   9.824  18.389  0.00  0.00    +0.000 C 
BRANCH  27  28
ATOM     28  C   UNL     1       0.035  10.243  18.335  0.00  0.00    +0.000 A 
ATOM     29  C   UNL     1      -0.846   9.629  17.437  0.00  0.00    +0.000 A 
ATOM     30  C   UNL     1      -2.192  10.004  17.386  0.00  0.00    +0.000 A 
ATOM     31  C   UNL     1      -2.679  11.011  18.223  0.00  0.00    +0.000 A 
ATOM     32  C   UNL     1      -1.808  11.621  19.149  0.00  0.00    +0.000 A 
ATOM     33  C   UNL     1      -0.466  11.220  19.207  0.00  0.00    +0.000 A 
BRANCH  31  34
ATOM     34  O   UNL     1      -3.974  11.467  18.218  0.00  0.00    +0.000 OA
ATOM     35  C   UNL     1      -4.625  11.592  16.962  0.00  0.00    +0.000 C 
ENDBRANCH  31  34
BRANCH  32  36
ATOM     36  O   UNL     1      -2.357  12.596  19.944  0.00  0.00    +0.000 OA
ATOM     37  C   UNL     1      -2.069  12.552  21.334  0.00  0.00    +0.000 C 
ENDBRANCH  32  36
ENDBRANCH  27  28
ENDBRANCH  26  27
ENDBRANCH  10  26
TORSDOF 9
ENDMDL
MODEL 2
REMARK VINA RESULT:      -8.7      0.694      1.889
REMARK  Name = 
REMARK  12 active torsions:
REMARK  status: ('A' for Active; 'I' for Inactive)
REMARK    1  A    between atoms: C_1  and  C_2
REMARK    2  A    between atoms: C_2  and  C_3
REMARK    3  A    between atoms: C_8  and  N_9
REMARK    4  A    between atoms: C_10  and  C_12
REMARK    5  A    between atoms: C_12  and  C_13
REMARK    6  A    between atoms: N_22  and  C_23
REMARK    7  A    between atoms: C_23  and  C_24
REMARK    8  A    between atoms: C_24  and  C_25
REMARK    9  A    between atoms: C_28  and  O_29
REMARK   10  A    between atoms: O_29  and  C_30
REMARK   11  A    between atoms: C_31  and  O_32
REMARK   12  A    between atoms: O_32  and  C_33
REMARK                            x       y       z     vdW  Elec       q    Type
REMARK                         _______ _______ _______ _____ _____    ______ ____
ROOT
ATOM      1  C   UNL     1       2.483   5.288  19.848  0.00  0.00    +0.000 C 
ATOM      2  O   UNL     1       3.856   4.935  19.746  0.00  0.00    +0.000 OA
ATOM      3  C   UNL     1       4.237   4.876  18.434  0.00  0.00    +0.000 A 
ATOM      4  C   UNL     1       4.577   3.635  17.921  0.00  0.00    +0.000 A 
ATOM      5  C   UNL     1       5.036   3.533  16.609  0.00  0.00    +0.000 A 
ATOM      6  C   UNL     1       5.188   4.666  15.804  0.00  0.00    +0.000 A 
ATOM      7  C   UNL     1       4.835   5.921  16.339  0.00  0.00    +0.000 A 
ATOM      8  C   UNL     1       4.345   6.035  17.661  0.00  0.00    +0.000 A 
ATOM      9  C   UNL     1       4.043   7.357  18.307  0.00  0.00    +0.000 C 
ATOM     10  N   UNL     1       2.662   7.533  18.767  0.00  0.00    +0.000 N 
ATOM     11  C   UNL     1       2.176   6.806  19.859  0.00  0.00    +0.000 C 
ATOM     12  O   UNL     1       1.394   7.302  20.672  0.00  0.00    +0.000 OA
ENDROOT
BRANCH   6  13
ATOM     13  N   UNL     1       5.710   4.599  14.486  0.00  0.00    +0.000 N 
ATOM     14  C   UNL     1       6.971   5.023  14.073  0.00  0.00    +0.000 C 
ATOM     15  O   UNL     1       7.848   5.501  14.795  0.00  0.00    +0.000 OA
ATOM     16  H   UNL     1       5.087   4.246  13.769  0.00  0.00    +0.000 HD
BRANCH  14  17
ATOM     17  C   UNL     1       7.240   4.866  12.584  0.00  0.00    +0.000 C 
BRANCH  17  18
ATOM     18  C   UNL     1       6.696   3.572  12.028  0.00  0.00    +0.000 A 
ATOM     19  C   UNL     1       7.563   2.544  11.624  0.00  0.00    +0.000 A 
ATOM     20  C   UNL     1       7.059   1.374  11.053  0.00  0.00    +0.000 A 
ATOM     21  C   UNL     1       5.685   1.211  10.896  0.00  0.00    +0.000 A 
ATOM     22  C   UNL     1       4.813   2.206  11.336  0.00  0.00    +0.000 A 
ATOM     23  C   UNL     1       5.314   3.377  11.907  0.00  0.00    +0.000 A 
ENDBRANCH  17  18
ENDBRANCH  14  17
ENDBRANCH   6  13
BRANCH   1  25
ATOM     24  C   UNL     1       1.382   3.134  20.765  0.00  0.00    +0.000 C 
ATOM     25  C   UNL     1       1.873   4.545  21.052  0.00  0.00    +0.000 C 
ENDBRANCH   1  25
BRANCH  10  26
ATOM     26  C   UNL     1       1.715   8.216  17.874  0.00  0.00    +0.000 C 
BRANCH  26  27
ATOM     27  C   UNL     1       1.759   9.757  17.878  0.00  0.00    +0.000 C 
BRANCH  27  28
ATOM     28  C   UNL     1       0.708  10.392  18.763  0.00  0.00    +0.000 A 
ATOM     29  C   UNL     1       0.984  10.661  20.108  0.00  0.00    +0.000 A 
ATOM     30  C   UNL     1       0.022  11.257  20.930  0.00  0.00    +0.000 A 
ATOM     31  C   UNL     1      -1.240  11.581  20.424  0.00  0.00    +0.000 A 
ATOM     32  C   UNL     1      -1.522  11.337  19.065  0.00  0.00    +0.000 A 
ATOM     33  C   UNL     1      -0.541  10.762  18.245  0.00  0.00    +0.000 A 
BRANCH  31  34
ATOM     34  O   UNL     1      -2.255  12.134  21.164  0.00  0.00    +0.000 OA
ATOM     35  C   UNL     1      -2.132  13.499  21.538  0.00  0.00    +0.000 C 
ENDBRANCH  31  34
BRANCH  32  36
ATOM     36  O   UNL     1      -2.778  11.688  18.635  0.00  0.00    +0.000 OA
ATOM     37  C   UNL     1      -3.488  10.748  17.840  0.00  0.00    +0.000 C 
ENDBRANCH  32  36
ENDBRANCH  27  28
ENDBRANCH  26  27
ENDBRANCH  10  26
TORSDOF 9
ENDMDL
MODEL 3
REMARK VINA RESULT:      -8.5      1.890      2.419
REMARK  Name = 
REMARK  12 active torsions:
REMARK  status: ('A' for Active; 'I' for Inactive)
REMARK    1  A    between atoms: C_1  and  C_2
REMARK    2  A    between atoms: C_2  and  C_3
REMARK    3  A    between atoms: C_8  and  N_9
REMARK    4  A    between atoms: C_10  and  C_12
REMARK    5  A    between atoms: C_12  and  C_13
REMARK    6  A    between atoms: N_22  and  C_23
REMARK    7  A    between atoms: C_23  and  C_24
REMARK    8  A    between atoms: C_24  and  C_25
REMARK    9  A    between atoms: C_28  and  O_29
REMARK   10  A    between atoms: O_29  and  C_30
REMARK   11  A    between atoms: C_31  and  O_32
REMARK   12  A    between atoms: O_32  and  C_33
REMARK                            x       y       z     vdW  Elec       q    Type
REMARK                         _______ _______ _______ _____ _____    ______ ____
ROOT
ATOM      1  C   UNL     1       2.464   5.278  19.958  0.00  0.00    +0.000 C 
ATOM      2  O   UNL     1       3.848   4.985  19.822  0.00  0.00    +0.000 OA
ATOM      3  C   UNL     1       4.202   4.953  18.502  0.00  0.00    +0.000 A 
ATOM      4  C   UNL     1       4.582   3.732  17.970  0.00  0.00    +0.000 A 
ATOM      5  C   UNL     1       5.015   3.661  16.647  0.00  0.00    +0.000 A 
ATOM      6  C   UNL     1       5.101   4.805  15.849  0.00  0.00    +0.000 A 
ATOM      7  C   UNL     1       4.707   6.040  16.404  0.00  0.00    +0.000 A 
ATOM      8  C   UNL     1       4.243   6.122  17.737  0.00  0.00    +0.000 A 
ATOM      9  C   UNL     1       3.901   7.424  18.401  0.00  0.00    +0.000 C 
ATOM     10  N   UNL     1       2.524   7.538  18.894  0.00  0.00    +0.000 N 
ATOM     11  C   UNL     1       2.094   6.782  19.990  0.00  0.00    +0.000 C 
ATOM     12  O   UNL     1       1.310   7.238  20.824  0.00  0.00    +0.000 OA
ENDROOT
BRANCH   6  13
ATOM     13  N   UNL     1       5.595   4.771  14.520  0.00  0.00    +0.000 N 
ATOM     14  C   UNL     1       6.925   4.909  14.128  0.00  0.00    +0.000 C 
ATOM     15  O   UNL     1       7.891   5.056  14.879  0.00  0.00    +0.000 OA
ATOM     16  H   UNL     1       4.907   4.679  13.782  0.00  0.00    +0.000 HD
BRANCH  14  17
ATOM     17  C   UNL     1       7.153   4.873  12.624  0.00  0.00    +0.000 C 
BRANCH  17  18
ATOM     18  C   UNL     1       6.681   3.585  11.995  0.00  0.00    +0.000 A 
ATOM     19  C   UNL     1       5.310   3.299  11.887  0.00  0.00    +0.000 A 
ATOM     20  C   UNL     1       4.878   2.081  11.362  0.00  0.00    +0.000 A 
ATOM     21  C   UNL     1       5.808   1.143  10.922  0.00  0.00    +0.000 A 
ATOM     22  C   UNL     1       7.171   1.435  10.981  0.00  0.00    +0.000 A 
ATOM     23  C   UNL     1       7.606   2.652  11.507  0.00  0.00    +0.000 A 
ENDBRANCH  17  18
ENDBRANCH  14  17
ENDBRANCH   6  13
BRANCH   1  25
ATOM     24  C   UNL     1       1.406   3.099  20.865  0.00  0.00    +0.000 C 
ATOM     25  C   UNL     1       1.914   4.501  21.169  0.00  0.00    +0.000 C 
ENDBRANCH   1  25
BRANCH  10  26
ATOM     26  C   UNL     1       1.528   8.187  18.029  0.00  0.00    +0.000 C 
BRANCH  26  27
ATOM     27  C   UNL     1       1.838   9.633  17.593  0.00  0.00    +0.000 C 
BRANCH  27  28
ATOM     28  C   UNL     1       1.551  10.664  18.663  0.00  0.00    +0.000 A 
ATOM     29  C   UNL     1       2.142  11.931  18.602  0.00  0.00    +0.000 A 
ATOM     30  C   UNL     1       1.875  12.893  19.582  0.00  0.00    +0.000 A 
ATOM     31  C   UNL     1       1.021  12.600  20.648  0.00  0.00    +0.000 A 
ATOM     32  C   UNL     1       0.400  11.336  20.708  0.00  0.00    +0.000 A 
ATOM     33  C   UNL     1       0.658  10.388  19.708  0.00  0.00    +0.000 A 
BRANCH  31  34
ATOM     34  O   UNL     1       0.730  13.468  21.671  0.00  0.00    +0.000 OA
ATOM     35  C   UNL     1       1.479  14.672  21.750  0.00  0.00    +0.000 C 
ENDBRANCH  31  34
BRANCH  32  36
ATOM     36  O   UNL     1      -0.431  11.120  21.780  0.00  0.00    +0.000 OA
ATOM     37  C   UNL     1      -0.334   9.870  22.447  0.00  0.00    +0.000 C 
ENDBRANCH  32  36
ENDBRANCH  27  28
ENDBRANCH  26  27
ENDBRANCH  10  26
TORSDOF 9
ENDMDL
MODEL 4
REMARK VINA RESULT:      -8.4      1.507      2.055
REMARK  Name = 
REMARK  12 active torsions:
REMARK  status: ('A' for Active; 'I' for Inactive)
REMARK    1  A    between atoms: C_1  and  C_2
REMARK    2  A    between atoms: C_2  and  C_3
REMARK    3  A    between atoms: C_8  and  N_9
REMARK    4  A    between atoms: C_10  and  C_12
REMARK    5  A    between atoms: C_12  and  C_13
REMARK    6  A    between atoms: N_22  and  C_23
REMARK    7  A    between atoms: C_23  and  C_24
REMARK    8  A    between atoms: C_24  and  C_25
REMARK    9  A    between atoms: C_28  and  O_29
REMARK   10  A    between atoms: O_29  and  C_30
REMARK   11  A    between atoms: C_31  and  O_32
REMARK   12  A    between atoms: O_32  and  C_33
REMARK                            x       y       z     vdW  Elec       q    Type
REMARK                         _______ _______ _______ _____ _____    ______ ____
ROOT
ATOM      1  C   UNL     1       2.512   5.223  19.950  0.00  0.00    +0.000 C 
ATOM      2  O   UNL     1       3.886   4.885  19.814  0.00  0.00    +0.000 OA
ATOM      3  C   UNL     1       4.240   4.849  18.494  0.00  0.00    +0.000 A 
ATOM      4  C   UNL     1       4.579   3.620  17.955  0.00  0.00    +0.000 A 
ATOM      5  C   UNL     1       5.012   3.542  16.632  0.00  0.00    +0.000 A 
ATOM      6  C   UNL     1       5.137   4.688  15.842  0.00  0.00    +0.000 A 
ATOM      7  C   UNL     1       4.784   5.932  16.403  0.00  0.00    +0.000 A 
ATOM      8  C   UNL     1       4.321   6.021  17.736  0.00  0.00    +0.000 A 
ATOM      9  C   UNL     1       4.021   7.330  18.409  0.00  0.00    +0.000 C 
ATOM     10  N   UNL     1       2.649   7.486  18.900  0.00  0.00    +0.000 N 
ATOM     11  C   UNL     1       2.192   6.738  19.991  0.00  0.00    +0.000 C 
ATOM     12  O   UNL     1       1.423   7.215  20.827  0.00  0.00    +0.000 OA
ENDROOT
BRANCH   6  13
ATOM     13  N   UNL     1       5.632   4.646  14.512  0.00  0.00    +0.000 N 
ATOM     14  C   UNL     1       6.920   4.977  14.098  0.00  0.00    +0.000 C 
ATOM     15  O   UNL     1       7.847   5.335  14.827  0.00  0.00    +0.000 OA
ATOM     16  H   UNL     1       4.969   4.389  13.790  0.00  0.00    +0.000 HD
BRANCH  14  17
ATOM     17  C   UNL     1       7.152   4.876  12.598  0.00  0.00    +0.000 C 
BRANCH  17  18
ATOM     18  C   UNL     1       6.686   3.561  12.024  0.00  0.00    +0.000 A 
ATOM     19  C   UNL     1       7.613   2.590  11.610  0.00  0.00    +0.000 A 
ATOM     20  C   UNL     1       7.180   1.400  11.022  0.00  0.00    +0.000 A 
ATOM     21  C   UNL     1       5.819   1.159  10.859  0.00  0.00    +0.000 A 
ATOM     22  C   UNL     1       4.888   2.095  11.308  0.00  0.00    +0.000 A 
ATOM     23  C   UNL     1       5.318   3.286  11.895  0.00  0.00    +0.000 A 
ENDBRANCH  17  18
ENDBRANCH  14  17
ENDBRANCH   6  13
BRANCH   1  25
ATOM     24  C   UNL     1       1.150   3.199  20.811  0.00  0.00    +0.000 C 
ATOM     25  C   UNL     1       1.934   4.457  21.156  0.00  0.00    +0.000 C 
ENDBRANCH   1  25
BRANCH  10  26
ATOM     26  C   UNL     1       1.676   8.174  18.038  0.00  0.00    +0.000 C 
BRANCH  26  27
ATOM     27  C   UNL     1       1.931   9.671  17.777  0.00  0.00    +0.000 C 
BRANCH  27  28
ATOM     28  C   UNL     1       1.134  10.589  18.678  0.00  0.00    +0.000 A 
ATOM     29  C   UNL     1       0.111  10.077  19.484  0.00  0.00    +0.000 A 
ATOM     30  C   UNL     1      -0.625  10.917  20.326  0.00  0.00    +0.000 A 
ATOM     31  C   UNL     1      -0.360  12.288  20.367  0.00  0.00    +0.000 A 
ATOM     32  C   UNL     1       0.684  12.814  19.578  0.00  0.00    +0.000 A 
ATOM     33  C   UNL     1       1.430  11.958  18.755  0.00  0.00    +0.000 A 
BRANCH  31  34
ATOM     34  O   UNL     1      -1.052  13.191  21.135  0.00  0.00    +0.000 OA
ATOM     35  C   UNL     1      -2.236  13.754  20.587  0.00  0.00    +0.000 C 
ENDBRANCH  31  34
BRANCH  32  36
ATOM     36  O   UNL     1       0.893  14.167  19.673  0.00  0.00    +0.000 OA
ATOM     37  C   UNL     1       1.899  14.738  18.850  0.00  0.00    +0.000 C 
ENDBRANCH  32  36
ENDBRANCH  27  28
ENDBRANCH  26  27
ENDBRANCH  10  26
TORSDOF 9
ENDMDL
MODEL 5
REMARK VINA RESULT:      -8.4      1.627      1.839
REMARK  Name = 
REMARK  12 active torsions:
REMARK  status: ('A' for Active; 'I' for Inactive)
REMARK    1  A    between atoms: C_1  and  C_2
REMARK    2  A    between atoms: C_2  and  C_3
REMARK    3  A    between atoms: C_8  and  N_9
REMARK    4  A    between atoms: C_10  and  C_12
REMARK    5  A    between atoms: C_12  and  C_13
REMARK    6  A    between atoms: N_22  and  C_23
REMARK    7  A    between atoms: C_23  and  C_24
REMARK    8  A    between atoms: C_24  and  C_25
REMARK    9  A    between atoms: C_28  and  O_29
REMARK   10  A    between atoms: O_29  and  C_30
REMARK   11  A    between atoms: C_31  and  O_32
REMARK   12  A    between atoms: O_32  and  C_33
REMARK                            x       y       z     vdW  Elec       q    Type
REMARK                         _______ _______ _______ _____ _____    ______ ____
ROOT
ATOM      1  C   UNL     1       2.174   4.740  19.853  0.00  0.00    +0.000 C 
ATOM      2  O   UNL     1       3.525   4.305  19.783  0.00  0.00    +0.000 OA
ATOM      3  C   UNL     1       3.979   4.363  18.495  0.00  0.00    +0.000 A 
ATOM      4  C   UNL     1       4.268   3.166  17.862  0.00  0.00    +0.000 A 
ATOM      5  C   UNL     1       4.797   3.177  16.573  0.00  0.00    +0.000 A 
ATOM      6  C   UNL     1       5.070   4.378  15.911  0.00  0.00    +0.000 A 
ATOM      7  C   UNL     1       4.767   5.589  16.567  0.00  0.00    +0.000 A 
ATOM      8  C   UNL     1       4.207   5.590  17.865  0.00  0.00    +0.000 A 
ATOM      9  C   UNL     1       3.953   6.851  18.641  0.00  0.00    +0.000 C 
ATOM     10  N   UNL     1       2.561   7.072  19.045  0.00  0.00    +0.000 N 
ATOM     11  C   UNL     1       1.965   6.266  20.021  0.00  0.00    +0.000 C 
ATOM     12  O   UNL     1       1.169   6.723  20.843  0.00  0.00    +0.000 OA
ENDROOT
BRANCH   6  13
ATOM     13  N   UNL     1       5.664   4.420  14.623  0.00  0.00    +0.000 N 
ATOM     14  C   UNL     1       6.905   4.964  14.302  0.00  0.00    +0.000 C 
ATOM     15  O   UNL     1       7.700   5.475  15.094  0.00  0.00    +0.000 OA
ATOM     16  H   UNL     1       5.111   4.054  13.857  0.00  0.00    +0.000 HD
BRANCH  14  17
ATOM     17  C   UNL     1       7.265   4.905  12.825  0.00  0.00    +0.000 C 
BRANCH  17  18
ATOM     18  C   UNL     1       6.733   3.665  12.147  0.00  0.00    +0.000 A 
ATOM     19  C   UNL     1       5.351   3.464  12.003  0.00  0.00    +0.000 A 
ATOM     20  C   UNL     1       4.860   2.288  11.432  0.00  0.00    +0.000 A 
ATOM     21  C   UNL     1       5.744   1.311  10.982  0.00  0.00    +0.000 A 
ATOM     22  C   UNL     1       7.120   1.521  11.078  0.00  0.00    +0.000 A 
ATOM     23  C   UNL     1       7.613   2.694  11.650  0.00  0.00    +0.000 A 
ENDBRANCH  17  18
ENDBRANCH  14  17
ENDBRANCH   6  13
BRANCH   1  25
ATOM     24  C   UNL     1       2.275   2.811  21.574  0.00  0.00    +0.000 C 
ATOM     25  C   UNL     1       1.447   3.914  20.932  0.00  0.00    +0.000 C 
ENDBRANCH   1  25
BRANCH  10  26
ATOM     26  C   UNL     1       1.714   7.914  18.188  0.00  0.00    +0.000 C 
BRANCH  26  27
ATOM     27  C   UNL     1       2.076   9.411  18.127  0.00  0.00    +0.000 C 
BRANCH  27  28
ATOM     28  C   UNL     1       1.226  10.279  19.030  0.00  0.00    +0.000 A 
ATOM     29  C   UNL     1       0.360   9.696  19.962  0.00  0.00    +0.000 A 
ATOM     30  C   UNL     1      -0.422  10.491  20.806  0.00  0.00    +0.000 A 
ATOM     31  C   UNL     1      -0.361  11.884  20.724  0.00  0.00    +0.000 A 
ATOM     32  C   UNL     1       0.525  12.484  19.807  0.00  0.00    +0.000 A 
ATOM     33  C   UNL     1       1.321  11.677  18.982  0.00  0.00    +0.000 A 
BRANCH  31  34
ATOM     34  O   UNL     1      -1.116  12.741  21.487  0.00  0.00    +0.000 OA
ATOM     35  C   UNL     1      -2.516  12.777  21.250  0.00  0.00    +0.000 C 
ENDBRANCH  31  34
BRANCH  32  36
ATOM     36  O   UNL     1       0.537  13.857  19.786  0.00  0.00    +0.000 OA
ATOM     37  C   UNL     1      -0.029  14.503  18.655  0.00  0.00    +0.000 C 
ENDBRANCH  32  36
ENDBRANCH  27  28
ENDBRANCH  26  27
ENDBRANCH  10  26
TORSDOF 9
ENDMDL
MODEL 6
REMARK VINA RESULT:      -8.1      4.216      9.377
REMARK  Name = 
REMARK  12 active torsions:
REMARK  status: ('A' for Active; 'I' for Inactive)
REMARK    1  A    between atoms: C_1  and  C_2
REMARK    2  A    between atoms: C_2  and  C_3
REMARK    3  A    between atoms: C_8  and  N_9
REMARK    4  A    between atoms: C_10  and  C_12
REMARK    5  A    between atoms: C_12  and  C_13
REMARK    6  A    between atoms: N_22  and  C_23
REMARK    7  A    between atoms: C_23  and  C_24
REMARK    8  A    between atoms: C_24  and  C_25
REMARK    9  A    between atoms: C_28  and  O_29
REMARK   10  A    between atoms: O_29  and  C_30
REMARK   11  A    between atoms: C_31  and  O_32
REMARK   12  A    between atoms: O_32  and  C_33
REMARK                            x       y       z     vdW  Elec       q    Type
REMARK                         _______ _______ _______ _____ _____    ______ ____
ROOT
ATOM      1  C   UNL     1       5.362   4.495  18.817  0.00  0.00    +0.000 C 
ATOM      2  O   UNL     1       4.254   4.515  17.926  0.00  0.00    +0.000 OA
ATOM      3  C   UNL     1       3.651   5.741  17.941  0.00  0.00    +0.000 A 
ATOM      4  C   UNL     1       2.370   5.819  18.461  0.00  0.00    +0.000 A 
ATOM      5  C   UNL     1       1.688   7.034  18.437  0.00  0.00    +0.000 A 
ATOM      6  C   UNL     1       2.261   8.177  17.871  0.00  0.00    +0.000 A 
ATOM      7  C   UNL     1       3.568   8.083  17.348  0.00  0.00    +0.000 A 
ATOM      8  C   UNL     1       4.279   6.861  17.389  0.00  0.00    +0.000 A 
ATOM      9  C   UNL     1       5.633   6.687  16.764  0.00  0.00    +0.000 C 
ATOM     10  N   UNL     1       6.701   6.271  17.679  0.00  0.00    +0.000 N 
ATOM     11  C   UNL     1       6.709   4.984  18.228  0.00  0.00    +0.000 C 
ATOM     12  O   UNL     1       7.757   4.362  18.407  0.00  0.00    +0.000 OA
ENDROOT
BRANCH   6  13
ATOM     13  N   UNL     1       1.567   9.411  17.778  0.00  0.00    +0.000 N 
ATOM     14  C   UNL     1       0.839  10.028  18.793  0.00  0.00    +0.000 C 
ATOM     15  O   UNL     1       0.703   9.612  19.945  0.00  0.00    +0.000 OA
ATOM     16  H   UNL     1       1.569   9.865  16.872  0.00  0.00    +0.000 HD
BRANCH  14  17
ATOM     17  C   UNL     1       0.163  11.331  18.390  0.00  0.00    +0.000 C 
BRANCH  17  18
ATOM     18  C   UNL     1      -1.323  11.174  18.180  0.00  0.00    +0.000 A 
ATOM     19  C   UNL     1      -2.235  11.983  18.876  0.00  0.00    +0.000 A 
ATOM     20  C   UNL     1      -3.610  11.794  18.727  0.00  0.00    +0.000 A 
ATOM     21  C   UNL     1      -4.088  10.808  17.868  0.00  0.00    +0.000 A 
ATOM     22  C   UNL     1      -3.192  10.029  17.136  0.00  0.00    +0.000 A 
ATOM     23  C   UNL     1      -1.817  10.216  17.285  0.00  0.00    +0.000 A 
ENDBRANCH  17  18
ENDBRANCH  14  17
ENDBRANCH   6  13
BRANCH   1  25
ATOM     24  C   UNL     1       4.161   2.299  19.471  0.00  0.00    +0.000 C 
ATOM     25  C   UNL     1       5.459   3.094  19.449  0.00  0.00    +0.000 C 
ENDBRANCH   1  25
BRANCH  10  26
ATOM     26  C   UNL     1       7.558   7.312  18.266  0.00  0.00    +0.000 C 
BRANCH  26  27
ATOM     27  C   UNL     1       7.866   8.529  17.372  0.00  0.00    +0.000 C 
BRANCH  27  28
ATOM     28  C   UNL     1       8.443   9.707  18.128  0.00  0.00    +0.000 A 
ATOM     29  C   UNL     1       9.131   9.508  19.330  0.00  0.00    +0.000 A 
ATOM     30  C   UNL     1       9.675  10.590  20.031  0.00  0.00    +0.000 A 
ATOM     31  C   UNL     1       9.527  11.892  19.548  0.00  0.00    +0.000 A 
ATOM     32  C   UNL     1       8.857  12.104  18.326  0.00  0.00    +0.000 A 
ATOM     33  C   UNL     1       8.337  11.010  17.621  0.00  0.00    +0.000 A 
BRANCH  31  34
ATOM     34  O   UNL     1       9.996  13.015  20.184  0.00  0.00    +0.000 OA
ATOM     35  C   UNL     1       9.367  13.397  21.399  0.00  0.00    +0.000 C 
ENDBRANCH  31  34
BRANCH  32  36
ATOM     36  O   UNL     1       8.756  13.409  17.909  0.00  0.00    +0.000 OA
ATOM     37  C   UNL     1       7.453  13.935  17.703  0.00  0.00    +0.000 C 
ENDBRANCH  32  36
ENDBRANCH  27  28
ENDBRANCH  26  27
ENDBRANCH  10  26
TORSDOF 9
ENDMDL
MODEL 7
REMARK VINA RESULT:      -8.0      3.524      6.484
REMARK  Name = 
REMARK  12 active torsions:
REMARK  status: ('A' for Active; 'I' for Inactive)
REMARK    1  A    between atoms: C_1  and  C_2
REMARK    2  A    between atoms: C_2  and  C_3
REMARK    3  A    between atoms: C_8  and  N_9
REMARK    4  A    between atoms: C_10  and  C_12
REMARK    5  A    between atoms: C_12  and  C_13
REMARK    6  A    between atoms: N_22  and  C_23
REMARK    7  A    between atoms: C_23  and  C_24
REMARK    8  A    between atoms: C_24  and  C_25
REMARK    9  A    between atoms: C_28  and  O_29
REMARK   10  A    between atoms: O_29  and  C_30
REMARK   11  A    between atoms: C_31  and  O_32
REMARK   12  A    between atoms: O_32  and  C_33
REMARK                            x       y       z     vdW  Elec       q    Type
REMARK                         _______ _______ _______ _____ _____    ______ ____
ROOT
ATOM      1  C   UNL     1      -1.315  11.477  21.065  0.00  0.00    +0.000 C 
ATOM      2  O   UNL     1       0.041  11.391  21.482  0.00  0.00    +0.000 OA
ATOM      3  C   UNL     1       0.598  10.218  21.056  0.00  0.00    +0.000 A 
ATOM      4  C   UNL     1       0.947   9.287  22.020  0.00  0.00    +0.000 A 
ATOM      5  C   UNL     1       1.579   8.104  21.641  0.00  0.00    +0.000 A 
ATOM      6  C   UNL     1       1.894   7.847  20.303  0.00  0.00    +0.000 A 
ATOM      7  C   UNL     1       1.529   8.802  19.333  0.00  0.00    +0.000 A 
ATOM      8  C   UNL     1       0.866   9.996  19.703  0.00  0.00    +0.000 A 
ATOM      9  C   UNL     1       0.540  11.083  18.720  0.00  0.00    +0.000 C 
ATOM     10  N   UNL     1      -0.882  11.423  18.605  0.00  0.00    +0.000 N 
ATOM     11  C   UNL     1      -1.549  12.068  19.652  0.00  0.00    +0.000 C 
ATOM     12  O   UNL     1      -2.412  12.922  19.442  0.00  0.00    +0.000 OA
ENDROOT
BRANCH   6  13
ATOM     13  N   UNL     1       2.591   6.680  19.896  0.00  0.00    +0.000 N 
ATOM     14  C   UNL     1       2.155   5.365  20.040  0.00  0.00    +0.000 C 
ATOM     15  O   UNL     1       1.079   5.005  20.522  0.00  0.00    +0.000 OA
ATOM     16  H   UNL     1       3.513   6.817  19.500  0.00  0.00    +0.000 HD
BRANCH  14  17
ATOM     17  C   UNL     1       3.136   4.311  19.547  0.00  0.00    +0.000 C 
BRANCH  17  18
ATOM     18  C   UNL     1       4.225   4.892  18.679  0.00  0.00    +0.000 A 
ATOM     19  C   UNL     1       3.951   5.306  17.365  0.00  0.00    +0.000 A 
ATOM     20  C   UNL     1       4.973   5.785  16.544  0.00  0.00    +0.000 A 
ATOM     21  C   UNL     1       6.275   5.872  17.030  0.00  0.00    +0.000 A 
ATOM     22  C   UNL     1       6.550   5.506  18.347  0.00  0.00    +0.000 A 
ATOM     23  C   UNL     1       5.530   5.026  19.171  0.00  0.00    +0.000 A 
ENDBRANCH  17  18
ENDBRANCH  14  17
ENDBRANCH   6  13
BRANCH   1  25
ATOM     24  C   UNL     1      -1.287  12.939  23.199  0.00  0.00    +0.000 C 
ATOM     25  C   UNL     1      -2.120  12.205  22.158  0.00  0.00    +0.000 C 
ENDBRANCH   1  25
BRANCH  10  26
ATOM     26  C   UNL     1      -1.663  10.785  17.535  0.00  0.00    +0.000 C 
BRANCH  26  27
ATOM     27  C   UNL     1      -2.868   9.934  17.980  0.00  0.00    +0.000 C 
BRANCH  27  28
ATOM     28  C   UNL     1      -4.183  10.683  17.957  0.00  0.00    +0.000 A 
ATOM     29  C   UNL     1      -4.431  11.649  16.975  0.00  0.00    +0.000 A 
ATOM     30  C   UNL     1      -5.646  12.340  16.942  0.00  0.00    +0.000 A 
ATOM     31  C   UNL     1      -6.632  12.086  17.899  0.00  0.00    +0.000 A 
ATOM     32  C   UNL     1      -6.405  11.099  18.880  0.00  0.00    +0.000 A 
ATOM     33  C   UNL     1      -5.191  10.397  18.889  0.00  0.00    +0.000 A 
BRANCH  31  34
ATOM     34  O   UNL     1      -7.837  12.739  17.965  0.00  0.00    +0.000 OA
ATOM     35  C   UNL     1      -7.861  14.119  17.628  0.00  0.00    +0.000 C 
ENDBRANCH  31  34
BRANCH  32  36
ATOM     36  O   UNL     1      -7.419  10.898  19.783  0.00  0.00    +0.000 OA
ATOM     37  C   UNL     1      -7.570   9.594  20.324  0.00  0.00    +0.000 C 
ENDBRANCH  32  36
ENDBRANCH  27  28
ENDBRANCH  26  27
ENDBRANCH  10  26
TORSDOF 9
ENDMDL
MODEL 8
REMARK VINA RESULT:      -7.9      4.140      6.744
REMARK  Name = 
REMARK  12 active torsions:
REMARK  status: ('A' for Active; 'I' for Inactive)
REMARK    1  A    between atoms: C_1  and  C_2
REMARK    2  A    between atoms: C_2  and  C_3
REMARK    3  A    between atoms: C_8  and  N_9
REMARK    4  A    between atoms: C_10  and  C_12
REMARK    5  A    between atoms: C_12  and  C_13
REMARK    6  A    between atoms: N_22  and  C_23
REMARK    7  A    between atoms: C_23  and  C_24
REMARK    8  A    between atoms: C_24  and  C_25
REMARK    9  A    between atoms: C_28  and  O_29
REMARK   10  A    between atoms: O_29  and  C_30
REMARK   11  A    between atoms: C_31  and  O_32
REMARK   12  A    between atoms: O_32  and  C_33
REMARK                            x       y       z     vdW  Elec       q    Type
REMARK                         _______ _______ _______ _____ _____    ______ ____
ROOT
ATOM      1  C   UNL     1      -0.646  12.301  21.426  0.00  0.00    +0.000 C 
ATOM      2  O   UNL     1       0.649  11.822  21.765  0.00  0.00    +0.000 OA
ATOM      3  C   UNL     1       0.893  10.627  21.147  0.00  0.00    +0.000 A 
ATOM      4  C   UNL     1       1.005   9.503  21.947  0.00  0.00    +0.000 A 
ATOM      5  C   UNL     1       1.320   8.274  21.369  0.00  0.00    +0.000 A 
ATOM      6  C   UNL     1       1.554   8.156  19.996  0.00  0.00    +0.000 A 
ATOM      7  C   UNL     1       1.432   9.309  19.194  0.00  0.00    +0.000 A 
ATOM      8  C   UNL     1       1.089  10.557  19.765  0.00  0.00    +0.000 A 
ATOM      9  C   UNL     1       1.038  11.830  18.969  0.00  0.00    +0.000 C 
ATOM     10  N   UNL     1      -0.256  12.520  18.968  0.00  0.00    +0.000 N 
ATOM     11  C   UNL     1      -0.734  13.141  20.127  0.00  0.00    +0.000 C 
ATOM     12  O   UNL     1      -1.359  14.202  20.084  0.00  0.00    +0.000 OA
ENDROOT
BRANCH   6  13
ATOM     13  N   UNL     1       1.935   6.931  19.391  0.00  0.00    +0.000 N 
ATOM     14  C   UNL     1       2.838   6.772  18.342  0.00  0.00    +0.000 C 
ATOM     15  O   UNL     1       3.473   7.672  17.789  0.00  0.00    +0.000 OA
ATOM     16  H   UNL     1       1.472   6.095  19.728  0.00  0.00    +0.000 HD
BRANCH  14  17
ATOM     17  C   UNL     1       3.019   5.338  17.868  0.00  0.00    +0.000 C 
BRANCH  17  18
ATOM     18  C   UNL     1       2.732   4.327  18.952  0.00  0.00    +0.000 A 
ATOM     19  C   UNL     1       1.430   4.162  19.453  0.00  0.00    +0.000 A 
ATOM     20  C   UNL     1       1.178   3.272  20.498  0.00  0.00    +0.000 A 
ATOM     21  C   UNL     1       2.219   2.523  21.041  0.00  0.00    +0.000 A 
ATOM     22  C   UNL     1       3.508   2.645  20.520  0.00  0.00    +0.000 A 
ATOM     23  C   UNL     1       3.762   3.535  19.476  0.00  0.00    +0.000 A 
ENDBRANCH  17  18
ENDBRANCH  14  17
ENDBRANCH   6  13
BRANCH   1  25
ATOM     24  C   UNL     1      -2.558  12.468  23.160  0.00  0.00    +0.000 C 
ATOM     25  C   UNL     1      -1.238  13.027  22.649  0.00  0.00    +0.000 C 
ENDBRANCH   1  25
BRANCH  10  26
ATOM     26  C   UNL     1      -1.178  12.266  17.852  0.00  0.00    +0.000 C 
BRANCH  26  27
ATOM     27  C   UNL     1      -2.181  11.111  18.040  0.00  0.00    +0.000 C 
BRANCH  27  28
ATOM     28  C   UNL     1      -3.611  11.572  18.219  0.00  0.00    +0.000 A 
ATOM     29  C   UNL     1      -4.522  11.482  17.160  0.00  0.00    +0.000 A 
ATOM     30  C   UNL     1      -5.848  11.898  17.321  0.00  0.00    +0.000 A 
ATOM     31  C   UNL     1      -6.283  12.424  18.540  0.00  0.00    +0.000 A 
ATOM     32  C   UNL     1      -5.382  12.498  19.621  0.00  0.00    +0.000 A 
ATOM     33  C   UNL     1      -4.062  12.057  19.455  0.00  0.00    +0.000 A 
BRANCH  31  34
ATOM     34  O   UNL     1      -7.553  12.888  18.776  0.00  0.00    +0.000 OA
ATOM     35  C   UNL     1      -7.914  14.142  18.215  0.00  0.00    +0.000 C 
ENDBRANCH  31  34
BRANCH  32  36
ATOM     36  O   UNL     1      -5.881  13.019  20.790  0.00  0.00    +0.000 OA
ATOM     37  C   UNL     1      -5.305  14.225  21.270  0.00  0.00    +0.000 C 
ENDBRANCH  32  36
ENDBRANCH  27  28
ENDBRANCH  26  27
ENDBRANCH  10  26
TORSDOF 9
ENDMDL
MODEL 9
REMARK VINA RESULT:      -7.9      0.894      1.362
REMARK  Name = 
REMARK  12 active torsions:
REMARK  status: ('A' for Active; 'I' for Inactive)
REMARK    1  A    between atoms: C_1  and  C_2
REMARK    2  A    between atoms: C_2  and  C_3
REMARK    3  A    between atoms: C_8  and  N_9
REMARK    4  A    between atoms: C_10  and  C_12
REMARK    5  A    between atoms: C_12  and  C_13
REMARK    6  A    between atoms: N_22  and  C_23
REMARK    7  A    between atoms: C_23  and  C_24
REMARK    8  A    between atoms: C_24  and  C_25
REMARK    9  A    between atoms: C_28  and  O_29
REMARK   10  A    between atoms: O_29  and  C_30
REMARK   11  A    between atoms: C_31  and  O_32
REMARK   12  A    between atoms: O_32  and  C_33
REMARK                            x       y       z     vdW  Elec       q    Type
REMARK                         _______ _______ _______ _____ _____    ______ ____
ROOT
ATOM      1  C   UNL     1       2.313   5.592  19.611  0.00  0.00    +0.000 C 
ATOM      2  O   UNL     1       3.602   4.997  19.555  0.00  0.00    +0.000 OA
ATOM      3  C   UNL     1       4.046   4.940  18.263  0.00  0.00    +0.000 A 
ATOM      4  C   UNL     1       4.185   3.688  17.688  0.00  0.00    +0.000 A 
ATOM      5  C   UNL     1       4.697   3.575  16.396  0.00  0.00    +0.000 A 
ATOM      6  C   UNL     1       5.103   4.702  15.676  0.00  0.00    +0.000 A 
ATOM      7  C   UNL     1       4.953   5.970  16.274  0.00  0.00    +0.000 A 
ATOM      8  C   UNL     1       4.411   6.099  17.574  0.00  0.00    +0.000 A 
ATOM      9  C   UNL     1       4.317   7.417  18.289  0.00  0.00    +0.000 C 
ATOM     10  N   UNL     1       2.966   7.821  18.690  0.00  0.00    +0.000 N 
ATOM     11  C   UNL     1       2.289   7.138  19.707  0.00  0.00    +0.000 C 
ATOM     12  O   UNL     1       1.562   7.726  20.510  0.00  0.00    +0.000 OA
ENDROOT
BRANCH   6  13
ATOM     13  N   UNL     1       5.684   4.612  14.384  0.00  0.00    +0.000 N 
ATOM     14  C   UNL     1       6.975   4.996  14.030  0.00  0.00    +0.000 C 
ATOM     15  O   UNL     1       7.831   5.451  14.790  0.00  0.00    +0.000 OA
ATOM     16  H   UNL     1       5.084   4.274  13.641  0.00  0.00    +0.000 HD
BRANCH  14  17
ATOM     17  C   UNL     1       7.309   4.822  12.556  0.00  0.00    +0.000 C 
BRANCH  17  18
ATOM     18  C   UNL     1       6.797   3.518  11.993  0.00  0.00    +0.000 A 
ATOM     19  C   UNL     1       7.689   2.533  11.539  0.00  0.00    +0.000 A 
ATOM     20  C   UNL     1       7.212   1.355  10.962  0.00  0.00    +0.000 A 
ATOM     21  C   UNL     1       5.841   1.140  10.850  0.00  0.00    +0.000 A 
ATOM     22  C   UNL     1       4.946   2.091  11.339  0.00  0.00    +0.000 A 
ATOM     23  C   UNL     1       5.420   3.270  11.915  0.00  0.00    +0.000 A 
ENDBRANCH  17  18
ENDBRANCH  14  17
ENDBRANCH   6  13
BRANCH   1  25
ATOM     24  C   UNL     1       1.171   3.446  20.494  0.00  0.00    +0.000 C 
ATOM     25  C   UNL     1       1.505   4.911  20.732  0.00  0.00    +0.000 C 
ENDBRANCH   1  25
BRANCH  10  26
ATOM     26  C   UNL     1       2.215   8.717  17.798  0.00  0.00    +0.000 C 
BRANCH  26  27
ATOM     27  C   UNL     1       0.697   8.473  17.700  0.00  0.00    +0.000 C 
BRANCH  27  28
ATOM     28  C   UNL     1      -0.138   9.623  18.219  0.00  0.00    +0.000 A 
ATOM     29  C   UNL     1      -1.214  10.112  17.470  0.00  0.00    +0.000 A 
ATOM     30  C   UNL     1      -1.996  11.169  17.947  0.00  0.00    +0.000 A 
ATOM     31  C   UNL     1      -1.706  11.766  19.176  0.00  0.00    +0.000 A 
ATOM     32  C   UNL     1      -0.640  11.268  19.952  0.00  0.00    +0.000 A 
ATOM     33  C   UNL     1       0.122  10.193  19.474  0.00  0.00    +0.000 A 
BRANCH  31  34
ATOM     34  O   UNL     1      -2.395  12.829  19.705  0.00  0.00    +0.000 OA
ATOM     35  C   UNL     1      -3.784  12.658  19.955  0.00  0.00    +0.000 C 
ENDBRANCH  31  34
BRANCH  32  36
ATOM     36  O   UNL     1      -0.417  11.898  21.151  0.00  0.00    +0.000 OA
ATOM     37  C   UNL     1      -0.733  11.185  22.338  0.00  0.00    +0.000 C 
ENDBRANCH  32  36
ENDBRANCH  27  28
ENDBRANCH  26  27
ENDBRANCH  10  26
TORSDOF 9
ENDMDL
