MODEL 1
REMARK VINA RESULT:      -7.6      0.000      0.000
REMARK  Name = 
REMARK  9 active torsions:
REMARK  status: ('A' for Active; 'I' for Inactive)
REMARK    1  A    between atoms: C_1  and  C_2
REMARK    2  A    between atoms: N_4  and  C_5
REMARK    3  A    between atoms: C_11  and  C_12
REMARK    4  A    between atoms: C_18  and  C_19
REMARK    5  A    between atoms: C_23  and  N_24
REMARK    6  A    between atoms: C_25  and  C_27
REMARK    7  A    between atoms: C_27  and  C_28
REMARK    8  A    between atoms: C_27  and  C_29
REMARK    9  A    between atoms: C_27  and  C_30
REMARK                            x       y       z     vdW  Elec       q    Type
REMARK                         _______ _______ _______ _____ _____    ______ ____
ROOT
ATOM      1  C   UNL     1       1.093  10.030  20.861  0.00  0.00    +0.000 A 
ATOM      2  N   UNL     1       1.866   9.749  21.952  0.00  0.00    +0.000 NA
ATOM      3  N   UNL     1       1.807   8.406  22.015  0.00  0.00    +0.000 N 
ATOM      4  C   UNL     1       1.022   7.800  21.037  0.00  0.00    +0.000 A 
ATOM      5  C   UNL     1       0.926   6.447  20.743  0.00  0.00    +0.000 A 
ATOM      6  C   UNL     1       2.202   6.093  20.341  0.00  0.00    +0.000 A 
ATOM      7  C   UNL     1       2.790   6.777  19.276  0.00  0.00    +0.000 A 
ATOM      8  N   UNL     1       2.343   8.128  19.046  0.00  0.00    +0.000 NA
ATOM      9  C   UNL     1       1.277   8.700  19.984  0.00  0.00    +0.000 A 
ATOM     10  H   UNL     1       2.366   7.924  22.710  0.00  0.00    +0.000 HD
ENDROOT
BRANCH   1  17
ATOM     11  C   UNL     1      -3.519  12.519  22.726  0.00  0.00    +0.000 A 
ATOM     12  N   UNL     1      -4.479  12.283  21.733  0.00  0.00    +0.000 NA
ATOM     13  C   UNL     1      -4.144  12.465  20.436  0.00  0.00    +0.000 A 
ATOM     14  C   UNL     1      -2.925  12.986  20.034  0.00  0.00    +0.000 A 
ATOM     15  C   UNL     1      -1.914  12.502  20.859  0.00  0.00    +0.000 A 
ATOM     16  N   UNL     1      -0.642  12.051  20.545  0.00  0.00    +0.000 N 
ATOM     17  C   UNL     1      -0.168  11.110  21.482  0.00  0.00    +0.000 A 
ATOM     18  N   UNL     1      -0.989  11.258  22.560  0.00  0.00    +0.000 NA
ATOM     19  C   UNL     1      -2.119  12.230  22.210  0.00  0.00    +0.000 A 
ATOM     20  H   UNL     1      -0.243  12.056  19.620  0.00  0.00    +0.000 HD
BRANCH  11  24
ATOM     21  C   UNL     1      -5.851  16.929  24.206  0.00  0.00    +0.000 C 
ATOM     22  C   UNL     1      -4.943  15.738  24.029  0.00  0.00    +0.000 A 
ATOM     23  C   UNL     1      -5.008  14.634  23.161  0.00  0.00    +0.000 A 
ATOM     24  N   UNL     1      -3.971  13.736  23.514  0.00  0.00    +0.000 N 
ATOM     25  C   UNL     1      -3.192  14.565  24.339  0.00  0.00    +0.000 A 
ATOM     26  N   UNL     1      -3.791  15.652  24.765  0.00  0.00    +0.000 NA
ENDBRANCH  11  24
ENDBRANCH   1  17
BRANCH   7  27
ATOM     27  C   UNL     1       3.904   5.855  18.465  0.00  0.00    +0.000 A 
ATOM     28  C   UNL     1       4.916   5.210  19.234  0.00  0.00    +0.000 A 
ATOM     29  N   UNL     1       5.932   4.377  18.832  0.00  0.00    +0.000 NA
ATOM     30  C   UNL     1       5.995   4.054  17.531  0.00  0.00    +0.000 A 
ATOM     31  C   UNL     1       5.116   4.533  16.589  0.00  0.00    +0.000 A 
ATOM     32  C   UNL     1       4.056   5.465  17.083  0.00  0.00    +0.000 A 
BRANCH  31  33
ATOM     33  N   UNL     1       5.223   4.128  15.191  0.00  0.00    +0.000 N 
ATOM     34  C   UNL     1       6.150   4.563  14.236  0.00  0.00    +0.000 C 
ATOM     35  O   UNL     1       7.043   5.338  14.498  0.00  0.00    +0.000 OA
ATOM     36  H   UNL     1       4.534   3.451  14.894  0.00  0.00    +0.000 HD
BRANCH  34  37
ATOM     37  C   UNL     1       6.057   3.919  12.788  0.00  0.00    +0.000 C 
ATOM     38  C   UNL     1       4.670   4.178  12.177  0.00  0.00    +0.000 C 
ATOM     39  C   UNL     1       7.101   4.535  11.810  0.00  0.00    +0.000 C 
ATOM     40  C   UNL     1       6.332   2.409  12.837  0.00  0.00    +0.000 C 
ENDBRANCH  34  37
ENDBRANCH  31  33
ENDBRANCH   7  27
TORSDOF 5
ENDMDL
MODEL 2
REMARK VINA RESULT:      -7.5      0.638      1.046
REMARK  Name = 
REMARK  9 active torsions:
REMARK  status: ('A' for Active; 'I' for Inactive)
REMARK    1  A    between atoms: C_1  and  C_2
REMARK    2  A    between atoms: N_4  and  C_5
REMARK    3  A    between atoms: C_11  and  C_12
REMARK    4  A    between atoms: C_18  and  C_19
REMARK    5  A    between atoms: C_23  and  N_24
REMARK    6  A    between atoms: C_25  and  C_27
REMARK    7  A    between atoms: C_27  and  C_28
REMARK    8  A    between atoms: C_27  and  C_29
REMARK    9  A    between atoms: C_27  and  C_30
REMARK                            x       y       z     vdW  Elec       q    Type
REMARK                         _______ _______ _______ _____ _____    ______ ____
ROOT
ATOM      1  C   UNL     1       0.891  10.331  20.590  0.00  0.00    +0.000 A 
ATOM      2  N   UNL     1       1.707  10.167  21.673  0.00  0.00    +0.000 NA
ATOM      3  N   UNL     1       1.692   8.833  21.853  0.00  0.00    +0.000 N 
ATOM      4  C   UNL     1       0.894   8.122  20.958  0.00  0.00    +0.000 A 
ATOM      5  C   UNL     1       0.831   6.747  20.785  0.00  0.00    +0.000 A 
ATOM      6  C   UNL     1       2.103   6.396  20.370  0.00  0.00    +0.000 A 
ATOM      7  C   UNL     1       2.635   7.001  19.231  0.00  0.00    +0.000 A 
ATOM      8  N   UNL     1       2.139   8.314  18.902  0.00  0.00    +0.000 NA
ATOM      9  C   UNL     1       1.087   8.935  19.824  0.00  0.00    +0.000 A 
ATOM     10  H   UNL     1       2.288   8.429  22.567  0.00  0.00    +0.000 HD
ENDROOT
BRANCH   1  17
ATOM     11  C   UNL     1      -3.664  12.821  22.587  0.00  0.00    +0.000 A 
ATOM     12  N   UNL     1      -4.719  12.302  21.824  0.00  0.00    +0.000 NA
ATOM     13  C   UNL     1      -4.583  12.216  20.482  0.00  0.00    +0.000 A 
ATOM     14  C   UNL     1      -3.491  12.725  19.798  0.00  0.00    +0.000 A 
ATOM     15  C   UNL     1      -2.333  12.512  20.539  0.00  0.00    +0.000 A 
ATOM     16  N   UNL     1      -1.074  12.097  20.134  0.00  0.00    +0.000 N 
ATOM     17  C   UNL     1      -0.381  11.425  21.160  0.00  0.00    +0.000 A 
ATOM     18  N   UNL     1      -1.061  11.745  22.298  0.00  0.00    +0.000 NA
ATOM     19  C   UNL     1      -2.324  12.530  21.932  0.00  0.00    +0.000 A 
ATOM     20  H   UNL     1      -0.806  11.928  19.177  0.00  0.00    +0.000 HD
BRANCH  11  24
ATOM     21  C   UNL     1      -3.976  17.271  25.267  0.00  0.00    +0.000 C 
ATOM     22  C   UNL     1      -4.237  16.015  24.473  0.00  0.00    +0.000 A 
ATOM     23  C   UNL     1      -3.368  15.041  23.953  0.00  0.00    +0.000 A 
ATOM     24  N   UNL     1      -4.132  14.145  23.166  0.00  0.00    +0.000 N 
ATOM     25  C   UNL     1      -5.429  14.493  23.579  0.00  0.00    +0.000 A 
ATOM     26  N   UNL     1      -5.528  15.641  24.206  0.00  0.00    +0.000 NA
ENDBRANCH  11  24
ENDBRANCH   1  17
BRANCH   7  27
ATOM     27  C   UNL     1       3.750   6.044  18.463  0.00  0.00    +0.000 A 
ATOM     28  C   UNL     1       4.651   5.296  19.274  0.00  0.00    +0.000 A 
ATOM     29  N   UNL     1       5.641   4.414  18.911  0.00  0.00    +0.000 NA
ATOM     30  C   UNL     1       5.789   4.149  17.603  0.00  0.00    +0.000 A 
ATOM     31  C   UNL     1       5.024   4.731  16.621  0.00  0.00    +0.000 A 
ATOM     32  C   UNL     1       3.989   5.709  17.079  0.00  0.00    +0.000 A 
BRANCH  31  33
ATOM     33  N   UNL     1       5.218   4.385  15.216  0.00  0.00    +0.000 N 
ATOM     34  C   UNL     1       6.358   4.588  14.429  0.00  0.00    +0.000 C 
ATOM     35  O   UNL     1       7.381   5.062  14.871  0.00  0.00    +0.000 OA
ATOM     36  H   UNL     1       4.421   3.949  14.775  0.00  0.00    +0.000 HD
BRANCH  34  37
ATOM     37  C   UNL     1       6.305   4.073  12.929  0.00  0.00    +0.000 C 
ATOM     38  C   UNL     1       7.271   4.886  12.051  0.00  0.00    +0.000 C 
ATOM     39  C   UNL     1       6.739   2.582  12.810  0.00  0.00    +0.000 C 
ATOM     40  C   UNL     1       4.881   4.167  12.364  0.00  0.00    +0.000 C 
ENDBRANCH  34  37
ENDBRANCH  31  33
ENDBRANCH   7  27
TORSDOF 5
ENDMDL
MODEL 3
REMARK VINA RESULT:      -7.5      1.245      1.958
REMARK  Name = 
REMARK  9 active torsions:
REMARK  status: ('A' for Active; 'I' for Inactive)
REMARK    1  A    between atoms: C_1  and  C_2
REMARK    2  A    between atoms: N_4  and  C_5
REMARK    3  A    between atoms: C_11  and  C_12
REMARK    4  A    between atoms: C_18  and  C_19
REMARK    5  A    between atoms: C_23  and  N_24
REMARK    6  A    between atoms: C_25  and  C_27
REMARK    7  A    between atoms: C_27  and  C_28
REMARK    8  A    between atoms: C_27  and  C_29
REMARK    9  A    between atoms: C_27  and  C_30
REMARK                            x       y       z     vdW  Elec       q    Type
REMARK                         _______ _______ _______ _____ _____    ______ ____
ROOT
ATOM      1  C   UNL     1       0.744  10.099  20.448  0.00  0.00    +0.000 A 
ATOM      2  N   UNL     1       1.616  10.059  21.500  0.00  0.00    +0.000 NA
ATOM      3  N   UNL     1       1.728   8.739  21.738  0.00  0.00    +0.000 N 
ATOM      4  C   UNL     1       0.963   7.919  20.911  0.00  0.00    +0.000 A 
ATOM      5  C   UNL     1       1.016   6.537  20.801  0.00  0.00    +0.000 A 
ATOM      6  C   UNL     1       2.298   6.280  20.345  0.00  0.00    +0.000 A 
ATOM      7  C   UNL     1       2.725   6.876  19.158  0.00  0.00    +0.000 A 
ATOM      8  N   UNL     1       2.100   8.123  18.795  0.00  0.00    +0.000 NA
ATOM      9  C   UNL     1       1.035   8.692  19.735  0.00  0.00    +0.000 A 
ATOM     10  H   UNL     1       2.387   8.424  22.441  0.00  0.00    +0.000 HD
ENDROOT
BRANCH   1  17
ATOM     11  C   UNL     1      -3.037  14.018  21.578  0.00  0.00    +0.000 A 
ATOM     12  N   UNL     1      -2.287  15.140  21.957  0.00  0.00    +0.000 NA
ATOM     13  C   UNL     1      -1.260  14.985  22.823  0.00  0.00    +0.000 A 
ATOM     14  C   UNL     1      -0.975  13.784  23.452  0.00  0.00    +0.000 A 
ATOM     15  C   UNL     1      -1.187  12.730  22.569  0.00  0.00    +0.000 A 
ATOM     16  N   UNL     1      -0.435  11.589  22.340  0.00  0.00    +0.000 N 
ATOM     17  C   UNL     1      -0.597  11.102  21.027  0.00  0.00    +0.000 A 
ATOM     18  N   UNL     1      -1.719  11.725  20.567  0.00  0.00    +0.000 NA
ATOM     19  C   UNL     1      -2.183  12.761  21.595  0.00  0.00    +0.000 A 
ATOM     20  H   UNL     1       0.396  11.337  22.851  0.00  0.00    +0.000 HD
BRANCH  11  24
ATOM     21  C   UNL     1      -7.492  13.290  24.167  0.00  0.00    +0.000 C 
ATOM     22  C   UNL     1      -6.396  13.725  23.226  0.00  0.00    +0.000 A 
ATOM     23  C   UNL     1      -5.038  13.371  23.146  0.00  0.00    +0.000 A 
ATOM     24  N   UNL     1      -4.430  14.186  22.160  0.00  0.00    +0.000 N 
ATOM     25  C   UNL     1      -5.571  14.703  21.524  0.00  0.00    +0.000 A 
ATOM     26  N   UNL     1      -6.691  14.575  22.193  0.00  0.00    +0.000 NA
ENDBRANCH  11  24
ENDBRANCH   1  17
BRANCH   7  27
ATOM     27  C   UNL     1       3.890   5.986  18.383  0.00  0.00    +0.000 A 
ATOM     28  C   UNL     1       4.921   5.407  19.179  0.00  0.00    +0.000 A 
ATOM     29  N   UNL     1       5.979   4.611  18.810  0.00  0.00    +0.000 NA
ATOM     30  C   UNL     1       6.072   4.259  17.518  0.00  0.00    +0.000 A 
ATOM     31  C   UNL     1       5.184   4.674  16.555  0.00  0.00    +0.000 A 
ATOM     32  C   UNL     1       4.077   5.569  17.013  0.00  0.00    +0.000 A 
BRANCH  31  33
ATOM     33  N   UNL     1       5.326   4.239  15.168  0.00  0.00    +0.000 N 
ATOM     34  C   UNL     1       6.283   4.648  14.231  0.00  0.00    +0.000 C 
ATOM     35  O   UNL     1       7.175   5.421  14.503  0.00  0.00    +0.000 OA
ATOM     36  H   UNL     1       4.640   3.562  14.866  0.00  0.00    +0.000 HD
BRANCH  34  37
ATOM     37  C   UNL     1       6.225   3.975  12.795  0.00  0.00    +0.000 C 
ATOM     38  C   UNL     1       7.226   4.656  11.847  0.00  0.00    +0.000 C 
ATOM     39  C   UNL     1       6.609   2.466  12.843  0.00  0.00    +0.000 C 
ATOM     40  C   UNL     1       4.810   4.054  12.205  0.00  0.00    +0.000 C 
ENDBRANCH  34  37
ENDBRANCH  31  33
ENDBRANCH   7  27
TORSDOF 5
ENDMDL
MODEL 4
REMARK VINA RESULT:      -7.2      1.305      1.863
REMARK  Name = 
REMARK  9 active torsions:
REMARK  status: ('A' for Active; 'I' for Inactive)
REMARK    1  A    between atoms: C_1  and  C_2
REMARK    2  A    between atoms: N_4  and  C_5
REMARK    3  A    between atoms: C_11  and  C_12
REMARK    4  A    between atoms: C_18  and  C_19
REMARK    5  A    between atoms: C_23  and  N_24
REMARK    6  A    between atoms: C_25  and  C_27
REMARK    7  A    between atoms: C_27  and  C_28
REMARK    8  A    between atoms: C_27  and  C_29
REMARK    9  A    between atoms: C_27  and  C_30
REMARK                            x       y       z     vdW  Elec       q    Type
REMARK                         _______ _______ _______ _____ _____    ______ ____
ROOT
ATOM      1  C   UNL     1      -0.183   9.699  20.725  0.00  0.00    +0.000 A 
ATOM      2  N   UNL     1      -0.992   9.421  19.659  0.00  0.00    +0.000 NA
ATOM      3  N   UNL     1      -0.174   9.624  18.609  0.00  0.00    +0.000 N 
ATOM      4  C   UNL     1       1.116  10.037  18.933  0.00  0.00    +0.000 A 
ATOM      5  C   UNL     1       2.212  10.141  18.088  0.00  0.00    +0.000 A 
ATOM      6  C   UNL     1       2.430   8.847  17.651  0.00  0.00    +0.000 A 
ATOM      7  C   UNL     1       2.644   7.842  18.594  0.00  0.00    +0.000 A 
ATOM      8  N   UNL     1       2.064   8.042  19.899  0.00  0.00    +0.000 NA
ATOM      9  C   UNL     1       1.263   9.323  20.138  0.00  0.00    +0.000 A 
ATOM     10  H   UNL     1      -0.514   9.414  17.677  0.00  0.00    +0.000 HD
ENDROOT
BRANCH   1  17
ATOM     11  C   UNL     1      -3.559  12.957  23.711  0.00  0.00    +0.000 A 
ATOM     12  N   UNL     1      -4.829  12.768  23.148  0.00  0.00    +0.000 NA
ATOM     13  C   UNL     1      -4.962  12.785  21.803  0.00  0.00    +0.000 A 
ATOM     14  C   UNL     1      -3.922  13.095  20.942  0.00  0.00    +0.000 A 
ATOM     15  C   UNL     1      -2.735  12.552  21.426  0.00  0.00    +0.000 A 
ATOM     16  N   UNL     1      -1.710  11.903  20.758  0.00  0.00    +0.000 N 
ATOM     17  C   UNL     1      -1.027  10.994  21.591  0.00  0.00    +0.000 A 
ATOM     18  N   UNL     1      -1.391  11.349  22.856  0.00  0.00    +0.000 NA
ATOM     19  C   UNL     1      -2.471  12.433  22.789  0.00  0.00    +0.000 A 
ATOM     20  H   UNL     1      -1.668  11.770  19.760  0.00  0.00    +0.000 HD
BRANCH  11  24
ATOM     21  C   UNL     1      -4.545  17.872  25.107  0.00  0.00    +0.000 C 
ATOM     22  C   UNL     1      -3.972  16.492  24.903  0.00  0.00    +0.000 A 
ATOM     23  C   UNL     1      -4.437  15.386  24.171  0.00  0.00    +0.000 A 
ATOM     24  N   UNL     1      -3.579  14.291  24.438  0.00  0.00    +0.000 N 
ATOM     25  C   UNL     1      -2.500  14.958  25.040  0.00  0.00    +0.000 A 
ATOM     26  N   UNL     1      -2.754  16.179  25.447  0.00  0.00    +0.000 NA
ENDBRANCH  11  24
ENDBRANCH   1  17
BRANCH   7  27
ATOM     27  C   UNL     1       3.563   6.595  18.001  0.00  0.00    +0.000 A 
ATOM     28  C   UNL     1       4.088   5.657  18.936  0.00  0.00    +0.000 A 
ATOM     29  N   UNL     1       4.845   4.529  18.723  0.00  0.00    +0.000 NA
ATOM     30  C   UNL     1       5.117   4.193  17.453  0.00  0.00    +0.000 A 
ATOM     31  C   UNL     1       4.702   4.929  16.369  0.00  0.00    +0.000 A 
ATOM     32  C   UNL     1       3.915   6.165  16.669  0.00  0.00    +0.000 A 
BRANCH  31  33
ATOM     33  N   UNL     1       5.012   4.500  15.009  0.00  0.00    +0.000 N 
ATOM     34  C   UNL     1       6.217   4.650  14.311  0.00  0.00    +0.000 C 
ATOM     35  O   UNL     1       7.204   5.145  14.811  0.00  0.00    +0.000 OA
ATOM     36  H   UNL     1       4.252   4.042  14.527  0.00  0.00    +0.000 HD
BRANCH  34  37
ATOM     37  C   UNL     1       6.287   4.047  12.845  0.00  0.00    +0.000 C 
ATOM     38  C   UNL     1       7.300   4.831  11.994  0.00  0.00    +0.000 C 
ATOM     39  C   UNL     1       6.758   2.563  12.848  0.00  0.00    +0.000 C 
ATOM     40  C   UNL     1       4.908   4.074  12.171  0.00  0.00    +0.000 C 
ENDBRANCH  34  37
ENDBRANCH  31  33
ENDBRANCH   7  27
TORSDOF 5
ENDMDL
MODEL 5
REMARK VINA RESULT:      -7.1      8.887     14.487
REMARK  Name = 
REMARK  9 active torsions:
REMARK  status: ('A' for Active; 'I' for Inactive)
REMARK    1  A    between atoms: C_1  and  C_2
REMARK    2  A    between atoms: N_4  and  C_5
REMARK    3  A    between atoms: C_11  and  C_12
REMARK    4  A    between atoms: C_18  and  C_19
REMARK    5  A    between atoms: C_23  and  N_24
REMARK    6  A    between atoms: C_25  and  C_27
REMARK    7  A    between atoms: C_27  and  C_28
REMARK    8  A    between atoms: C_27  and  C_29
REMARK    9  A    between atoms: C_27  and  C_30
REMARK                            x       y       z     vdW  Elec       q    Type
REMARK                         _______ _______ _______ _____ _____    ______ ____
ROOT
ATOM      1  C   UNL     1       9.044  10.509  19.177  0.00  0.00    +0.000 A 
ATOM      2  N   UNL     1      10.395  10.308  19.221  0.00  0.00    +0.000 NA
ATOM      3  N   UNL     1      10.875  11.402  18.601  0.00  0.00    +0.000 N 
ATOM      4  C   UNL     1       9.909  12.294  18.138  0.00  0.00    +0.000 A 
ATOM      5  C   UNL     1      10.105  13.573  17.637  0.00  0.00    +0.000 A 
ATOM      6  C   UNL     1      10.655  14.275  18.696  0.00  0.00    +0.000 A 
ATOM      7  C   UNL     1       9.958  14.332  19.903  0.00  0.00    +0.000 A 
ATOM      8  N   UNL     1       9.063  13.238  20.190  0.00  0.00    +0.000 NA
ATOM      9  C   UNL     1       8.957  12.111  19.160  0.00  0.00    +0.000 A 
ATOM     10  H   UNL     1      11.879  11.540  18.560  0.00  0.00    +0.000 HD
ENDROOT
BRANCH   1  17
ATOM     11  C   UNL     1       6.097   6.329  16.991  0.00  0.00    +0.000 A 
ATOM     12  N   UNL     1       5.485   5.710  18.089  0.00  0.00    +0.000 NA
ATOM     13  C   UNL     1       6.219   5.455  19.196  0.00  0.00    +0.000 A 
ATOM     14  C   UNL     1       7.586   5.669  19.265  0.00  0.00    +0.000 A 
ATOM     15  C   UNL     1       7.913   6.834  18.576  0.00  0.00    +0.000 A 
ATOM     16  N   UNL     1       8.790   7.853  18.908  0.00  0.00    +0.000 N 
ATOM     17  C   UNL     1       8.416   9.084  18.332  0.00  0.00    +0.000 A 
ATOM     18  N   UNL     1       7.524   8.747  17.358  0.00  0.00    +0.000 NA
ATOM     19  C   UNL     1       7.221   7.248  17.440  0.00  0.00    +0.000 A 
ATOM     20  H   UNL     1       9.378   7.861  19.727  0.00  0.00    +0.000 HD
BRANCH  11  24
ATOM     21  C   UNL     1       7.097   3.874  12.513  0.00  0.00    +0.000 C 
ATOM     22  C   UNL     1       6.532   4.364  13.823  0.00  0.00    +0.000 A 
ATOM     23  C   UNL     1       6.967   5.360  14.714  0.00  0.00    +0.000 A 
ATOM     24  N   UNL     1       6.142   5.311  15.865  0.00  0.00    +0.000 N 
ATOM     25  C   UNL     1       5.092   4.511  15.386  0.00  0.00    +0.000 A 
ATOM     26  N   UNL     1       5.353   3.843  14.287  0.00  0.00    +0.000 NA
ENDBRANCH  11  24
ENDBRANCH   1  17
BRANCH   7  27
ATOM     27  C   UNL     1      10.307  15.698  20.776  0.00  0.00    +0.000 A 
ATOM     28  C   UNL     1      10.433  16.925  20.062  0.00  0.00    +0.000 A 
ATOM     29  N   UNL     1      10.684  18.194  20.527  0.00  0.00    +0.000 NA
ATOM     30  C   UNL     1      10.788  18.362  21.855  0.00  0.00    +0.000 A 
ATOM     31  C   UNL     1      10.683  17.331  22.758  0.00  0.00    +0.000 A 
ATOM     32  C   UNL     1      10.447  15.969  22.187  0.00  0.00    +0.000 A 
BRANCH  31  33
ATOM     33  N   UNL     1      10.784  17.579  24.193  0.00  0.00    +0.000 N 
ATOM     34  C   UNL     1      10.328  16.770  25.241  0.00  0.00    +0.000 C 
ATOM     35  O   UNL     1       9.808  15.692  25.055  0.00  0.00    +0.000 OA
ATOM     36  H   UNL     1      11.240  18.446  24.441  0.00  0.00    +0.000 HD
BRANCH  34  37
ATOM     37  C   UNL     1      10.610  17.272  26.720  0.00  0.00    +0.000 C 
ATOM     38  C   UNL     1      11.333  18.628  26.695  0.00  0.00    +0.000 C 
ATOM     39  C   UNL     1       9.293  17.481  27.524  0.00  0.00    +0.000 C 
ATOM     40  C   UNL     1      11.448  16.248  27.500  0.00  0.00    +0.000 C 
ENDBRANCH  34  37
ENDBRANCH  31  33
ENDBRANCH   7  27
TORSDOF 5
ENDMDL
MODEL 6
REMARK VINA RESULT:      -6.8      1.287      1.697
REMARK  Name = 
REMARK  9 active torsions:
REMARK  status: ('A' for Active; 'I' for Inactive)
REMARK    1  A    between atoms: C_1  and  C_2
REMARK    2  A    between atoms: N_4  and  C_5
REMARK    3  A    between atoms: C_11  and  C_12
REMARK    4  A    between atoms: C_18  and  C_19
REMARK    5  A    between atoms: C_23  and  N_24
REMARK    6  A    between atoms: C_25  and  C_27
REMARK    7  A    between atoms: C_27  and  C_28
REMARK    8  A    between atoms: C_27  and  C_29
REMARK    9  A    between atoms: C_27  and  C_30
REMARK                            x       y       z     vdW  Elec       q    Type
REMARK                         _______ _______ _______ _____ _____    ______ ____
ROOT
ATOM      1  C   UNL     1       0.830   9.984  20.529  0.00  0.00    +0.000 A 
ATOM      2  N   UNL     1       1.664   9.861  21.605  0.00  0.00    +0.000 NA
ATOM      3  N   UNL     1       1.831   8.529  21.696  0.00  0.00    +0.000 N 
ATOM      4  C   UNL     1       1.137   7.777  20.750  0.00  0.00    +0.000 A 
ATOM      5  C   UNL     1       1.262   6.421  20.485  0.00  0.00    +0.000 A 
ATOM      6  C   UNL     1       2.570   6.275  20.058  0.00  0.00    +0.000 A 
ATOM      7  C   UNL     1       3.011   7.022  18.965  0.00  0.00    +0.000 A 
ATOM      8  N   UNL     1       2.340   8.274  18.720  0.00  0.00    +0.000 NA
ATOM      9  C   UNL     1       1.215   8.682  19.674  0.00  0.00    +0.000 A 
ATOM     10  H   UNL     1       2.479   8.164  22.386  0.00  0.00    +0.000 HD
ENDROOT
BRANCH   1  17
ATOM     11  C   UNL     1      -3.345  13.460  21.721  0.00  0.00    +0.000 A 
ATOM     12  N   UNL     1      -2.730  14.704  21.917  0.00  0.00    +0.000 NA
ATOM     13  C   UNL     1      -1.613  14.774  22.676  0.00  0.00    +0.000 A 
ATOM     14  C   UNL     1      -1.100  13.692  23.372  0.00  0.00    +0.000 A 
ATOM     15  C   UNL     1      -1.244  12.535  22.612  0.00  0.00    +0.000 A 
ATOM     16  N   UNL     1      -0.363  11.487  22.402  0.00  0.00    +0.000 N 
ATOM     17  C   UNL     1      -0.578  10.853  21.162  0.00  0.00    +0.000 A 
ATOM     18  N   UNL     1      -1.816  11.273  20.775  0.00  0.00    +0.000 NA
ATOM     19  C   UNL     1      -2.323  12.336  21.753  0.00  0.00    +0.000 A 
ATOM     20  H   UNL     1       0.541  11.401  22.839  0.00  0.00    +0.000 HD
BRANCH  11  24
ATOM     21  C   UNL     1      -7.838  15.024  23.829  0.00  0.00    +0.000 C 
ATOM     22  C   UNL     1      -6.575  14.297  23.438  0.00  0.00    +0.000 A 
ATOM     23  C   UNL     1      -5.578  14.598  22.495  0.00  0.00    +0.000 A 
ATOM     24  N   UNL     1      -4.685  13.500  22.434  0.00  0.00    +0.000 N 
ATOM     25  C   UNL     1      -5.063  12.806  23.595  0.00  0.00    +0.000 A 
ATOM     26  N   UNL     1      -6.221  13.153  24.103  0.00  0.00    +0.000 NA
ENDBRANCH  11  24
ENDBRANCH   1  17
BRANCH   7  27
ATOM     27  C   UNL     1       4.246   6.280  18.143  0.00  0.00    +0.000 A 
ATOM     28  C   UNL     1       5.271   5.656  18.911  0.00  0.00    +0.000 A 
ATOM     29  N   UNL     1       6.379   4.955  18.498  0.00  0.00    +0.000 NA
ATOM     30  C   UNL     1       6.538   4.761  17.180  0.00  0.00    +0.000 A 
ATOM     31  C   UNL     1       5.669   5.248  16.233  0.00  0.00    +0.000 A 
ATOM     32  C   UNL     1       4.504   6.035  16.744  0.00  0.00    +0.000 A 
BRANCH  31  33
ATOM     33  N   UNL     1       5.883   4.986  14.813  0.00  0.00    +0.000 N 
ATOM     34  C   UNL     1       5.979   3.745  14.171  0.00  0.00    +0.000 C 
ATOM     35  O   UNL     1       5.844   2.694  14.758  0.00  0.00    +0.000 OA
ATOM     36  H   UNL     1       5.972   5.813  14.240  0.00  0.00    +0.000 HD
BRANCH  34  37
ATOM     37  C   UNL     1       6.176   3.756  12.596  0.00  0.00    +0.000 C 
ATOM     38  C   UNL     1       4.859   4.132  11.897  0.00  0.00    +0.000 C 
ATOM     39  C   UNL     1       7.236   4.807  12.150  0.00  0.00    +0.000 C 
ATOM     40  C   UNL     1       6.664   2.391  12.092  0.00  0.00    +0.000 C 
ENDBRANCH  34  37
ENDBRANCH  31  33
ENDBRANCH   7  27
TORSDOF 5
ENDMDL
MODEL 7
REMARK VINA RESULT:      -6.8      1.698      2.332
REMARK  Name = 
REMARK  9 active torsions:
REMARK  status: ('A' for Active; 'I' for Inactive)
REMARK    1  A    between atoms: C_1  and  C_2
REMARK    2  A    between atoms: N_4  and  C_5
REMARK    3  A    between atoms: C_11  and  C_12
REMARK    4  A    between atoms: C_18  and  C_19
REMARK    5  A    between atoms: C_23  and  N_24
REMARK    6  A    between atoms: C_25  and  C_27
REMARK    7  A    between atoms: C_27  and  C_28
REMARK    8  A    between atoms: C_27  and  C_29
REMARK    9  A    between atoms: C_27  and  C_30
REMARK                            x       y       z     vdW  Elec       q    Type
REMARK                         _______ _______ _______ _____ _____    ______ ____
ROOT
ATOM      1  C   UNL     1       1.061   9.814  19.839  0.00  0.00    +0.000 A 
ATOM      2  N   UNL     1       1.851   9.780  20.953  0.00  0.00    +0.000 NA
ATOM      3  N   UNL     1       2.047   8.460  21.133  0.00  0.00    +0.000 N 
ATOM      4  C   UNL     1       1.411   7.634  20.209  0.00  0.00    +0.000 A 
ATOM      5  C   UNL     1       1.578   6.268  20.035  0.00  0.00    +0.000 A 
ATOM      6  C   UNL     1       2.906   6.130  19.670  0.00  0.00    +0.000 A 
ATOM      7  C   UNL     1       3.375   6.820  18.551  0.00  0.00    +0.000 A 
ATOM      8  N   UNL     1       2.685   8.037  18.202  0.00  0.00    +0.000 NA
ATOM      9  C   UNL     1       1.511   8.473  19.082  0.00  0.00    +0.000 A 
ATOM     10  H   UNL     1       2.673   8.155  21.870  0.00  0.00    +0.000 HD
ENDROOT
BRANCH   1  17
ATOM     11  C   UNL     1      -2.990  13.434  21.033  0.00  0.00    +0.000 A 
ATOM     12  N   UNL     1      -2.355  14.459  21.747  0.00  0.00    +0.000 NA
ATOM     13  C   UNL     1      -1.486  14.136  22.731  0.00  0.00    +0.000 A 
ATOM     14  C   UNL     1      -1.271  12.835  23.155  0.00  0.00    +0.000 A 
ATOM     15  C   UNL     1      -1.293  11.976  22.061  0.00  0.00    +0.000 A 
ATOM     16  N   UNL     1      -0.475  10.902  21.749  0.00  0.00    +0.000 N 
ATOM     17  C   UNL     1      -0.393  10.684  20.359  0.00  0.00    +0.000 A 
ATOM     18  N   UNL     1      -1.441  11.385  19.841  0.00  0.00    +0.000 NA
ATOM     19  C   UNL     1      -2.109  12.198  20.954  0.00  0.00    +0.000 A 
ATOM     20  H   UNL     1       0.266  10.555  22.338  0.00  0.00    +0.000 HD
BRANCH  11  24
ATOM     21  C   UNL     1      -7.736  12.304  22.843  0.00  0.00    +0.000 C 
ATOM     22  C   UNL     1      -6.539  12.849  22.104  0.00  0.00    +0.000 A 
ATOM     23  C   UNL     1      -5.164  12.592  22.236  0.00  0.00    +0.000 A 
ATOM     24  N   UNL     1      -4.467  13.484  21.384  0.00  0.00    +0.000 N 
ATOM     25  C   UNL     1      -5.526  13.946  20.585  0.00  0.00    +0.000 A 
ATOM     26  N   UNL     1      -6.727  13.716  21.061  0.00  0.00    +0.000 NA
ENDBRANCH  11  24
ENDBRANCH   1  17
BRANCH   7  27
ATOM     27  C   UNL     1       4.659   6.062  17.827  0.00  0.00    +0.000 A 
ATOM     28  C   UNL     1       5.644   5.475  18.674  0.00  0.00    +0.000 A 
ATOM     29  N   UNL     1       6.779   4.769  18.349  0.00  0.00    +0.000 NA
ATOM     30  C   UNL     1       7.014   4.532  17.050  0.00  0.00    +0.000 A 
ATOM     31  C   UNL     1       6.197   4.978  16.039  0.00  0.00    +0.000 A 
ATOM     32  C   UNL     1       4.999   5.771  16.454  0.00  0.00    +0.000 A 
BRANCH  31  33
ATOM     33  N   UNL     1       6.494   4.669  14.643  0.00  0.00    +0.000 N 
ATOM     34  C   UNL     1       5.750   3.878  13.759  0.00  0.00    +0.000 C 
ATOM     35  O   UNL     1       4.693   3.371  14.067  0.00  0.00    +0.000 OA
ATOM     36  H   UNL     1       7.345   5.084  14.291  0.00  0.00    +0.000 HD
BRANCH  34  37
ATOM     37  C   UNL     1       6.292   3.744  12.273  0.00  0.00    +0.000 C 
ATOM     38  C   UNL     1       7.363   4.812  11.998  0.00  0.00    +0.000 C 
ATOM     39  C   UNL     1       6.963   2.361  12.022  0.00  0.00    +0.000 C 
ATOM     40  C   UNL     1       5.150   3.874  11.256  0.00  0.00    +0.000 C 
ENDBRANCH  34  37
ENDBRANCH  31  33
ENDBRANCH   7  27
TORSDOF 5
ENDMDL
MODEL 8
REMARK VINA RESULT:      -6.8      2.054      3.334
REMARK  Name = 
REMARK  9 active torsions:
REMARK  status: ('A' for Active; 'I' for Inactive)
REMARK    1  A    between atoms: C_1  and  C_2
REMARK    2  A    between atoms: N_4  and  C_5
REMARK    3  A    between atoms: C_11  and  C_12
REMARK    4  A    between atoms: C_18  and  C_19
REMARK    5  A    between atoms: C_23  and  N_24
REMARK    6  A    between atoms: C_25  and  C_27
REMARK    7  A    between atoms: C_27  and  C_28
REMARK    8  A    between atoms: C_27  and  C_29
REMARK    9  A    between atoms: C_27  and  C_30
REMARK                            x       y       z     vdW  Elec       q    Type
REMARK                         _______ _______ _______ _____ _____    ______ ____
ROOT
ATOM      1  C   UNL     1      -0.938  11.152  20.680  0.00  0.00    +0.000 A 
ATOM      2  N   UNL     1      -1.690  10.772  19.604  0.00  0.00    +0.000 NA
ATOM      3  N   UNL     1      -0.773  10.675  18.624  0.00  0.00    +0.000 N 
ATOM      4  C   UNL     1       0.532  10.989  18.999  0.00  0.00    +0.000 A 
ATOM      5  C   UNL     1       1.695  10.802  18.265  0.00  0.00    +0.000 A 
ATOM      6  C   UNL     1       1.772   9.431  18.092  0.00  0.00    +0.000 A 
ATOM      7  C   UNL     1       1.775   8.606  19.217  0.00  0.00    +0.000 A 
ATOM      8  N   UNL     1       1.125   9.117  20.399  0.00  0.00    +0.000 NA
ATOM      9  C   UNL     1       0.486  10.506  20.321  0.00  0.00    +0.000 A 
ATOM     10  H   UNL     1      -1.063  10.332  17.715  0.00  0.00    +0.000 HD
ENDROOT
BRANCH   1  17
ATOM     11  C   UNL     1      -2.179  16.327  22.294  0.00  0.00    +0.000 A 
ATOM     12  N   UNL     1      -1.335  16.574  23.385  0.00  0.00    +0.000 NA
ATOM     13  C   UNL     1      -1.201  15.629  24.342  0.00  0.00    +0.000 A 
ATOM     14  C   UNL     1      -1.949  14.462  24.365  0.00  0.00    +0.000 A 
ATOM     15  C   UNL     1      -2.119  13.990  23.066  0.00  0.00    +0.000 A 
ATOM     16  N   UNL     1      -2.048  12.700  22.567  0.00  0.00    +0.000 N 
ATOM     17  C   UNL     1      -1.667  12.677  21.210  0.00  0.00    +0.000 A 
ATOM     18  N   UNL     1      -1.859  13.957  20.780  0.00  0.00    +0.000 NA
ATOM     19  C   UNL     1      -2.232  14.844  21.971  0.00  0.00    +0.000 A 
ATOM     20  H   UNL     1      -1.896  11.876  23.126  0.00  0.00    +0.000 HD
BRANCH  11  24
ATOM     21  C   UNL     1      -6.686  18.572  23.608  0.00  0.00    +0.000 C 
ATOM     22  C   UNL     1      -5.405  18.132  22.944  0.00  0.00    +0.000 A 
ATOM     23  C   UNL     1      -4.423  17.204  23.332  0.00  0.00    +0.000 A 
ATOM     24  N   UNL     1      -3.354  17.283  22.405  0.00  0.00    +0.000 N 
ATOM     25  C   UNL     1      -3.970  18.014  21.375  0.00  0.00    +0.000 A 
ATOM     26  N   UNL     1      -5.078  18.630  21.711  0.00  0.00    +0.000 NA
ENDBRANCH  11  24
ENDBRANCH   1  17
BRANCH   7  27
ATOM     27  C   UNL     1       2.563   7.171  18.954  0.00  0.00    +0.000 A 
ATOM     28  C   UNL     1       2.483   6.176  19.971  0.00  0.00    +0.000 A 
ATOM     29  N   UNL     1       3.005   4.905  20.004  0.00  0.00    +0.000 NA
ATOM     30  C   UNL     1       3.661   4.473  18.916  0.00  0.00    +0.000 A 
ATOM     31  C   UNL     1       3.854   5.242  17.793  0.00  0.00    +0.000 A 
ATOM     32  C   UNL     1       3.293   6.628  17.833  0.00  0.00    +0.000 A 
BRANCH  31  33
ATOM     33  N   UNL     1       4.557   4.708  16.631  0.00  0.00    +0.000 N 
ATOM     34  C   UNL     1       5.338   5.406  15.701  0.00  0.00    +0.000 C 
ATOM     35  O   UNL     1       5.560   6.593  15.794  0.00  0.00    +0.000 OA
ATOM     36  H   UNL     1       4.456   3.712  16.496  0.00  0.00    +0.000 HD
BRANCH  34  37
ATOM     37  C   UNL     1       6.025   4.558  14.548  0.00  0.00    +0.000 C 
ATOM     38  C   UNL     1       7.356   5.204  14.131  0.00  0.00    +0.000 C 
ATOM     39  C   UNL     1       6.357   3.108  15.012  0.00  0.00    +0.000 C 
ATOM     40  C   UNL     1       5.100   4.433  13.329  0.00  0.00    +0.000 C 
ENDBRANCH  34  37
ENDBRANCH  31  33
ENDBRANCH   7  27
TORSDOF 5
ENDMDL
MODEL 9
REMARK VINA RESULT:      -6.8      4.059     13.339
REMARK  Name = 
REMARK  9 active torsions:
REMARK  status: ('A' for Active; 'I' for Inactive)
REMARK    1  A    between atoms: C_1  and  C_2
REMARK    2  A    between atoms: N_4  and  C_5
REMARK    3  A    between atoms: C_11  and  C_12
REMARK    4  A    between atoms: C_18  and  C_19
REMARK    5  A    between atoms: C_23  and  N_24
REMARK    6  A    between atoms: C_25  and  C_27
REMARK    7  A    between atoms: C_27  and  C_28
REMARK    8  A    between atoms: C_27  and  C_29
REMARK    9  A    between atoms: C_27  and  C_30
REMARK                            x       y       z     vdW  Elec       q    Type
REMARK                         _______ _______ _______ _____ _____    ______ ____
ROOT
ATOM      1  C   UNL     1      -0.025  10.181  19.128  0.00  0.00    +0.000 A 
ATOM      2  N   UNL     1       0.379  11.382  18.618  0.00  0.00    +0.000 NA
ATOM      3  N   UNL     1      -0.595  11.669  17.734  0.00  0.00    +0.000 N 
ATOM      4  C   UNL     1      -1.600  10.711  17.628  0.00  0.00    +0.000 A 
ATOM      5  C   UNL     1      -2.807  10.817  16.950  0.00  0.00    +0.000 A 
ATOM      6  C   UNL     1      -3.468  11.851  17.590  0.00  0.00    +0.000 A 
ATOM      7  C   UNL     1      -3.693  11.761  18.964  0.00  0.00    +0.000 A 
ATOM      8  N   UNL     1      -2.766  10.959  19.724  0.00  0.00    +0.000 NA
ATOM      9  C   UNL     1      -1.618  10.284  18.970  0.00  0.00    +0.000 A 
ATOM     10  H   UNL     1      -0.574  12.563  17.257  0.00  0.00    +0.000 HD
ENDROOT
BRANCH   1  17
ATOM     11  C   UNL     1       3.465   6.178  17.476  0.00  0.00    +0.000 A 
ATOM     12  N   UNL     1       2.835   4.981  17.840  0.00  0.00    +0.000 NA
ATOM     13  C   UNL     1       2.287   4.873  19.071  0.00  0.00    +0.000 A 
ATOM     14  C   UNL     1       2.414   5.849  20.046  0.00  0.00    +0.000 A 
ATOM     15  C   UNL     1       2.341   7.109  19.459  0.00  0.00    +0.000 A 
ATOM     16  N   UNL     1       1.682   8.254  19.876  0.00  0.00    +0.000 N 
ATOM     17  C   UNL     1       1.327   9.085  18.794  0.00  0.00    +0.000 A 
ATOM     18  N   UNL     1       2.083   8.634  17.754  0.00  0.00    +0.000 NA
ATOM     19  C   UNL     1       2.829   7.365  18.179  0.00  0.00    +0.000 A 
ATOM     20  H   UNL     1       1.172   8.339  20.741  0.00  0.00    +0.000 HD
BRANCH  11  24
ATOM     21  C   UNL     1       8.319   4.478  18.271  0.00  0.00    +0.000 C 
ATOM     22  C   UNL     1       7.073   5.205  17.830  0.00  0.00    +0.000 A 
ATOM     23  C   UNL     1       5.717   5.006  18.140  0.00  0.00    +0.000 A 
ATOM     24  N   UNL     1       4.949   5.885  17.336  0.00  0.00    +0.000 N 
ATOM     25  C   UNL     1       5.958   6.749  16.877  0.00  0.00    +0.000 A 
ATOM     26  N   UNL     1       7.184   6.305  17.022  0.00  0.00    +0.000 NA
ENDBRANCH  11  24
ENDBRANCH   1  17
BRANCH   7  27
ATOM     27  C   UNL     1      -5.031  12.613  19.448  0.00  0.00    +0.000 A 
ATOM     28  C   UNL     1      -6.310  12.097  19.087  0.00  0.00    +0.000 A 
ATOM     29  N   UNL     1      -7.567  12.574  19.376  0.00  0.00    +0.000 NA
ATOM     30  C   UNL     1      -7.656  13.664  20.152  0.00  0.00    +0.000 A 
ATOM     31  C   UNL     1      -6.561  14.334  20.645  0.00  0.00    +0.000 A 
ATOM     32  C   UNL     1      -5.222  13.787  20.265  0.00  0.00    +0.000 A 
BRANCH  31  33
ATOM     33  N   UNL     1      -6.723  15.503  21.504  0.00  0.00    +0.000 N 
ATOM     34  C   UNL     1      -5.809  16.027  22.427  0.00  0.00    +0.000 C 
ATOM     35  O   UNL     1      -4.703  15.558  22.589  0.00  0.00    +0.000 OA
ATOM     36  H   UNL     1      -7.608  15.979  21.408  0.00  0.00    +0.000 HD
BRANCH  34  37
ATOM     37  C   UNL     1      -6.235  17.344  23.204  0.00  0.00    +0.000 C 
ATOM     38  C   UNL     1      -5.673  17.325  24.635  0.00  0.00    +0.000 C 
ATOM     39  C   UNL     1      -5.678  18.627  22.520  0.00  0.00    +0.000 C 
ATOM     40  C   UNL     1      -7.762  17.490  23.244  0.00  0.00    +0.000 C 
ENDBRANCH  34  37
ENDBRANCH  31  33
ENDBRANCH   7  27
TORSDOF 5
ENDMDL
