MODEL 1
REMARK VINA RESULT:      -6.8      0.000      0.000
REMARK  Name = 
REMARK  8 active torsions:
REMARK  status: ('A' for Active; 'I' for Inactive)
REMARK    1  A    between atoms: C_1  and  O_2
REMARK    2  A    between atoms: O_2  and  C_3
REMARK    3  A    between atoms: C_4  and  C_5
REMARK    4  A    between atoms: N_6  and  N_7
REMARK    5  A    between atoms: C_13  and  C_14
REMARK    6  A    between atoms: N_15  and  N_16
REMARK    7  A    between atoms: C_20  and  O_21
REMARK    8  A    between atoms: O_21  and  C_22
REMARK                            x       y       z     vdW  Elec       q    Type
REMARK                         _______ _______ _______ _____ _____    ______ ____
ROOT
ATOM      1  C   UNL     1       3.622   4.402  17.205  0.00  0.00    +0.000 A 
ATOM      2  C   UNL     1       4.725   4.913  16.485  0.00  0.00    +0.000 A 
ATOM      3  C   UNL     1       5.113   6.247  16.626  0.00  0.00    +0.000 A 
ATOM      4  C   UNL     1       4.348   7.108  17.402  0.00  0.00    +0.000 A 
ATOM      5  C   UNL     1       3.184   6.645  18.032  0.00  0.00    +0.000 A 
ATOM      6  C   UNL     1       2.808   5.290  17.949  0.00  0.00    +0.000 A 
ENDROOT
BRANCH   1   8
ATOM      7  C   UNL     1       3.920   2.323  18.275  0.00  0.00    +0.000 C 
ATOM      8  O   UNL     1       3.305   3.067  17.219  0.00  0.00    +0.000 OA
ENDBRANCH   1   8
BRANCH   2   9
ATOM      9  C   UNL     1       5.523   4.140  15.511  0.00  0.00    +0.000 C 
ATOM     10  N   UNL     1       5.520   4.403  14.243  0.00  0.00    +0.000 NA
BRANCH  10  11
ATOM     11  N   UNL     1       6.376   3.527  13.559  0.00  0.00    +0.000 NA
ATOM     12  C   UNL     1       5.839   3.097  12.456  0.00  0.00    +0.000 C 
ATOM     13  N   UNL     1       4.630   3.484  11.982  0.00  0.00    +0.000 N 
ATOM     14  N   UNL     1       6.464   2.234  11.627  0.00  0.00    +0.000 N 
ATOM     15  H   UNL     1       4.207   4.065  12.704  0.00  0.00    +0.000 HD
ATOM     16  H   UNL     1       4.018   2.723  11.738  0.00  0.00    +0.000 HD
ATOM     17  H   UNL     1       7.264   1.765  12.032  0.00  0.00    +0.000 HD
ATOM     18  H   UNL     1       5.894   1.672  11.014  0.00  0.00    +0.000 HD
ENDBRANCH  10  11
ENDBRANCH   2   9
BRANCH   5  19
ATOM     19  C   UNL     1       2.335   7.642  18.730  0.00  0.00    +0.000 C 
ATOM     20  N   UNL     1       2.008   8.735  18.119  0.00  0.00    +0.000 NA
BRANCH  20  21
ATOM     21  N   UNL     1       1.183   9.598  18.776  0.00  0.00    +0.000 N 
ATOM     22  C   UNL     1       1.323  10.946  18.615  0.00  0.00    +0.000 C 
ATOM     23  N   UNL     1       2.235  11.496  17.887  0.00  0.00    +0.000 NA
ATOM     24  N   UNL     1       0.444  11.718  19.288  0.00  0.00    +0.000 N 
ATOM     25  H   UNL     1       0.247   9.300  19.036  0.00  0.00    +0.000 HD
ATOM     26  H   UNL     1       2.741  10.681  17.501  0.00  0.00    +0.000 HD
ATOM     27  H   UNL     1       0.390  11.482  20.270  0.00  0.00    +0.000 HD
ATOM     28  H   UNL     1       0.739  12.686  19.184  0.00  0.00    +0.000 HD
ENDBRANCH  20  21
ENDBRANCH   5  19
BRANCH   6  29
ATOM     29  O   UNL     1       1.686   4.957  18.669  0.00  0.00    +0.000 OA
ATOM     30  C   UNL     1       1.850   4.570  20.029  0.00  0.00    +0.000 C 
ENDBRANCH   6  29
TORSDOF 6
ENDMDL
MODEL 2
REMARK VINA RESULT:      -6.8      1.133      7.617
REMARK  Name = 
REMARK  8 active torsions:
REMARK  status: ('A' for Active; 'I' for Inactive)
REMARK    1  A    between atoms: C_1  and  O_2
REMARK    2  A    between atoms: O_2  and  C_3
REMARK    3  A    between atoms: C_4  and  C_5
REMARK    4  A    between atoms: N_6  and  N_7
REMARK    5  A    between atoms: C_13  and  C_14
REMARK    6  A    between atoms: N_15  and  N_16
REMARK    7  A    between atoms: C_20  and  O_21
REMARK    8  A    between atoms: O_21  and  C_22
REMARK                            x       y       z     vdW  Elec       q    Type
REMARK                         _______ _______ _______ _____ _____    ______ ____
ROOT
ATOM      1  C   UNL     1       2.463   4.822  18.384  0.00  0.00    +0.000 A 
ATOM      2  C   UNL     1       2.803   6.174  18.619  0.00  0.00    +0.000 A 
ATOM      3  C   UNL     1       3.797   6.801  17.865  0.00  0.00    +0.000 A 
ATOM      4  C   UNL     1       4.530   6.064  16.944  0.00  0.00    +0.000 A 
ATOM      5  C   UNL     1       4.284   4.694  16.780  0.00  0.00    +0.000 A 
ATOM      6  C   UNL     1       3.247   4.056  17.489  0.00  0.00    +0.000 A 
ENDROOT
BRANCH   1   8
ATOM      7  C   UNL     1       1.636   3.772  20.326  0.00  0.00    +0.000 C 
ATOM      8  O   UNL     1       1.391   4.216  18.988  0.00  0.00    +0.000 OA
ENDBRANCH   1   8
BRANCH   2   9
ATOM      9  C   UNL     1       2.205   7.018  19.674  0.00  0.00    +0.000 C 
ATOM     10  N   UNL     1       1.838   8.241  19.463  0.00  0.00    +0.000 NA
BRANCH  10  11
ATOM     11  N   UNL     1       1.289   8.797  20.627  0.00  0.00    +0.000 NA
ATOM     12  C   UNL     1       0.399   9.704  20.352  0.00  0.00    +0.000 C 
ATOM     13  N   UNL     1      -0.003  10.037  19.103  0.00  0.00    +0.000 N 
ATOM     14  N   UNL     1      -0.263  10.391  21.307  0.00  0.00    +0.000 N 
ATOM     15  H   UNL     1       0.601   9.531  18.457  0.00  0.00    +0.000 HD
ATOM     16  H   UNL     1       0.023  11.025  18.908  0.00  0.00    +0.000 HD
ATOM     17  H   UNL     1       0.143  10.327  22.231  0.00  0.00    +0.000 HD
ATOM     18  H   UNL     1      -0.645  11.291  21.061  0.00  0.00    +0.000 HD
ENDBRANCH  10  11
ENDBRANCH   2   9
BRANCH   5  19
ATOM     19  C   UNL     1       5.192   3.933  15.885  0.00  0.00    +0.000 C 
ATOM     20  N   UNL     1       5.354   4.328  14.663  0.00  0.00    +0.000 NA
BRANCH  20  21
ATOM     21  N   UNL     1       6.239   3.634  13.893  0.00  0.00    +0.000 N 
ATOM     22  C   UNL     1       5.916   3.284  12.614  0.00  0.00    +0.000 C 
ATOM     23  N   UNL     1       4.778   3.538  12.062  0.00  0.00    +0.000 NA
ATOM     24  N   UNL     1       6.865   2.619  11.923  0.00  0.00    +0.000 N 
ATOM     25  H   UNL     1       7.236   3.724  14.066  0.00  0.00    +0.000 HD
ATOM     26  H   UNL     1       4.272   4.047  12.806  0.00  0.00    +0.000 HD
ATOM     27  H   UNL     1       7.228   1.821  12.427  0.00  0.00    +0.000 HD
ATOM     28  H   UNL     1       6.452   2.312  11.046  0.00  0.00    +0.000 HD
ENDBRANCH  20  21
ENDBRANCH   5  19
BRANCH   6  29
ATOM     29  O   UNL     1       3.070   2.728  17.182  0.00  0.00    +0.000 OA
ATOM     30  C   UNL     1       3.496   1.756  18.131  0.00  0.00    +0.000 C 
ENDBRANCH   6  29
TORSDOF 6
ENDMDL
MODEL 3
REMARK VINA RESULT:      -6.7      2.946      8.168
REMARK  Name = 
REMARK  8 active torsions:
REMARK  status: ('A' for Active; 'I' for Inactive)
REMARK    1  A    between atoms: C_1  and  O_2
REMARK    2  A    between atoms: O_2  and  C_3
REMARK    3  A    between atoms: C_4  and  C_5
REMARK    4  A    between atoms: N_6  and  N_7
REMARK    5  A    between atoms: C_13  and  C_14
REMARK    6  A    between atoms: N_15  and  N_16
REMARK    7  A    between atoms: C_20  and  O_21
REMARK    8  A    between atoms: O_21  and  C_22
REMARK                            x       y       z     vdW  Elec       q    Type
REMARK                         _______ _______ _______ _____ _____    ______ ____
ROOT
ATOM      1  C   UNL     1       1.489   8.207  20.110  0.00  0.00    +0.000 A 
ATOM      2  C   UNL     1       1.366   9.338  19.270  0.00  0.00    +0.000 A 
ATOM      3  C   UNL     1       1.873   9.318  17.970  0.00  0.00    +0.000 A 
ATOM      4  C   UNL     1       2.595   8.217  17.529  0.00  0.00    +0.000 A 
ATOM      5  C   UNL     1       2.826   7.134  18.388  0.00  0.00    +0.000 A 
ATOM      6  C   UNL     1       2.274   7.109  19.683  0.00  0.00    +0.000 A 
ENDROOT
BRANCH   1   8
ATOM      7  C   UNL     1       1.413   8.991  22.332  0.00  0.00    +0.000 C 
ATOM      8  O   UNL     1       0.870   8.124  21.331  0.00  0.00    +0.000 OA
ENDBRANCH   1   8
BRANCH   2   9
ATOM      9  C   UNL     1       0.758  10.621  19.676  0.00  0.00    +0.000 C 
ATOM     10  N   UNL     1      -0.455  10.948  19.362  0.00  0.00    +0.000 NA
BRANCH  10  11
ATOM     11  N   UNL     1      -0.777  12.207  19.890  0.00  0.00    +0.000 NA
ATOM     12  C   UNL     1      -0.979  13.083  18.951  0.00  0.00    +0.000 C 
ATOM     13  N   UNL     1      -0.947  12.814  17.623  0.00  0.00    +0.000 N 
ATOM     14  N   UNL     1      -1.292  14.370  19.207  0.00  0.00    +0.000 N 
ATOM     15  H   UNL     1      -0.628  11.850  17.529  0.00  0.00    +0.000 HD
ATOM     16  H   UNL     1      -0.359  13.433  17.089  0.00  0.00    +0.000 HD
ATOM     17  H   UNL     1      -1.126  14.663  20.162  0.00  0.00    +0.000 HD
ATOM     18  H   UNL     1      -1.082  15.057  18.500  0.00  0.00    +0.000 HD
ENDBRANCH  10  11
ENDBRANCH   2   9
BRANCH   5  19
ATOM     19  C   UNL     1       3.721   6.052  17.907  0.00  0.00    +0.000 C 
ATOM     20  N   UNL     1       4.850   6.363  17.353  0.00  0.00    +0.000 NA
BRANCH  20  21
ATOM     21  N   UNL     1       5.665   5.338  16.976  0.00  0.00    +0.000 N 
ATOM     22  C   UNL     1       6.971   5.574  16.656  0.00  0.00    +0.000 C 
ATOM     23  N   UNL     1       7.511   6.746  16.649  0.00  0.00    +0.000 NA
ATOM     24  N   UNL     1       7.704   4.494  16.318  0.00  0.00    +0.000 N 
ATOM     25  H   UNL     1       5.477   4.396  17.308  0.00  0.00    +0.000 HD
ATOM     26  H   UNL     1       6.733   7.358  16.948  0.00  0.00    +0.000 HD
ATOM     27  H   UNL     1       7.262   3.929  15.605  0.00  0.00    +0.000 HD
ATOM     28  H   UNL     1       8.606   4.824  15.984  0.00  0.00    +0.000 HD
ENDBRANCH  20  21
ENDBRANCH   5  19
BRANCH   6  29
ATOM     29  O   UNL     1       2.520   5.959  20.394  0.00  0.00    +0.000 OA
ATOM     30  C   UNL     1       1.493   4.976  20.460  0.00  0.00    +0.000 C 
ENDBRANCH   6  29
TORSDOF 6
ENDMDL
MODEL 4
REMARK VINA RESULT:      -6.7      2.462      2.984
REMARK  Name = 
REMARK  8 active torsions:
REMARK  status: ('A' for Active; 'I' for Inactive)
REMARK    1  A    between atoms: C_1  and  O_2
REMARK    2  A    between atoms: O_2  and  C_3
REMARK    3  A    between atoms: C_4  and  C_5
REMARK    4  A    between atoms: N_6  and  N_7
REMARK    5  A    between atoms: C_13  and  C_14
REMARK    6  A    between atoms: N_15  and  N_16
REMARK    7  A    between atoms: C_20  and  O_21
REMARK    8  A    between atoms: O_21  and  C_22
REMARK                            x       y       z     vdW  Elec       q    Type
REMARK                         _______ _______ _______ _____ _____    ______ ____
ROOT
ATOM      1  C   UNL     1       2.798   4.079  18.499  0.00  0.00    +0.000 A 
ATOM      2  C   UNL     1       3.673   4.997  17.874  0.00  0.00    +0.000 A 
ATOM      3  C   UNL     1       3.793   6.304  18.350  0.00  0.00    +0.000 A 
ATOM      4  C   UNL     1       2.972   6.739  19.382  0.00  0.00    +0.000 A 
ATOM      5  C   UNL     1       2.018   5.875  19.937  0.00  0.00    +0.000 A 
ATOM      6  C   UNL     1       1.921   4.537  19.510  0.00  0.00    +0.000 A 
ENDROOT
BRANCH   1   8
ATOM      7  C   UNL     1       3.716   1.939  18.869  0.00  0.00    +0.000 C 
ATOM      8  O   UNL     1       2.767   2.748  18.168  0.00  0.00    +0.000 OA
ENDBRANCH   1   8
BRANCH   2   9
ATOM      9  C   UNL     1       4.482   4.701  16.674  0.00  0.00    +0.000 C 
ATOM     10  N   UNL     1       5.683   4.224  16.744  0.00  0.00    +0.000 NA
BRANCH  10  11
ATOM     11  N   UNL     1       6.207   4.023  15.459  0.00  0.00    +0.000 NA
ATOM     12  C   UNL     1       7.013   4.983  15.114  0.00  0.00    +0.000 C 
ATOM     13  N   UNL     1       7.361   6.023  15.909  0.00  0.00    +0.000 N 
ATOM     14  N   UNL     1       7.635   5.021  13.917  0.00  0.00    +0.000 N 
ATOM     15  H   UNL     1       6.789   5.951  16.749  0.00  0.00    +0.000 HD
ATOM     16  H   UNL     1       7.249   6.928  15.482  0.00  0.00    +0.000 HD
ATOM     17  H   UNL     1       7.254   4.389  13.223  0.00  0.00    +0.000 HD
ATOM     18  H   UNL     1       7.936   5.918  13.569  0.00  0.00    +0.000 HD
ENDBRANCH  10  11
ENDBRANCH   2   9
BRANCH   5  19
ATOM     19  C   UNL     1       1.078   6.440  20.937  0.00  0.00    +0.000 C 
ATOM     20  N   UNL     1       0.981   7.724  21.062  0.00  0.00    +0.000 NA
BRANCH  20  21
ATOM     21  N   UNL     1       0.067   8.200  21.954  0.00  0.00    +0.000 N 
ATOM     22  C   UNL     1       0.159   9.478  22.425  0.00  0.00    +0.000 C 
ATOM     23  N   UNL     1       1.104  10.297  22.107  0.00  0.00    +0.000 NA
ATOM     24  N   UNL     1      -0.806   9.865  23.284  0.00  0.00    +0.000 N 
ATOM     25  H   UNL     1      -0.874   7.815  21.964  0.00  0.00    +0.000 HD
ATOM     26  H   UNL     1       1.676   9.742  21.448  0.00  0.00    +0.000 HD
ATOM     27  H   UNL     1      -0.932   9.214  24.049  0.00  0.00    +0.000 HD
ATOM     28  H   UNL     1      -0.546  10.777  23.651  0.00  0.00    +0.000 HD
ENDBRANCH  20  21
ENDBRANCH   5  19
BRANCH   6  29
ATOM     29  O   UNL     1       0.991   3.782  20.185  0.00  0.00    +0.000 OA
ATOM     30  C   UNL     1       1.428   3.020  21.305  0.00  0.00    +0.000 C 
ENDBRANCH   6  29
TORSDOF 6
ENDMDL
MODEL 5
REMARK VINA RESULT:      -6.7      3.322      4.305
REMARK  Name = 
REMARK  8 active torsions:
REMARK  status: ('A' for Active; 'I' for Inactive)
REMARK    1  A    between atoms: C_1  and  O_2
REMARK    2  A    between atoms: O_2  and  C_3
REMARK    3  A    between atoms: C_4  and  C_5
REMARK    4  A    between atoms: N_6  and  N_7
REMARK    5  A    between atoms: C_13  and  C_14
REMARK    6  A    between atoms: N_15  and  N_16
REMARK    7  A    between atoms: C_20  and  O_21
REMARK    8  A    between atoms: O_21  and  C_22
REMARK                            x       y       z     vdW  Elec       q    Type
REMARK                         _______ _______ _______ _____ _____    ______ ____
ROOT
ATOM      1  C   UNL     1       2.412   6.662  19.776  0.00  0.00    +0.000 A 
ATOM      2  C   UNL     1       3.226   6.355  18.662  0.00  0.00    +0.000 A 
ATOM      3  C   UNL     1       3.418   7.287  17.641  0.00  0.00    +0.000 A 
ATOM      4  C   UNL     1       2.723   8.489  17.666  0.00  0.00    +0.000 A 
ATOM      5  C   UNL     1       1.823   8.762  18.705  0.00  0.00    +0.000 A 
ATOM      6  C   UNL     1       1.659   7.860  19.775  0.00  0.00    +0.000 A 
ENDROOT
BRANCH   1   8
ATOM      7  C   UNL     1       1.364   4.789  20.751  0.00  0.00    +0.000 C 
ATOM      8  O   UNL     1       2.324   5.843  20.873  0.00  0.00    +0.000 OA
ENDBRANCH   1   8
BRANCH   2   9
ATOM      9  C   UNL     1       3.893   5.055  18.443  0.00  0.00    +0.000 C 
ATOM     10  N   UNL     1       3.252   4.001  18.053  0.00  0.00    +0.000 NA
BRANCH  10  11
ATOM     11  N   UNL     1       4.132   2.917  17.909  0.00  0.00    +0.000 NA
ATOM     12  C   UNL     1       3.577   1.799  18.273  0.00  0.00    +0.000 C 
ATOM     13  N   UNL     1       2.293   1.670  18.683  0.00  0.00    +0.000 N 
ATOM     14  N   UNL     1       4.226   0.616  18.237  0.00  0.00    +0.000 N 
ATOM     15  H   UNL     1       1.914   2.614  18.753  0.00  0.00    +0.000 HD
ATOM     16  H   UNL     1       2.183   1.181  19.556  0.00  0.00    +0.000 HD
ATOM     17  H   UNL     1       5.231   0.688  18.138  0.00  0.00    +0.000 HD
ATOM     18  H   UNL     1       3.901  -0.120  18.845  0.00  0.00    +0.000 HD
ENDBRANCH  10  11
ENDBRANCH   2   9
BRANCH   5  19
ATOM     19  C   UNL     1       1.007   9.999  18.603  0.00  0.00    +0.000 C 
ATOM     20  N   UNL     1      -0.182   9.933  18.097  0.00  0.00    +0.000 NA
BRANCH  20  21
ATOM     21  N   UNL     1      -0.917  11.081  18.073  0.00  0.00    +0.000 N 
ATOM     22  C   UNL     1      -2.252  11.042  17.795  0.00  0.00    +0.000 C 
ATOM     23  N   UNL     1      -2.898   9.963  17.507  0.00  0.00    +0.000 NA
ATOM     24  N   UNL     1      -2.898  12.226  17.818  0.00  0.00    +0.000 N 
ATOM     25  H   UNL     1      -0.627  11.877  18.635  0.00  0.00    +0.000 HD
ATOM     26  H   UNL     1      -2.166   9.235  17.571  0.00  0.00    +0.000 HD
ATOM     27  H   UNL     1      -2.440  12.932  17.255  0.00  0.00    +0.000 HD
ATOM     28  H   UNL     1      -3.841  12.072  17.471  0.00  0.00    +0.000 HD
ENDBRANCH  20  21
ENDBRANCH   5  19
BRANCH   6  29
ATOM     29  O   UNL     1       0.798   8.282  20.760  0.00  0.00    +0.000 OA
ATOM     30  C   UNL     1       1.353   8.871  21.931  0.00  0.00    +0.000 C 
ENDBRANCH   6  29
TORSDOF 6
ENDMDL
MODEL 6
REMARK VINA RESULT:      -6.6      2.599      8.048
REMARK  Name = 
REMARK  8 active torsions:
REMARK  status: ('A' for Active; 'I' for Inactive)
REMARK    1  A    between atoms: C_1  and  O_2
REMARK    2  A    between atoms: O_2  and  C_3
REMARK    3  A    between atoms: C_4  and  C_5
REMARK    4  A    between atoms: N_6  and  N_7
REMARK    5  A    between atoms: C_13  and  C_14
REMARK    6  A    between atoms: N_15  and  N_16
REMARK    7  A    between atoms: C_20  and  O_21
REMARK    8  A    between atoms: O_21  and  C_22
REMARK                            x       y       z     vdW  Elec       q    Type
REMARK                         _______ _______ _______ _____ _____    ______ ____
ROOT
ATOM      1  C   UNL     1       2.379   6.258  19.905  0.00  0.00    +0.000 A 
ATOM      2  C   UNL     1       1.824   7.555  19.985  0.00  0.00    +0.000 A 
ATOM      3  C   UNL     1       1.995   8.469  18.944  0.00  0.00    +0.000 A 
ATOM      4  C   UNL     1       2.803   8.140  17.864  0.00  0.00    +0.000 A 
ATOM      5  C   UNL     1       3.456   6.900  17.823  0.00  0.00    +0.000 A 
ATOM      6  C   UNL     1       3.250   5.942  18.835  0.00  0.00    +0.000 A 
ENDROOT
BRANCH   1   8
ATOM      7  C   UNL     1       1.060   4.379  20.442  0.00  0.00    +0.000 C 
ATOM      8  O   UNL     1       2.104   5.279  20.826  0.00  0.00    +0.000 OA
ENDBRANCH   1   8
BRANCH   2   9
ATOM      9  C   UNL     1       1.077   8.077  21.148  0.00  0.00    +0.000 C 
ATOM     10  N   UNL     1       1.097   9.326  21.485  0.00  0.00    +0.000 NA
BRANCH  10  11
ATOM     11  N   UNL     1       0.289   9.545  22.610  0.00  0.00    +0.000 NA
ATOM     12  C   UNL     1      -0.555  10.514  22.414  0.00  0.00    +0.000 C 
ATOM     13  N   UNL     1      -0.691  11.197  21.252  0.00  0.00    +0.000 N 
ATOM     14  N   UNL     1      -1.433  10.920  23.355  0.00  0.00    +0.000 N 
ATOM     15  H   UNL     1       0.057  10.878  20.638  0.00  0.00    +0.000 HD
ATOM     16  H   UNL     1      -0.661  12.199  21.354  0.00  0.00    +0.000 HD
ATOM     17  H   UNL     1      -1.234  10.588  24.290  0.00  0.00    +0.000 HD
ATOM     18  H   UNL     1      -1.787  11.862  23.295  0.00  0.00    +0.000 HD
ENDBRANCH  10  11
ENDBRANCH   2   9
BRANCH   5  19
ATOM     19  C   UNL     1       4.414   6.663  16.715  0.00  0.00    +0.000 C 
ATOM     20  N   UNL     1       5.685   6.692  16.959  0.00  0.00    +0.000 NA
BRANCH  20  21
ATOM     21  N   UNL     1       6.529   6.414  15.925  0.00  0.00    +0.000 N 
ATOM     22  C   UNL     1       6.971   5.141  15.715  0.00  0.00    +0.000 C 
ATOM     23  N   UNL     1       6.669   4.139  16.470  0.00  0.00    +0.000 NA
ATOM     24  N   UNL     1       7.782   4.962  14.653  0.00  0.00    +0.000 N 
ATOM     25  H   UNL     1       6.513   6.997  15.093  0.00  0.00    +0.000 HD
ATOM     26  H   UNL     1       6.047   4.565  17.177  0.00  0.00    +0.000 HD
ATOM     27  H   UNL     1       8.558   5.612  14.640  0.00  0.00    +0.000 HD
ATOM     28  H   UNL     1       8.135   4.009  14.690  0.00  0.00    +0.000 HD
ENDBRANCH  20  21
ENDBRANCH   5  19
BRANCH   6  29
ATOM     29  O   UNL     1       3.895   4.745  18.636  0.00  0.00    +0.000 OA
ATOM     30  C   UNL     1       4.945   4.390  19.529  0.00  0.00    +0.000 C 
ENDBRANCH   6  29
TORSDOF 6
ENDMDL
MODEL 7
REMARK VINA RESULT:      -6.6      1.069      1.069
REMARK  Name = 
REMARK  8 active torsions:
REMARK  status: ('A' for Active; 'I' for Inactive)
REMARK    1  A    between atoms: C_1  and  O_2
REMARK    2  A    between atoms: O_2  and  C_3
REMARK    3  A    between atoms: C_4  and  C_5
REMARK    4  A    between atoms: N_6  and  N_7
REMARK    5  A    between atoms: C_13  and  C_14
REMARK    6  A    between atoms: N_15  and  N_16
REMARK    7  A    between atoms: C_20  and  O_21
REMARK    8  A    between atoms: O_21  and  C_22
REMARK                            x       y       z     vdW  Elec       q    Type
REMARK                         _______ _______ _______ _____ _____    ______ ____
ROOT
ATOM      1  C   UNL     1       4.244   4.388  18.141  0.00  0.00    +0.000 A 
ATOM      2  C   UNL     1       4.840   5.001  17.015  0.00  0.00    +0.000 A 
ATOM      3  C   UNL     1       4.680   6.368  16.779  0.00  0.00    +0.000 A 
ATOM      4  C   UNL     1       3.846   7.115  17.600  0.00  0.00    +0.000 A 
ATOM      5  C   UNL     1       3.156   6.500  18.653  0.00  0.00    +0.000 A 
ATOM      6  C   UNL     1       3.348   5.135  18.943  0.00  0.00    +0.000 A 
ENDROOT
BRANCH   1   8
ATOM      7  C   UNL     1       3.640   2.123  17.891  0.00  0.00    +0.000 C 
ATOM      8  O   UNL     1       4.504   3.089  18.498  0.00  0.00    +0.000 OA
ENDBRANCH   1   8
BRANCH   2   9
ATOM      9  C   UNL     1       5.620   4.285  15.986  0.00  0.00    +0.000 C 
ATOM     10  N   UNL     1       5.563   4.591  14.729  0.00  0.00    +0.000 NA
BRANCH  10  11
ATOM     11  N   UNL     1       6.416   3.765  13.983  0.00  0.00    +0.000 NA
ATOM     12  C   UNL     1       5.878   3.418  12.851  0.00  0.00    +0.000 C 
ATOM     13  N   UNL     1       4.671   3.844  12.407  0.00  0.00    +0.000 N 
ATOM     14  N   UNL     1       6.500   2.616  11.962  0.00  0.00    +0.000 N 
ATOM     15  H   UNL     1       4.250   4.372  13.170  0.00  0.00    +0.000 HD
ATOM     16  H   UNL     1       4.055   3.105  12.108  0.00  0.00    +0.000 HD
ATOM     17  H   UNL     1       7.298   2.115  12.331  0.00  0.00    +0.000 HD
ATOM     18  H   UNL     1       5.928   2.102  11.310  0.00  0.00    +0.000 HD
ENDBRANCH  10  11
ENDBRANCH   2   9
BRANCH   5  19
ATOM     19  C   UNL     1       2.173   7.320  19.405  0.00  0.00    +0.000 C 
ATOM     20  N   UNL     1       1.888   8.510  18.985  0.00  0.00    +0.000 NA
BRANCH  20  21
ATOM     21  N   UNL     1       0.941   9.208  19.673  0.00  0.00    +0.000 N 
ATOM     22  C   UNL     1       0.125  10.090  19.026  0.00  0.00    +0.000 C 
ATOM     23  N   UNL     1       0.204  10.356  17.766  0.00  0.00    +0.000 NA
ATOM     24  N   UNL     1      -0.797  10.714  19.788  0.00  0.00    +0.000 N 
ATOM     25  H   UNL     1       0.547   8.816  20.524  0.00  0.00    +0.000 HD
ATOM     26  H   UNL     1       0.974   9.741  17.451  0.00  0.00    +0.000 HD
ATOM     27  H   UNL     1      -0.397  11.142  20.613  0.00  0.00    +0.000 HD
ATOM     28  H   UNL     1      -1.241  11.427  19.215  0.00  0.00    +0.000 HD
ENDBRANCH  20  21
ENDBRANCH   5  19
BRANCH   6  29
ATOM     29  O   UNL     1       2.664   4.676  20.043  0.00  0.00    +0.000 OA
ATOM     30  C   UNL     1       1.408   4.039  19.837  0.00  0.00    +0.000 C 
ENDBRANCH   6  29
TORSDOF 6
ENDMDL
MODEL 8
REMARK VINA RESULT:      -6.4      3.323      8.053
REMARK  Name = 
REMARK  8 active torsions:
REMARK  status: ('A' for Active; 'I' for Inactive)
REMARK    1  A    between atoms: C_1  and  O_2
REMARK    2  A    between atoms: O_2  and  C_3
REMARK    3  A    between atoms: C_4  and  C_5
REMARK    4  A    between atoms: N_6  and  N_7
REMARK    5  A    between atoms: C_13  and  C_14
REMARK    6  A    between atoms: N_15  and  N_16
REMARK    7  A    between atoms: C_20  and  O_21
REMARK    8  A    between atoms: O_21  and  C_22
REMARK                            x       y       z     vdW  Elec       q    Type
REMARK                         _______ _______ _______ _____ _____    ______ ____
ROOT
ATOM      1  C   UNL     1       1.617   7.891  19.925  0.00  0.00    +0.000 A 
ATOM      2  C   UNL     1       1.922   8.814  18.899  0.00  0.00    +0.000 A 
ATOM      3  C   UNL     1       2.670   8.421  17.787  0.00  0.00    +0.000 A 
ATOM      4  C   UNL     1       3.205   7.141  17.734  0.00  0.00    +0.000 A 
ATOM      5  C   UNL     1       3.009   6.250  18.798  0.00  0.00    +0.000 A 
ATOM      6  C   UNL     1       2.210   6.607  19.902  0.00  0.00    +0.000 A 
ENDROOT
BRANCH   1   8
ATOM      7  C   UNL     1       1.366   8.850  22.064  0.00  0.00    +0.000 C 
ATOM      8  O   UNL     1       0.756   8.189  20.952  0.00  0.00    +0.000 OA
ENDBRANCH   1   8
BRANCH   2   9
ATOM      9  C   UNL     1       1.543  10.241  18.913  0.00  0.00    +0.000 C 
ATOM     10  N   UNL     1       0.317  10.635  19.039  0.00  0.00    +0.000 NA
BRANCH  10  11
ATOM     11  N   UNL     1       0.248  12.036  19.039  0.00  0.00    +0.000 NA
ATOM     12  C   UNL     1      -0.668  12.472  18.226  0.00  0.00    +0.000 C 
ATOM     13  N   UNL     1      -1.502  11.682  17.508  0.00  0.00    +0.000 N 
ATOM     14  N   UNL     1      -0.918  13.785  18.043  0.00  0.00    +0.000 N 
ATOM     15  H   UNL     1      -1.188  10.723  17.649  0.00  0.00    +0.000 HD
ATOM     16  H   UNL     1      -1.536  11.901  16.525  0.00  0.00    +0.000 HD
ATOM     17  H   UNL     1      -0.197  14.405  18.391  0.00  0.00    +0.000 HD
ATOM     18  H   UNL     1      -1.352  14.067  17.177  0.00  0.00    +0.000 HD
ENDBRANCH  10  11
ENDBRANCH   2   9
BRANCH   5  19
ATOM     19  C   UNL     1       3.722   4.949  18.747  0.00  0.00    +0.000 C 
ATOM     20  N   UNL     1       3.297   4.024  17.946  0.00  0.00    +0.000 NA
BRANCH  20  21
ATOM     21  N   UNL     1       4.013   2.866  17.890  0.00  0.00    +0.000 N 
ATOM     22  C   UNL     1       3.447   1.683  18.268  0.00  0.00    +0.000 C 
ATOM     23  N   UNL     1       2.246   1.573  18.727  0.00  0.00    +0.000 NA
ATOM     24  N   UNL     1       4.227   0.589  18.155  0.00  0.00    +0.000 N 
ATOM     25  H   UNL     1       4.771   2.774  17.219  0.00  0.00    +0.000 HD
ATOM     26  H   UNL     1       1.898   2.546  18.694  0.00  0.00    +0.000 HD
ATOM     27  H   UNL     1       5.130   0.705  18.596  0.00  0.00    +0.000 HD
ATOM     28  H   UNL     1       3.733  -0.189  18.586  0.00  0.00    +0.000 HD
ENDBRANCH  20  21
ENDBRANCH   5  19
BRANCH   6  29
ATOM     29  O   UNL     1       2.044   5.615  20.839  0.00  0.00    +0.000 OA
ATOM     30  C   UNL     1       1.061   4.615  20.593  0.00  0.00    +0.000 C 
ENDBRANCH   6  29
TORSDOF 6
ENDMDL
MODEL 9
REMARK VINA RESULT:      -6.4      2.138      2.767
REMARK  Name = 
REMARK  8 active torsions:
REMARK  status: ('A' for Active; 'I' for Inactive)
REMARK    1  A    between atoms: C_1  and  O_2
REMARK    2  A    between atoms: O_2  and  C_3
REMARK    3  A    between atoms: C_4  and  C_5
REMARK    4  A    between atoms: N_6  and  N_7
REMARK    5  A    between atoms: C_13  and  C_14
REMARK    6  A    between atoms: N_15  and  N_16
REMARK    7  A    between atoms: C_20  and  O_21
REMARK    8  A    between atoms: O_21  and  C_22
REMARK                            x       y       z     vdW  Elec       q    Type
REMARK                         _______ _______ _______ _____ _____    ______ ____
ROOT
ATOM      1  C   UNL     1       3.452   5.272  18.643  0.00  0.00    +0.000 A 
ATOM      2  C   UNL     1       3.738   6.216  17.630  0.00  0.00    +0.000 A 
ATOM      3  C   UNL     1       3.326   7.544  17.757  0.00  0.00    +0.000 A 
ATOM      4  C   UNL     1       2.541   7.921  18.838  0.00  0.00    +0.000 A 
ATOM      5  C   UNL     1       2.151   6.972  19.793  0.00  0.00    +0.000 A 
ATOM      6  C   UNL     1       2.603   5.640  19.713  0.00  0.00    +0.000 A 
ENDROOT
BRANCH   1   8
ATOM      7  C   UNL     1       5.231   3.872  19.300  0.00  0.00    +0.000 C 
ATOM      8  O   UNL     1       3.971   4.002  18.634  0.00  0.00    +0.000 OA
ENDBRANCH   1   8
BRANCH   2   9
ATOM      9  C   UNL     1       4.430   5.904  16.363  0.00  0.00    +0.000 C 
ATOM     10  N   UNL     1       5.716   5.783  16.283  0.00  0.00    +0.000 NA
BRANCH  10  11
ATOM     11  N   UNL     1       6.099   5.468  14.970  0.00  0.00    +0.000 NA
ATOM     12  C   UNL     1       6.239   4.187  14.807  0.00  0.00    +0.000 C 
ATOM     13  N   UNL     1       5.991   3.254  15.758  0.00  0.00    +0.000 N 
ATOM     14  N   UNL     1       6.613   3.636  13.632  0.00  0.00    +0.000 N 
ATOM     15  H   UNL     1       5.795   3.762  16.619  0.00  0.00    +0.000 HD
ATOM     16  H   UNL     1       6.741   2.596  15.899  0.00  0.00    +0.000 HD
ATOM     17  H   UNL     1       7.003   4.290  12.965  0.00  0.00    +0.000 HD
ATOM     18  H   UNL     1       7.047   2.727  13.654  0.00  0.00    +0.000 HD
ENDBRANCH  10  11
ENDBRANCH   2   9
BRANCH   5  19
ATOM     19  C   UNL     1       1.198   7.404  20.845  0.00  0.00    +0.000 C 
ATOM     20  N   UNL     1       1.222   8.631  21.257  0.00  0.00    +0.000 NA
BRANCH  20  21
ATOM     21  N   UNL     1       0.294   9.000  22.185  0.00  0.00    +0.000 N 
ATOM     22  C   UNL     1      -0.064  10.309  22.323  0.00  0.00    +0.000 C 
ATOM     23  N   UNL     1       0.453  11.274  21.640  0.00  0.00    +0.000 NA
ATOM     24  N   UNL     1      -1.007  10.572  23.251  0.00  0.00    +0.000 N 
ATOM     25  H   UNL     1      -0.418   8.335  22.476  0.00  0.00    +0.000 HD
ATOM     26  H   UNL     1       1.121  10.784  21.022  0.00  0.00    +0.000 HD
ATOM     27  H   UNL     1      -0.791  10.167  24.152  0.00  0.00    +0.000 HD
ATOM     28  H   UNL     1      -1.083  11.582  23.338  0.00  0.00    +0.000 HD
ENDBRANCH  20  21
ENDBRANCH   5  19
BRANCH   6  29
ATOM     29  O   UNL     1       2.202   4.831  20.750  0.00  0.00    +0.000 OA
ATOM     30  C   UNL     1       1.162   3.891  20.506  0.00  0.00    +0.000 C 
ENDBRANCH   6  29
TORSDOF 6
ENDMDL
