MODEL 1
REMARK VINA RESULT:      -6.8      0.000      0.000
REMARK  Name = 
REMARK  4 active torsions:
REMARK  status: ('A' for Active; 'I' for Inactive)
REMARK    1  A    between atoms: C_2  and  C_3
REMARK    2  A    between atoms: C_3  and  N_4
REMARK    3  A    between atoms: N_4  and  N_5
REMARK    4  A    between atoms: C_13  and  C_14
REMARK                            x       y       z     vdW  Elec       q    Type
REMARK                         _______ _______ _______ _____ _____    ______ ____
ROOT
ATOM      1  N   UNL     1       3.453   4.906  18.822  0.00  0.00    +0.000 N 
ATOM      2  C   UNL     1       2.928   6.188  18.768  0.00  0.00    +0.000 A 
ATOM      3  N   UNL     1       2.353   6.836  19.767  0.00  0.00    +0.000 NA
ATOM      4  C   UNL     1       1.874   8.082  19.398  0.00  0.00    +0.000 A 
ATOM      5  C   UNL     1       2.173   8.433  18.100  0.00  0.00    +0.000 A 
ATOM      6  S   UNL     1       3.023   7.163  17.325  0.00  0.00    +0.000 S 
ENDROOT
BRANCH   4   7
ATOM      7  C   UNL     1       1.156   8.935  20.348  0.00  0.00    +0.000 A 
ATOM      8  C   UNL     1       0.756  10.223  19.958  0.00  0.00    +0.000 A 
ATOM      9  C   UNL     1       0.033  11.048  20.829  0.00  0.00    +0.000 A 
ATOM     10  C   UNL     1      -0.284  10.592  22.105  0.00  0.00    +0.000 A 
ATOM     11 CL   UNL     1      -1.192  11.592  23.171  0.00  0.00    +0.000 Cl
ATOM     12  C   UNL     1       0.132   9.331  22.525  0.00  0.00    +0.000 A 
ATOM     13  C   UNL     1       0.852   8.508  21.651  0.00  0.00    +0.000 A 
ENDBRANCH   4   7
BRANCH   1  14
ATOM     14  N   UNL     1       4.487   4.559  17.968  0.00  0.00    +0.000 NA
ATOM     15  C   UNL     1       5.703   4.904  18.257  0.00  0.00    +0.000 C 
ATOM     16  C   UNL     1       6.781   4.758  17.216  0.00  0.00    +0.000 C 
ATOM     17  C   UNL     1       7.774   5.812  17.688  0.00  0.00    +0.000 C 
ATOM     18  C   UNL     1       7.711   5.743  19.207  0.00  0.00    +0.000 C 
ATOM     19  C   UNL     1       6.241   5.543  19.513  0.00  0.00    +0.000 C 
ENDBRANCH   1  14
BRANCH   1  20
ATOM     20  C   UNL     1       2.919   3.911  19.776  0.00  0.00    +0.000 C 
BRANCH  20  22
ATOM     21  C   UNL     1       0.681   2.484  18.811  0.00  0.00    +0.000 C 
ATOM     22  C   UNL     1       1.715   3.143  19.256  0.00  0.00    +0.000 C 
ENDBRANCH  20  22
ENDBRANCH   1  20
TORSDOF 4
ENDMDL
MODEL 2
REMARK VINA RESULT:      -6.7      2.491      4.210
REMARK  Name = 
REMARK  4 active torsions:
REMARK  status: ('A' for Active; 'I' for Inactive)
REMARK    1  A    between atoms: C_2  and  C_3
REMARK    2  A    between atoms: C_3  and  N_4
REMARK    3  A    between atoms: N_4  and  N_5
REMARK    4  A    between atoms: C_13  and  C_14
REMARK                            x       y       z     vdW  Elec       q    Type
REMARK                         _______ _______ _______ _____ _____    ______ ____
ROOT
ATOM      1  N   UNL     1       5.688   5.061  16.384  0.00  0.00    +0.000 N 
ATOM      2  C   UNL     1       4.483   5.292  17.030  0.00  0.00    +0.000 A 
ATOM      3  N   UNL     1       4.050   6.459  17.474  0.00  0.00    +0.000 NA
ATOM      4  C   UNL     1       2.832   6.369  18.128  0.00  0.00    +0.000 A 
ATOM      5  C   UNL     1       2.276   5.110  18.103  0.00  0.00    +0.000 A 
ATOM      6  S   UNL     1       3.318   4.019  17.291  0.00  0.00    +0.000 S 
ENDROOT
BRANCH   4   7
ATOM      7  C   UNL     1       2.208   7.544  18.740  0.00  0.00    +0.000 A 
ATOM      8  C   UNL     1       1.930   8.672  17.950  0.00  0.00    +0.000 A 
ATOM      9  C   UNL     1       1.298   9.796  18.496  0.00  0.00    +0.000 A 
ATOM     10  C   UNL     1       0.949   9.804  19.844  0.00  0.00    +0.000 A 
ATOM     11 CL   UNL     1       0.150  11.173  20.513  0.00  0.00    +0.000 Cl
ATOM     12  C   UNL     1       1.245   8.711  20.653  0.00  0.00    +0.000 A 
ATOM     13  C   UNL     1       1.875   7.587  20.104  0.00  0.00    +0.000 A 
ENDBRANCH   4   7
BRANCH   1  14
ATOM     14  N   UNL     1       5.790   4.005  15.493  0.00  0.00    +0.000 NA
ATOM     15  C   UNL     1       6.419   4.168  14.372  0.00  0.00    +0.000 C 
ATOM     16  C   UNL     1       6.310   3.116  13.301  0.00  0.00    +0.000 C 
ATOM     17  C   UNL     1       6.589   3.949  12.056  0.00  0.00    +0.000 C 
ATOM     18  C   UNL     1       7.649   4.948  12.496  0.00  0.00    +0.000 C 
ATOM     19  C   UNL     1       7.231   5.348  13.896  0.00  0.00    +0.000 C 
ENDBRANCH   1  14
BRANCH   1  20
ATOM     20  C   UNL     1       6.859   5.925  16.640  0.00  0.00    +0.000 C 
BRANCH  20  22
ATOM     21  C   UNL     1       7.869   5.736  19.271  0.00  0.00    +0.000 C 
ATOM     22  C   UNL     1       7.403   5.824  18.056  0.00  0.00    +0.000 C 
ENDBRANCH  20  22
ENDBRANCH   1  20
TORSDOF 4
ENDMDL
MODEL 3
REMARK VINA RESULT:      -6.7      0.211      1.036
REMARK  Name = 
REMARK  4 active torsions:
REMARK  status: ('A' for Active; 'I' for Inactive)
REMARK    1  A    between atoms: C_2  and  C_3
REMARK    2  A    between atoms: C_3  and  N_4
REMARK    3  A    between atoms: N_4  and  N_5
REMARK    4  A    between atoms: C_13  and  C_14
REMARK                            x       y       z     vdW  Elec       q    Type
REMARK                         _______ _______ _______ _____ _____    ______ ____
ROOT
ATOM      1  N   UNL     1       3.518   4.743  18.855  0.00  0.00    +0.000 N 
ATOM      2  C   UNL     1       3.005   6.027  18.764  0.00  0.00    +0.000 A 
ATOM      3  N   UNL     1       2.392   6.691  19.730  0.00  0.00    +0.000 NA
ATOM      4  C   UNL     1       1.940   7.936  19.326  0.00  0.00    +0.000 A 
ATOM      5  C   UNL     1       2.298   8.270  18.039  0.00  0.00    +0.000 A 
ATOM      6  S   UNL     1       3.171   6.985  17.315  0.00  0.00    +0.000 S 
ENDROOT
BRANCH   4   7
ATOM      7  C   UNL     1       1.188   8.804  20.234  0.00  0.00    +0.000 A 
ATOM      8  C   UNL     1       1.124   8.489  21.601  0.00  0.00    +0.000 A 
ATOM      9  C   UNL     1       0.448   9.319  22.502  0.00  0.00    +0.000 A 
ATOM     10  C   UNL     1      -0.184  10.470  22.038  0.00  0.00    +0.000 A 
ATOM     11 CL   UNL     1      -0.996  11.507  23.144  0.00  0.00    +0.000 Cl
ATOM     12  C   UNL     1      -0.163  10.785  20.682  0.00  0.00    +0.000 A 
ATOM     13  C   UNL     1       0.517   9.953  19.783  0.00  0.00    +0.000 A 
ENDBRANCH   4   7
BRANCH   1  14
ATOM     14  N   UNL     1       4.585   4.378  18.051  0.00  0.00    +0.000 NA
ATOM     15  C   UNL     1       5.780   4.788  18.343  0.00  0.00    +0.000 C 
ATOM     16  C   UNL     1       6.889   4.614  17.341  0.00  0.00    +0.000 C 
ATOM     17  C   UNL     1       7.831   5.735  17.762  0.00  0.00    +0.000 C 
ATOM     18  C   UNL     1       7.731   5.766  19.280  0.00  0.00    +0.000 C 
ATOM     19  C   UNL     1       6.262   5.531  19.565  0.00  0.00    +0.000 C 
ENDBRANCH   1  14
BRANCH   1  20
ATOM     20  C   UNL     1       2.935   3.762  19.796  0.00  0.00    +0.000 C 
BRANCH  20  22
ATOM     21  C   UNL     1       0.661   2.422  18.791  0.00  0.00    +0.000 C 
ATOM     22  C   UNL     1       1.711   3.041  19.255  0.00  0.00    +0.000 C 
ENDBRANCH  20  22
ENDBRANCH   1  20
TORSDOF 4
ENDMDL
MODEL 4
REMARK VINA RESULT:      -6.7      2.568      4.421
REMARK  Name = 
REMARK  4 active torsions:
REMARK  status: ('A' for Active; 'I' for Inactive)
REMARK    1  A    between atoms: C_2  and  C_3
REMARK    2  A    between atoms: C_3  and  N_4
REMARK    3  A    between atoms: N_4  and  N_5
REMARK    4  A    between atoms: C_13  and  C_14
REMARK                            x       y       z     vdW  Elec       q    Type
REMARK                         _______ _______ _______ _____ _____    ______ ____
ROOT
ATOM      1  N   UNL     1       5.813   4.891  16.311  0.00  0.00    +0.000 N 
ATOM      2  C   UNL     1       4.604   5.080  16.962  0.00  0.00    +0.000 A 
ATOM      3  N   UNL     1       4.155   6.223  17.453  0.00  0.00    +0.000 NA
ATOM      4  C   UNL     1       2.936   6.090  18.099  0.00  0.00    +0.000 A 
ATOM      5  C   UNL     1       2.396   4.826  18.019  0.00  0.00    +0.000 A 
ATOM      6  S   UNL     1       3.454   3.783  17.165  0.00  0.00    +0.000 S 
ENDROOT
BRANCH   4   7
ATOM      7  C   UNL     1       2.296   7.230  18.757  0.00  0.00    +0.000 A 
ATOM      8  C   UNL     1       2.012   7.168  20.132  0.00  0.00    +0.000 A 
ATOM      9  C   UNL     1       1.437   8.256  20.799  0.00  0.00    +0.000 A 
ATOM     10  C   UNL     1       1.129   9.414  20.091  0.00  0.00    +0.000 A 
ATOM     11 CL   UNL     1       0.445  10.763  20.911  0.00  0.00    +0.000 Cl
ATOM     12  C   UNL     1       1.371   9.486  18.722  0.00  0.00    +0.000 A 
ATOM     13  C   UNL     1       1.948   8.397  18.057  0.00  0.00    +0.000 A 
ENDBRANCH   4   7
BRANCH   1  14
ATOM     14  N   UNL     1       5.931   3.875  15.377  0.00  0.00    +0.000 NA
ATOM     15  C   UNL     1       6.519   4.107  14.245  0.00  0.00    +0.000 C 
ATOM     16  C   UNL     1       6.420   3.092  13.138  0.00  0.00    +0.000 C 
ATOM     17  C   UNL     1       6.628   3.983  11.919  0.00  0.00    +0.000 C 
ATOM     18  C   UNL     1       7.660   5.007  12.367  0.00  0.00    +0.000 C 
ATOM     19  C   UNL     1       7.268   5.336  13.793  0.00  0.00    +0.000 C 
ENDBRANCH   1  14
BRANCH   1  20
ATOM     20  C   UNL     1       6.973   5.759  16.607  0.00  0.00    +0.000 C 
BRANCH  20  22
ATOM     21  C   UNL     1       7.779   5.712  19.313  0.00  0.00    +0.000 C 
ATOM     22  C   UNL     1       7.406   5.734  18.064  0.00  0.00    +0.000 C 
ENDBRANCH  20  22
ENDBRANCH   1  20
TORSDOF 4
ENDMDL
MODEL 5
REMARK VINA RESULT:      -6.5      3.515      7.774
REMARK  Name = 
REMARK  4 active torsions:
REMARK  status: ('A' for Active; 'I' for Inactive)
REMARK    1  A    between atoms: C_2  and  C_3
REMARK    2  A    between atoms: C_3  and  N_4
REMARK    3  A    between atoms: N_4  and  N_5
REMARK    4  A    between atoms: C_13  and  C_14
REMARK                            x       y       z     vdW  Elec       q    Type
REMARK                         _______ _______ _______ _____ _____    ______ ____
ROOT
ATOM      1  N   UNL     1       0.633   9.820  20.269  0.00  0.00    +0.000 N 
ATOM      2  C   UNL     1       1.382   9.021  19.420  0.00  0.00    +0.000 A 
ATOM      3  N   UNL     1       1.529   7.710  19.513  0.00  0.00    +0.000 NA
ATOM      4  C   UNL     1       2.383   7.194  18.552  0.00  0.00    +0.000 A 
ATOM      5  C   UNL     1       2.830   8.126  17.643  0.00  0.00    +0.000 A 
ATOM      6  S   UNL     1       2.208   9.676  18.029  0.00  0.00    +0.000 S 
ENDROOT
BRANCH   4   7
ATOM      7  C   UNL     1       2.719   5.769  18.519  0.00  0.00    +0.000 A 
ATOM      8  C   UNL     1       3.885   5.317  19.159  0.00  0.00    +0.000 A 
ATOM      9  C   UNL     1       4.214   3.956  19.180  0.00  0.00    +0.000 A 
ATOM     10  C   UNL     1       3.382   3.036  18.548  0.00  0.00    +0.000 A 
ATOM     11 CL   UNL     1       3.768   1.360  18.591  0.00  0.00    +0.000 Cl
ATOM     12  C   UNL     1       2.239   3.466  17.878  0.00  0.00    +0.000 A 
ATOM     13  C   UNL     1       1.912   4.827  17.861  0.00  0.00    +0.000 A 
ENDBRANCH   4   7
BRANCH   1  14
ATOM     14  N   UNL     1       0.091  11.002  19.790  0.00  0.00    +0.000 NA
ATOM     15  C   UNL     1      -0.980  10.968  19.059  0.00  0.00    +0.000 C 
ATOM     16  C   UNL     1      -1.417  12.210  18.330  0.00  0.00    +0.000 C 
ATOM     17  C   UNL     1      -2.210  11.599  17.181  0.00  0.00    +0.000 C 
ATOM     18  C   UNL     1      -2.908  10.396  17.798  0.00  0.00    +0.000 C 
ATOM     19  C   UNL     1      -1.875   9.799  18.732  0.00  0.00    +0.000 C 
ENDBRANCH   1  14
BRANCH   1  20
ATOM     20  C   UNL     1       0.412   9.426  21.677  0.00  0.00    +0.000 C 
BRANCH  20  22
ATOM     21  C   UNL     1      -1.322  11.148  23.092  0.00  0.00    +0.000 C 
ATOM     22  C   UNL     1      -0.522  10.353  22.439  0.00  0.00    +0.000 C 
ENDBRANCH  20  22
ENDBRANCH   1  20
TORSDOF 4
ENDMDL
MODEL 6
REMARK VINA RESULT:      -6.5      2.062      2.886
REMARK  Name = 
REMARK  4 active torsions:
REMARK  status: ('A' for Active; 'I' for Inactive)
REMARK    1  A    between atoms: C_2  and  C_3
REMARK    2  A    between atoms: C_3  and  N_4
REMARK    3  A    between atoms: N_4  and  N_5
REMARK    4  A    between atoms: C_13  and  C_14
REMARK                            x       y       z     vdW  Elec       q    Type
REMARK                         _______ _______ _______ _____ _____    ______ ____
ROOT
ATOM      1  N   UNL     1       2.404   6.281  19.918  0.00  0.00    +0.000 N 
ATOM      2  C   UNL     1       2.060   7.540  19.450  0.00  0.00    +0.000 A 
ATOM      3  N   UNL     1       1.353   8.447  20.102  0.00  0.00    +0.000 NA
ATOM      4  C   UNL     1       1.123   9.591  19.356  0.00  0.00    +0.000 A 
ATOM      5  C   UNL     1       1.750   9.594  18.130  0.00  0.00    +0.000 A 
ATOM      6  S   UNL     1       2.598   8.123  17.896  0.00  0.00    +0.000 S 
ENDROOT
BRANCH   4   7
ATOM      7  C   UNL     1       0.313  10.692  19.881  0.00  0.00    +0.000 A 
ATOM      8  C   UNL     1      -0.784  11.160  19.139  0.00  0.00    +0.000 A 
ATOM      9  C   UNL     1      -1.602  12.185  19.631  0.00  0.00    +0.000 A 
ATOM     10  C   UNL     1      -1.319  12.759  20.868  0.00  0.00    +0.000 A 
ATOM     11 CL   UNL     1      -2.335  14.001  21.488  0.00  0.00    +0.000 Cl
ATOM     12  C   UNL     1      -0.217  12.333  21.604  0.00  0.00    +0.000 A 
ATOM     13  C   UNL     1       0.598  11.307  21.111  0.00  0.00    +0.000 A 
ENDBRANCH   4   7
BRANCH   1  14
ATOM     14  N   UNL     1       3.556   5.673  19.450  0.00  0.00    +0.000 NA
ATOM     15  C   UNL     1       3.474   4.750  18.543  0.00  0.00    +0.000 C 
ATOM     16  C   UNL     1       4.684   3.915  18.225  0.00  0.00    +0.000 C 
ATOM     17  C   UNL     1       4.023   2.652  17.686  0.00  0.00    +0.000 C 
ATOM     18  C   UNL     1       2.814   3.156  16.912  0.00  0.00    +0.000 C 
ATOM     19  C   UNL     1       2.271   4.288  17.759  0.00  0.00    +0.000 C 
ENDBRANCH   1  14
BRANCH   1  20
ATOM     20  C   UNL     1       1.551   5.585  20.905  0.00  0.00    +0.000 C 
BRANCH  20  22
ATOM     21  C   UNL     1       2.431   2.979  21.544  0.00  0.00    +0.000 C 
ATOM     22  C   UNL     1       2.024   4.182  21.249  0.00  0.00    +0.000 C 
ENDBRANCH  20  22
ENDBRANCH   1  20
TORSDOF 4
ENDMDL
MODEL 7
REMARK VINA RESULT:      -6.5      1.900      2.962
REMARK  Name = 
REMARK  4 active torsions:
REMARK  status: ('A' for Active; 'I' for Inactive)
REMARK    1  A    between atoms: C_2  and  C_3
REMARK    2  A    between atoms: C_3  and  N_4
REMARK    3  A    between atoms: N_4  and  N_5
REMARK    4  A    between atoms: C_13  and  C_14
REMARK                            x       y       z     vdW  Elec       q    Type
REMARK                         _______ _______ _______ _____ _____    ______ ____
ROOT
ATOM      1  N   UNL     1       2.284   6.150  20.117  0.00  0.00    +0.000 N 
ATOM      2  C   UNL     1       1.852   7.447  19.890  0.00  0.00    +0.000 A 
ATOM      3  N   UNL     1       1.141   8.187  20.723  0.00  0.00    +0.000 NA
ATOM      4  C   UNL     1       0.811   9.426  20.197  0.00  0.00    +0.000 A 
ATOM      5  C   UNL     1       1.363   9.673  18.960  0.00  0.00    +0.000 A 
ATOM      6  S   UNL     1       2.268   8.316  18.434  0.00  0.00    +0.000 S 
ENDROOT
BRANCH   4   7
ATOM      7  C   UNL     1      -0.020  10.373  20.943  0.00  0.00    +0.000 A 
ATOM      8  C   UNL     1      -0.370  10.090  22.274  0.00  0.00    +0.000 A 
ATOM      9  C   UNL     1      -1.129  10.993  23.028  0.00  0.00    +0.000 A 
ATOM     10  C   UNL     1      -1.556  12.185  22.449  0.00  0.00    +0.000 A 
ATOM     11 CL   UNL     1      -2.469  13.309  23.378  0.00  0.00    +0.000 Cl
ATOM     12  C   UNL     1      -1.250  12.471  21.121  0.00  0.00    +0.000 A 
ATOM     13  C   UNL     1      -0.489  11.567  20.371  0.00  0.00    +0.000 A 
ENDBRANCH   4   7
BRANCH   1  14
ATOM     14  N   UNL     1       3.436   5.698  19.494  0.00  0.00    +0.000 NA
ATOM     15  C   UNL     1       3.349   4.852  18.516  0.00  0.00    +0.000 C 
ATOM     16  C   UNL     1       4.593   4.169  18.015  0.00  0.00    +0.000 C 
ATOM     17  C   UNL     1       3.998   2.898  17.421  0.00  0.00    +0.000 C 
ATOM     18  C   UNL     1       2.680   3.345  16.807  0.00  0.00    +0.000 C 
ATOM     19  C   UNL     1       2.122   4.343  17.801  0.00  0.00    +0.000 C 
ENDBRANCH   1  14
BRANCH   1  20
ATOM     20  C   UNL     1       1.527   5.248  21.010  0.00  0.00    +0.000 C 
BRANCH  20  22
ATOM     21  C   UNL     1       2.776   2.753  21.448  0.00  0.00    +0.000 C 
ATOM     22  C   UNL     1       2.200   3.905  21.246  0.00  0.00    +0.000 C 
ENDBRANCH  20  22
ENDBRANCH   1  20
TORSDOF 4
ENDMDL
MODEL 8
REMARK VINA RESULT:      -6.5      1.907      2.796
REMARK  Name = 
REMARK  4 active torsions:
REMARK  status: ('A' for Active; 'I' for Inactive)
REMARK    1  A    between atoms: C_2  and  C_3
REMARK    2  A    between atoms: C_3  and  N_4
REMARK    3  A    between atoms: N_4  and  N_5
REMARK    4  A    between atoms: C_13  and  C_14
REMARK                            x       y       z     vdW  Elec       q    Type
REMARK                         _______ _______ _______ _____ _____    ______ ____
ROOT
ATOM      1  N   UNL     1       2.267   6.132  20.161  0.00  0.00    +0.000 N 
ATOM      2  C   UNL     1       1.815   7.426  19.951  0.00  0.00    +0.000 A 
ATOM      3  N   UNL     1       1.094   8.145  20.793  0.00  0.00    +0.000 NA
ATOM      4  C   UNL     1       0.745   9.384  20.282  0.00  0.00    +0.000 A 
ATOM      5  C   UNL     1       1.293   9.655  19.049  0.00  0.00    +0.000 A 
ATOM      6  S   UNL     1       2.217   8.318  18.506  0.00  0.00    +0.000 S 
ENDROOT
BRANCH   4   7
ATOM      7  C   UNL     1      -0.100  10.310  21.041  0.00  0.00    +0.000 A 
ATOM      8  C   UNL     1      -0.633  11.442  20.404  0.00  0.00    +0.000 A 
ATOM      9  C   UNL     1      -1.476  12.325  21.090  0.00  0.00    +0.000 A 
ATOM     10  C   UNL     1      -1.782  12.086  22.427  0.00  0.00    +0.000 A 
ATOM     11 CL   UNL     1      -2.837  13.155  23.267  0.00  0.00    +0.000 Cl
ATOM     12  C   UNL     1      -1.238  10.989  23.088  0.00  0.00    +0.000 A 
ATOM     13  C   UNL     1      -0.397  10.106  22.399  0.00  0.00    +0.000 A 
ENDBRANCH   4   7
BRANCH   1  14
ATOM     14  N   UNL     1       3.425   5.705  19.533  0.00  0.00    +0.000 NA
ATOM     15  C   UNL     1       3.349   4.876  18.538  0.00  0.00    +0.000 C 
ATOM     16  C   UNL     1       4.601   4.217  18.027  0.00  0.00    +0.000 C 
ATOM     17  C   UNL     1       4.022   2.951  17.409  0.00  0.00    +0.000 C 
ATOM     18  C   UNL     1       2.699   3.394  16.801  0.00  0.00    +0.000 C 
ATOM     19  C   UNL     1       2.129   4.368  17.811  0.00  0.00    +0.000 C 
ENDBRANCH   1  14
BRANCH   1  20
ATOM     20  C   UNL     1       1.524   5.208  21.044  0.00  0.00    +0.000 C 
BRANCH  20  22
ATOM     21  C   UNL     1       2.795   2.715  21.426  0.00  0.00    +0.000 C 
ATOM     22  C   UNL     1       2.209   3.866  21.250  0.00  0.00    +0.000 C 
ENDBRANCH  20  22
ENDBRANCH   1  20
TORSDOF 4
ENDMDL
MODEL 9
REMARK VINA RESULT:      -6.4      4.612      6.805
REMARK  Name = 
REMARK  4 active torsions:
REMARK  status: ('A' for Active; 'I' for Inactive)
REMARK    1  A    between atoms: C_2  and  C_3
REMARK    2  A    between atoms: C_3  and  N_4
REMARK    3  A    between atoms: N_4  and  N_5
REMARK    4  A    between atoms: C_13  and  C_14
REMARK                            x       y       z     vdW  Elec       q    Type
REMARK                         _______ _______ _______ _____ _____    ______ ____
ROOT
ATOM      1  N   UNL     1       5.895   5.200  16.366  0.00  0.00    +0.000 N 
ATOM      2  C   UNL     1       6.710   5.924  17.224  0.00  0.00    +0.000 A 
ATOM      3  N   UNL     1       6.949   7.222  17.159  0.00  0.00    +0.000 NA
ATOM      4  C   UNL     1       7.850   7.653  18.119  0.00  0.00    +0.000 A 
ATOM      5  C   UNL     1       8.239   6.670  19.001  0.00  0.00    +0.000 A 
ATOM      6  S   UNL     1       7.503   5.179  18.588  0.00  0.00    +0.000 S 
ENDROOT
BRANCH   4   7
ATOM      7  C   UNL     1       8.288   9.049  18.180  0.00  0.00    +0.000 A 
ATOM      8  C   UNL     1       7.706   9.996  17.322  0.00  0.00    +0.000 A 
ATOM      9  C   UNL     1       8.073  11.346  17.383  0.00  0.00    +0.000 A 
ATOM     10  C   UNL     1       9.039  11.757  18.298  0.00  0.00    +0.000 A 
ATOM     11 CL   UNL     1       9.476  13.418  18.393  0.00  0.00    +0.000 Cl
ATOM     12  C   UNL     1       9.653  10.830  19.136  0.00  0.00    +0.000 A 
ATOM     13  C   UNL     1       9.281   9.481  19.074  0.00  0.00    +0.000 A 
ENDBRANCH   4   7
BRANCH   1  14
ATOM     14  N   UNL     1       5.276   4.050  16.826  0.00  0.00    +0.000 NA
ATOM     15  C   UNL     1       4.138   4.134  17.441  0.00  0.00    +0.000 C 
ATOM     16  C   UNL     1       3.595   2.930  18.162  0.00  0.00    +0.000 C 
ATOM     17  C   UNL     1       2.706   3.599  19.202  0.00  0.00    +0.000 C 
ATOM     18  C   UNL     1       2.107   4.796  18.478  0.00  0.00    +0.000 C 
ATOM     19  C   UNL     1       3.245   5.335  17.637  0.00  0.00    +0.000 C 
ENDBRANCH   1  14
BRANCH   1  20
ATOM     20  C   UNL     1       5.687   5.643  14.971  0.00  0.00    +0.000 C 
BRANCH  20  22
ATOM     21  C   UNL     1       6.147   3.626  13.049  0.00  0.00    +0.000 C 
ATOM     22  C   UNL     1       5.934   4.558  13.936  0.00  0.00    +0.000 C 
ENDBRANCH  20  22
ENDBRANCH   1  20
TORSDOF 4
ENDMDL
