MODEL 1
REMARK VINA RESULT:      -8.6      0.000      0.000
REMARK  Name = 
REMARK  4 active torsions:
REMARK  status: ('A' for Active; 'I' for Inactive)
REMARK    1  A    between atoms: C_1  and  C_2
REMARK    2  A    between atoms: C_3  and  C_4
REMARK    3  A    between atoms: C_15  and  C_16
REMARK    4  A    between atoms: N_25  and  C_26
REMARK                            x       y       z     vdW  Elec       q    Type
REMARK                         _______ _______ _______ _____ _____    ______ ____
ROOT
ATOM      1  C   UNL     1       0.960   3.869  19.163  0.00  0.00    +0.000 C 
ATOM      2  C   UNL     1       1.938   4.101  18.018  0.00  0.00    +0.000 C 
ATOM      3  C   UNL     1       2.882   5.266  18.165  0.00  0.00    +0.000 C 
ATOM      4  C   UNL     1       4.157   4.945  17.877  0.00  0.00    +0.000 C 
ATOM      5  C   UNL     1       4.172   3.481  17.634  0.00  0.00    +0.000 C 
ATOM      6  O   UNL     1       5.160   2.822  17.364  0.00  0.00    +0.000 OA
ATOM      7  N   UNL     1       2.886   3.024  17.835  0.00  0.00    +0.000 N 
ATOM      8  C   UNL     1       2.527   1.625  17.844  0.00  0.00    +0.000 C 
ENDROOT
BRANCH   3   9
ATOM      9  C   UNL     1       2.417   6.582  18.602  0.00  0.00    +0.000 A 
ATOM     10  C   UNL     1       2.218   7.613  17.677  0.00  0.00    +0.000 A 
ATOM     11  C   UNL     1       1.770   8.866  18.106  0.00  0.00    +0.000 A 
ATOM     12  C   UNL     1       1.528   9.097  19.461  0.00  0.00    +0.000 A 
ATOM     13  C   UNL     1       1.722   8.070  20.384  0.00  0.00    +0.000 A 
ATOM     14  C   UNL     1       2.173   6.819  19.963  0.00  0.00    +0.000 A 
ATOM     15  N   UNL     1       1.422   8.277  21.733  0.00  0.00    +0.000 N 
ATOM     16  C   UNL     1       1.043   9.505  22.202  0.00  0.00    +0.000 C 
ATOM     17  O   UNL     1       0.731   9.674  23.378  0.00  0.00    +0.000 OA
ATOM     18  C   UNL     1       1.132  10.638  21.181  0.00  0.00    +0.000 C 
ATOM     19  O   UNL     1       1.053  10.335  19.795  0.00  0.00    +0.000 OA
ATOM     20  H   UNL     1       1.450   7.520  22.402  0.00  0.00    +0.000 HD
ENDBRANCH   3   9
BRANCH   4  21
ATOM     21  C   UNL     1       5.356   5.774  17.877  0.00  0.00    +0.000 A 
ATOM     22  C   UNL     1       5.461   6.858  16.994  0.00  0.00    +0.000 A 
ATOM     23  C   UNL     1       6.580   7.693  17.040  0.00  0.00    +0.000 A 
ATOM     24  C   UNL     1       7.587   7.442  17.964  0.00  0.00    +0.000 A 
ATOM     25  F   UNL     1       8.649   8.257  18.019  0.00  0.00    +0.000 F 
ATOM     26  C   UNL     1       7.504   6.365  18.838  0.00  0.00    +0.000 A 
ATOM     27  C   UNL     1       6.387   5.528  18.795  0.00  0.00    +0.000 A 
ENDBRANCH   4  21
TORSDOF 2
ENDMDL
MODEL 2
REMARK VINA RESULT:      -8.6      0.558      1.099
REMARK  Name = 
REMARK  4 active torsions:
REMARK  status: ('A' for Active; 'I' for Inactive)
REMARK    1  A    between atoms: C_1  and  C_2
REMARK    2  A    between atoms: C_3  and  C_4
REMARK    3  A    between atoms: C_15  and  C_16
REMARK    4  A    between atoms: N_25  and  C_26
REMARK                            x       y       z     vdW  Elec       q    Type
REMARK                         _______ _______ _______ _____ _____    ______ ____
ROOT
ATOM      1  C   UNL     1       0.759   3.962  19.947  0.00  0.00    +0.000 C 
ATOM      2  C   UNL     1       1.686   4.047  18.741  0.00  0.00    +0.000 C 
ATOM      3  C   UNL     1       2.644   5.209  18.709  0.00  0.00    +0.000 C 
ATOM      4  C   UNL     1       3.902   4.841  18.406  0.00  0.00    +0.000 C 
ATOM      5  C   UNL     1       3.896   3.358  18.335  0.00  0.00    +0.000 C 
ATOM      6  O   UNL     1       4.865   2.659  18.101  0.00  0.00    +0.000 OA
ATOM      7  N   UNL     1       2.617   2.944  18.644  0.00  0.00    +0.000 N 
ATOM      8  C   UNL     1       2.248   1.560  18.832  0.00  0.00    +0.000 C 
ENDROOT
BRANCH   3   9
ATOM      9  C   UNL     1       2.210   6.573  19.010  0.00  0.00    +0.000 A 
ATOM     10  C   UNL     1       2.147   7.541  18.001  0.00  0.00    +0.000 A 
ATOM     11  C   UNL     1       1.726   8.840  18.299  0.00  0.00    +0.000 A 
ATOM     12  C   UNL     1       1.376   9.181  19.606  0.00  0.00    +0.000 A 
ATOM     13  C   UNL     1       1.434   8.217  20.612  0.00  0.00    +0.000 A 
ATOM     14  C   UNL     1       1.856   6.920  20.323  0.00  0.00    +0.000 A 
ATOM     15  N   UNL     1       1.024   8.535  21.910  0.00  0.00    +0.000 N 
ATOM     16  C   UNL     1       0.667   9.809  22.256  0.00  0.00    +0.000 C 
ATOM     17  O   UNL     1       0.260  10.078  23.383  0.00  0.00    +0.000 OA
ATOM     18  C   UNL     1       0.906  10.860  21.172  0.00  0.00    +0.000 C 
ATOM     19  O   UNL     1       0.937  10.460  19.809  0.00  0.00    +0.000 OA
ATOM     20  H   UNL     1       0.953   7.828  22.629  0.00  0.00    +0.000 HD
ENDBRANCH   3   9
BRANCH   4  21
ATOM     21  C   UNL     1       5.106   5.649  18.256  0.00  0.00    +0.000 A 
ATOM     22  C   UNL     1       6.197   5.452  19.113  0.00  0.00    +0.000 A 
ATOM     23  C   UNL     1       7.375   6.179  18.928  0.00  0.00    +0.000 A 
ATOM     24  C   UNL     1       7.458   7.099  17.889  0.00  0.00    +0.000 A 
ATOM     25  F   UNL     1       8.596   7.780  17.702  0.00  0.00    +0.000 F 
ATOM     26  C   UNL     1       6.381   7.316  17.038  0.00  0.00    +0.000 A 
ATOM     27  C   UNL     1       5.202   6.591  17.221  0.00  0.00    +0.000 A 
ENDBRANCH   4  21
TORSDOF 2
ENDMDL
MODEL 3
REMARK VINA RESULT:      -8.5      2.986      6.507
REMARK  Name = 
REMARK  4 active torsions:
REMARK  status: ('A' for Active; 'I' for Inactive)
REMARK    1  A    between atoms: C_1  and  C_2
REMARK    2  A    between atoms: C_3  and  C_4
REMARK    3  A    between atoms: C_15  and  C_16
REMARK    4  A    between atoms: N_25  and  C_26
REMARK                            x       y       z     vdW  Elec       q    Type
REMARK                         _______ _______ _______ _____ _____    ______ ____
ROOT
ATOM      1  C   UNL     1       3.989   1.822  19.202  0.00  0.00    +0.000 C 
ATOM      2  C   UNL     1       3.897   3.100  20.025  0.00  0.00    +0.000 C 
ATOM      3  C   UNL     1       3.924   4.398  19.260  0.00  0.00    +0.000 C 
ATOM      4  C   UNL     1       2.961   5.253  19.647  0.00  0.00    +0.000 C 
ATOM      5  C   UNL     1       2.127   4.522  20.633  0.00  0.00    +0.000 C 
ATOM      6  O   UNL     1       1.141   4.968  21.192  0.00  0.00    +0.000 OA
ATOM      7  N   UNL     1       2.645   3.247  20.734  0.00  0.00    +0.000 N 
ATOM      8  C   UNL     1       2.013   2.184  21.481  0.00  0.00    +0.000 C 
ENDROOT
BRANCH   3   9
ATOM      9  C   UNL     1       4.900   4.644  18.198  0.00  0.00    +0.000 A 
ATOM     10  C   UNL     1       6.040   5.417  18.440  0.00  0.00    +0.000 A 
ATOM     11  C   UNL     1       6.967   5.642  17.419  0.00  0.00    +0.000 A 
ATOM     12  C   UNL     1       6.755   5.104  16.149  0.00  0.00    +0.000 A 
ATOM     13  C   UNL     1       5.622   4.329  15.905  0.00  0.00    +0.000 A 
ATOM     14  C   UNL     1       4.690   4.103  16.919  0.00  0.00    +0.000 A 
ATOM     15  N   UNL     1       5.436   3.735  14.654  0.00  0.00    +0.000 N 
ATOM     16  C   UNL     1       6.285   3.983  13.611  0.00  0.00    +0.000 C 
ATOM     17  O   UNL     1       6.150   3.422  12.526  0.00  0.00    +0.000 OA
ATOM     18  C   UNL     1       7.333   5.063  13.878  0.00  0.00    +0.000 C 
ATOM     19  O   UNL     1       7.728   5.336  15.215  0.00  0.00    +0.000 OA
ATOM     20  H   UNL     1       4.682   3.083  14.487  0.00  0.00    +0.000 HD
ENDBRANCH   3   9
BRANCH   4  21
ATOM     21  C   UNL     1       2.659   6.600  19.179  0.00  0.00    +0.000 A 
ATOM     22  C   UNL     1       2.972   6.975  17.865  0.00  0.00    +0.000 A 
ATOM     23  C   UNL     1       2.623   8.244  17.396  0.00  0.00    +0.000 A 
ATOM     24  C   UNL     1       1.965   9.131  18.239  0.00  0.00    +0.000 A 
ATOM     25  F   UNL     1       1.613  10.340  17.780  0.00  0.00    +0.000 F 
ATOM     26  C   UNL     1       1.659   8.780  19.549  0.00  0.00    +0.000 A 
ATOM     27  C   UNL     1       2.007   7.513  20.021  0.00  0.00    +0.000 A 
ENDBRANCH   4  21
TORSDOF 2
ENDMDL
MODEL 4
REMARK VINA RESULT:      -8.0      2.612      4.190
REMARK  Name = 
REMARK  4 active torsions:
REMARK  status: ('A' for Active; 'I' for Inactive)
REMARK    1  A    between atoms: C_1  and  C_2
REMARK    2  A    between atoms: C_3  and  C_4
REMARK    3  A    between atoms: C_15  and  C_16
REMARK    4  A    between atoms: N_25  and  C_26
REMARK                            x       y       z     vdW  Elec       q    Type
REMARK                         _______ _______ _______ _____ _____    ______ ____
ROOT
ATOM      1  C   UNL     1       4.483   7.137  15.532  0.00  0.00    +0.000 C 
ATOM      2  C   UNL     1       4.906   6.296  16.730  0.00  0.00    +0.000 C 
ATOM      3  C   UNL     1       3.849   6.029  17.771  0.00  0.00    +0.000 C 
ATOM      4  C   UNL     1       3.791   4.735  18.136  0.00  0.00    +0.000 C 
ATOM      5  C   UNL     1       4.740   4.011  17.254  0.00  0.00    +0.000 C 
ATOM      6  O   UNL     1       4.947   2.811  17.275  0.00  0.00    +0.000 OA
ATOM      7  N   UNL     1       5.276   4.941  16.387  0.00  0.00    +0.000 N 
ATOM      8  C   UNL     1       6.128   4.597  15.273  0.00  0.00    +0.000 C 
ENDROOT
BRANCH   3   9
ATOM      9  C   UNL     1       2.985   7.093  18.281  0.00  0.00    +0.000 A 
ATOM     10  C   UNL     1       2.439   8.047  17.414  0.00  0.00    +0.000 A 
ATOM     11  C   UNL     1       1.611   9.057  17.912  0.00  0.00    +0.000 A 
ATOM     12  C   UNL     1       1.334   9.126  19.277  0.00  0.00    +0.000 A 
ATOM     13  C   UNL     1       1.873   8.174  20.143  0.00  0.00    +0.000 A 
ATOM     14  C   UNL     1       2.703   7.165  19.654  0.00  0.00    +0.000 A 
ATOM     15  N   UNL     1       1.547   8.201  21.501  0.00  0.00    +0.000 N 
ATOM     16  C   UNL     1       0.794   9.208  22.038  0.00  0.00    +0.000 C 
ATOM     17  O   UNL     1       0.466   9.204  23.222  0.00  0.00    +0.000 OA
ATOM     18  C   UNL     1       0.485  10.359  21.081  0.00  0.00    +0.000 C 
ATOM     19  O   UNL     1       0.484  10.119  19.680  0.00  0.00    +0.000 OA
ATOM     20  H   UNL     1       1.836   7.461  22.128  0.00  0.00    +0.000 HD
ENDBRANCH   3   9
BRANCH   4  21
ATOM     21  C   UNL     1       2.935   4.074  19.113  0.00  0.00    +0.000 A 
ATOM     22  C   UNL     1       3.442   3.728  20.373  0.00  0.00    +0.000 A 
ATOM     23  C   UNL     1       2.605   3.155  21.333  0.00  0.00    +0.000 A 
ATOM     24  C   UNL     1       1.267   2.931  21.031  0.00  0.00    +0.000 A 
ATOM     25  F   UNL     1       0.461   2.401  21.961  0.00  0.00    +0.000 F 
ATOM     26  C   UNL     1       0.750   3.257  19.783  0.00  0.00    +0.000 A 
ATOM     27  C   UNL     1       1.585   3.829  18.820  0.00  0.00    +0.000 A 
ENDBRANCH   4  21
TORSDOF 2
ENDMDL
MODEL 5
REMARK VINA RESULT:      -7.8      1.301      2.250
REMARK  Name = 
REMARK  4 active torsions:
REMARK  status: ('A' for Active; 'I' for Inactive)
REMARK    1  A    between atoms: C_1  and  C_2
REMARK    2  A    between atoms: C_3  and  C_4
REMARK    3  A    between atoms: C_15  and  C_16
REMARK    4  A    between atoms: N_25  and  C_26
REMARK                            x       y       z     vdW  Elec       q    Type
REMARK                         _______ _______ _______ _____ _____    ______ ____
ROOT
ATOM      1  C   UNL     1       0.716   3.713  20.176  0.00  0.00    +0.000 C 
ATOM      2  C   UNL     1       1.425   3.953  18.849  0.00  0.00    +0.000 C 
ATOM      3  C   UNL     1       2.397   5.103  18.803  0.00  0.00    +0.000 C 
ATOM      4  C   UNL     1       3.574   4.771  18.241  0.00  0.00    +0.000 C 
ATOM      5  C   UNL     1       3.512   3.311  17.979  0.00  0.00    +0.000 C 
ATOM      6  O   UNL     1       4.406   2.644  17.491  0.00  0.00    +0.000 OA
ATOM      7  N   UNL     1       2.293   2.868  18.449  0.00  0.00    +0.000 N 
ATOM      8  C   UNL     1       1.921   1.473  18.515  0.00  0.00    +0.000 C 
ENDROOT
BRANCH   3   9
ATOM      9  C   UNL     1       2.061   6.417  19.351  0.00  0.00    +0.000 A 
ATOM     10  C   UNL     1       1.695   6.559  20.694  0.00  0.00    +0.000 A 
ATOM     11  C   UNL     1       1.379   7.820  21.207  0.00  0.00    +0.000 A 
ATOM     12  C   UNL     1       1.417   8.943  20.379  0.00  0.00    +0.000 A 
ATOM     13  C   UNL     1       1.786   8.805  19.041  0.00  0.00    +0.000 A 
ATOM     14  C   UNL     1       2.099   7.549  18.522  0.00  0.00    +0.000 A 
ATOM     15  N   UNL     1       1.888   9.934  18.225  0.00  0.00    +0.000 N 
ATOM     16  C   UNL     1       1.527  11.175  18.670  0.00  0.00    +0.000 C 
ATOM     17  O   UNL     1       1.664  12.175  17.968  0.00  0.00    +0.000 OA
ATOM     18  C   UNL     1       0.865  11.196  20.047  0.00  0.00    +0.000 C 
ATOM     19  O   UNL     1       1.134  10.146  20.966  0.00  0.00    +0.000 OA
ATOM     20  H   UNL     1       2.257   9.874  17.285  0.00  0.00    +0.000 HD
ENDBRANCH   3   9
BRANCH   4  21
ATOM     21  C   UNL     1       4.757   5.584  17.992  0.00  0.00    +0.000 A 
ATOM     22  C   UNL     1       5.856   5.511  18.858  0.00  0.00    +0.000 A 
ATOM     23  C   UNL     1       7.016   6.239  18.583  0.00  0.00    +0.000 A 
ATOM     24  C   UNL     1       7.072   7.037  17.446  0.00  0.00    +0.000 A 
ATOM     25  F   UNL     1       8.193   7.719  17.174  0.00  0.00    +0.000 F 
ATOM     26  C   UNL     1       5.987   7.132  16.584  0.00  0.00    +0.000 A 
ATOM     27  C   UNL     1       4.825   6.406  16.856  0.00  0.00    +0.000 A 
ENDBRANCH   4  21
TORSDOF 2
ENDMDL
MODEL 6
REMARK VINA RESULT:      -7.4      7.455      9.949
REMARK  Name = 
REMARK  4 active torsions:
REMARK  status: ('A' for Active; 'I' for Inactive)
REMARK    1  A    between atoms: C_1  and  C_2
REMARK    2  A    between atoms: C_3  and  C_4
REMARK    3  A    between atoms: C_15  and  C_16
REMARK    4  A    between atoms: N_25  and  C_26
REMARK                            x       y       z     vdW  Elec       q    Type
REMARK                         _______ _______ _______ _____ _____    ______ ____
ROOT
ATOM      1  C   UNL     1       9.009  17.882  18.670  0.00  0.00    +0.000 C 
ATOM      2  C   UNL     1       9.502  16.821  19.646  0.00  0.00    +0.000 C 
ATOM      3  C   UNL     1       8.918  15.441  19.491  0.00  0.00    +0.000 C 
ATOM      4  C   UNL     1       9.853  14.473  19.504  0.00  0.00    +0.000 C 
ATOM      5  C   UNL     1      11.166  15.164  19.545  0.00  0.00    +0.000 C 
ATOM      6  O   UNL     1      12.252  14.614  19.547  0.00  0.00    +0.000 OA
ATOM      7  N   UNL     1      10.910  16.519  19.514  0.00  0.00    +0.000 N 
ATOM      8  C   UNL     1      11.940  17.524  19.384  0.00  0.00    +0.000 C 
ENDROOT
BRANCH   3   9
ATOM      9  C   UNL     1       7.481  15.228  19.320  0.00  0.00    +0.000 A 
ATOM     10  C   UNL     1       6.933  15.035  18.047  0.00  0.00    +0.000 A 
ATOM     11  C   UNL     1       5.559  14.829  17.897  0.00  0.00    +0.000 A 
ATOM     12  C   UNL     1       4.724  14.825  19.015  0.00  0.00    +0.000 A 
ATOM     13  C   UNL     1       5.268  15.013  20.286  0.00  0.00    +0.000 A 
ATOM     14  C   UNL     1       6.638  15.222  20.443  0.00  0.00    +0.000 A 
ATOM     15  N   UNL     1       4.446  14.947  21.414  0.00  0.00    +0.000 N 
ATOM     16  C   UNL     1       3.090  14.811  21.305  0.00  0.00    +0.000 C 
ATOM     17  O   UNL     1       2.374  14.703  22.298  0.00  0.00    +0.000 OA
ATOM     18  C   UNL     1       2.548  14.901  19.879  0.00  0.00    +0.000 C 
ATOM     19  O   UNL     1       3.399  14.577  18.788  0.00  0.00    +0.000 OA
ATOM     20  H   UNL     1       4.831  14.971  22.348  0.00  0.00    +0.000 HD
ENDBRANCH   3   9
BRANCH   4  21
ATOM     21  C   UNL     1       9.707  13.026  19.403  0.00  0.00    +0.000 A 
ATOM     22  C   UNL     1       9.602  12.247  20.563  0.00  0.00    +0.000 A 
ATOM     23  C   UNL     1       9.395  10.870  20.467  0.00  0.00    +0.000 A 
ATOM     24  C   UNL     1       9.294  10.276  19.214  0.00  0.00    +0.000 A 
ATOM     25  F   UNL     1       9.075   8.958  19.124  0.00  0.00    +0.000 F 
ATOM     26  C   UNL     1       9.408  11.032  18.053  0.00  0.00    +0.000 A 
ATOM     27  C   UNL     1       9.616  12.410  18.146  0.00  0.00    +0.000 A 
ENDBRANCH   4  21
TORSDOF 2
ENDMDL
MODEL 7
REMARK VINA RESULT:      -7.3      6.691      9.874
REMARK  Name = 
REMARK  4 active torsions:
REMARK  status: ('A' for Active; 'I' for Inactive)
REMARK    1  A    between atoms: C_1  and  C_2
REMARK    2  A    between atoms: C_3  and  C_4
REMARK    3  A    between atoms: C_15  and  C_16
REMARK    4  A    between atoms: N_25  and  C_26
REMARK                            x       y       z     vdW  Elec       q    Type
REMARK                         _______ _______ _______ _____ _____    ______ ____
ROOT
ATOM      1  C   UNL     1      -1.786  16.176  20.339  0.00  0.00    +0.000 C 
ATOM      2  C   UNL     1      -1.151  15.314  21.422  0.00  0.00    +0.000 C 
ATOM      3  C   UNL     1      -1.464  13.841  21.381  0.00  0.00    +0.000 C 
ATOM      4  C   UNL     1      -0.369  13.070  21.511  0.00  0.00    +0.000 C 
ATOM      5  C   UNL     1       0.792  13.995  21.523  0.00  0.00    +0.000 C 
ATOM      6  O   UNL     1       1.959  13.660  21.607  0.00  0.00    +0.000 OA
ATOM      7  N   UNL     1       0.293  15.271  21.359  0.00  0.00    +0.000 N 
ATOM      8  C   UNL     1       1.126  16.435  21.165  0.00  0.00    +0.000 C 
ENDROOT
BRANCH   3   9
ATOM      9  C   UNL     1      -2.829  13.350  21.191  0.00  0.00    +0.000 A 
ATOM     10  C   UNL     1      -3.263  12.914  19.933  0.00  0.00    +0.000 A 
ATOM     11  C   UNL     1      -4.568  12.443  19.765  0.00  0.00    +0.000 A 
ATOM     12  C   UNL     1      -5.448  12.415  20.847  0.00  0.00    +0.000 A 
ATOM     13  C   UNL     1      -5.017  12.844  22.102  0.00  0.00    +0.000 A 
ATOM     14  C   UNL     1      -3.717  13.319  22.277  0.00  0.00    +0.000 A 
ATOM     15  N   UNL     1      -5.874  12.758  23.202  0.00  0.00    +0.000 N 
ATOM     16  C   UNL     1      -7.176  12.364  23.066  0.00  0.00    +0.000 C 
ATOM     17  O   UNL     1      -7.915  12.241  24.041  0.00  0.00    +0.000 OA
ATOM     18  C   UNL     1      -7.647  12.188  21.623  0.00  0.00    +0.000 C 
ATOM     19  O   UNL     1      -6.694  11.903  20.609  0.00  0.00    +0.000 OA
ATOM     20  H   UNL     1      -5.551  12.960  24.139  0.00  0.00    +0.000 HD
ENDBRANCH   3   9
BRANCH   4  21
ATOM     21  C   UNL     1      -0.243  11.618  21.541  0.00  0.00    +0.000 A 
ATOM     22  C   UNL     1      -0.571  10.908  22.704  0.00  0.00    +0.000 A 
ATOM     23  C   UNL     1      -0.514   9.512  22.712  0.00  0.00    +0.000 A 
ATOM     24  C   UNL     1      -0.130   8.833  21.562  0.00  0.00    +0.000 A 
ATOM     25  F   UNL     1      -0.096   7.494  21.567  0.00  0.00    +0.000 F 
ATOM     26  C   UNL     1       0.211   9.523  20.405  0.00  0.00    +0.000 A 
ATOM     27  C   UNL     1       0.156  10.918  20.393  0.00  0.00    +0.000 A 
ENDBRANCH   4  21
TORSDOF 2
ENDMDL
MODEL 8
REMARK VINA RESULT:      -7.2      4.118      8.176
REMARK  Name = 
REMARK  4 active torsions:
REMARK  status: ('A' for Active; 'I' for Inactive)
REMARK    1  A    between atoms: C_1  and  C_2
REMARK    2  A    between atoms: C_3  and  C_4
REMARK    3  A    between atoms: C_15  and  C_16
REMARK    4  A    between atoms: N_25  and  C_26
REMARK                            x       y       z     vdW  Elec       q    Type
REMARK                         _______ _______ _______ _____ _____    ______ ____
ROOT
ATOM      1  C   UNL     1       0.429  10.035  22.656  0.00  0.00    +0.000 C 
ATOM      2  C   UNL     1       0.034  11.083  21.623  0.00  0.00    +0.000 C 
ATOM      3  C   UNL     1      -0.190  10.590  20.216  0.00  0.00    +0.000 C 
ATOM      4  C   UNL     1      -1.330  11.059  19.674  0.00  0.00    +0.000 C 
ATOM      5  C   UNL     1      -2.022  11.813  20.749  0.00  0.00    +0.000 C 
ATOM      6  O   UNL     1      -3.100  12.368  20.639  0.00  0.00    +0.000 OA
ATOM      7  N   UNL     1      -1.246  11.704  21.884  0.00  0.00    +0.000 N 
ATOM      8  C   UNL     1      -1.661  12.175  23.185  0.00  0.00    +0.000 C 
ENDROOT
BRANCH   3   9
ATOM      9  C   UNL     1       0.747   9.679  19.562  0.00  0.00    +0.000 A 
ATOM     10  C   UNL     1       1.309  10.001  18.321  0.00  0.00    +0.000 A 
ATOM     11  C   UNL     1       2.207   9.124  17.707  0.00  0.00    +0.000 A 
ATOM     12  C   UNL     1       2.541   7.917  18.323  0.00  0.00    +0.000 A 
ATOM     13  C   UNL     1       1.986   7.595  19.562  0.00  0.00    +0.000 A 
ATOM     14  C   UNL     1       1.086   8.465  20.179  0.00  0.00    +0.000 A 
ATOM     15  N   UNL     1       2.365   6.419  20.213  0.00  0.00    +0.000 N 
ATOM     16  C   UNL     1       3.191   5.505  19.618  0.00  0.00    +0.000 C 
ATOM     17  O   UNL     1       3.563   4.495  20.210  0.00  0.00    +0.000 OA
ATOM     18  C   UNL     1       3.522   5.796  18.155  0.00  0.00    +0.000 C 
ATOM     19  O   UNL     1       3.457   7.133  17.678  0.00  0.00    +0.000 OA
ATOM     20  H   UNL     1       2.062   6.217  21.156  0.00  0.00    +0.000 HD
ENDBRANCH   3   9
BRANCH   4  21
ATOM     21  C   UNL     1      -1.896  10.841  18.349  0.00  0.00    +0.000 A 
ATOM     22  C   UNL     1      -2.566   9.645  18.058  0.00  0.00    +0.000 A 
ATOM     23  C   UNL     1      -3.167   9.463  16.811  0.00  0.00    +0.000 A 
ATOM     24  C   UNL     1      -3.097  10.475  15.861  0.00  0.00    +0.000 A 
ATOM     25  F   UNL     1      -3.692  10.306  14.672  0.00  0.00    +0.000 F 
ATOM     26  C   UNL     1      -2.426  11.662  16.128  0.00  0.00    +0.000 A 
ATOM     27  C   UNL     1      -1.823  11.847  17.374  0.00  0.00    +0.000 A 
ENDBRANCH   4  21
TORSDOF 2
ENDMDL
MODEL 9
REMARK VINA RESULT:      -7.1      7.691     11.197
REMARK  Name = 
REMARK  4 active torsions:
REMARK  status: ('A' for Active; 'I' for Inactive)
REMARK    1  A    between atoms: C_1  and  C_2
REMARK    2  A    between atoms: C_3  and  C_4
REMARK    3  A    between atoms: C_15  and  C_16
REMARK    4  A    between atoms: N_25  and  C_26
REMARK                            x       y       z     vdW  Elec       q    Type
REMARK                         _______ _______ _______ _____ _____    ______ ____
ROOT
ATOM      1  C   UNL     1      -4.919  16.328  23.172  0.00  0.00    +0.000 C 
ATOM      2  C   UNL     1      -4.148  15.264  23.942  0.00  0.00    +0.000 C 
ATOM      3  C   UNL     1      -3.646  14.088  23.145  0.00  0.00    +0.000 C 
ATOM      4  C   UNL     1      -2.357  13.796  23.400  0.00  0.00    +0.000 C 
ATOM      5  C   UNL     1      -1.863  14.858  24.312  0.00  0.00    +0.000 C 
ATOM      6  O   UNL     1      -0.729  14.942  24.747  0.00  0.00    +0.000 OA
ATOM      7  N   UNL     1      -2.905  15.741  24.507  0.00  0.00    +0.000 N 
ATOM      8  C   UNL     1      -2.769  16.994  25.212  0.00  0.00    +0.000 C 
ENDROOT
BRANCH   3   9
ATOM      9  C   UNL     1      -4.500  13.386  22.188  0.00  0.00    +0.000 A 
ATOM     10  C   UNL     1      -5.754  12.899  22.573  0.00  0.00    +0.000 A 
ATOM     11  C   UNL     1      -6.564  12.233  21.649  0.00  0.00    +0.000 A 
ATOM     12  C   UNL     1      -6.122  12.042  20.339  0.00  0.00    +0.000 A 
ATOM     13  C   UNL     1      -4.874  12.531  19.951  0.00  0.00    +0.000 A 
ATOM     14  C   UNL     1      -4.059  13.193  20.870  0.00  0.00    +0.000 A 
ATOM     15  N   UNL     1      -4.453  12.398  18.626  0.00  0.00    +0.000 N 
ATOM     16  C   UNL     1      -5.187  11.699  17.708  0.00  0.00    +0.000 C 
ATOM     17  O   UNL     1      -4.841  11.625  16.531  0.00  0.00    +0.000 OA
ATOM     18  C   UNL     1      -6.393  10.955  18.281  0.00  0.00    +0.000 C 
ATOM     19  O   UNL     1      -6.988  11.418  19.485  0.00  0.00    +0.000 OA
ATOM     20  H   UNL     1      -3.604  12.838  18.296  0.00  0.00    +0.000 HD
ENDBRANCH   3   9
BRANCH   4  21
ATOM     21  C   UNL     1      -1.511  12.738  22.862  0.00  0.00    +0.000 A 
ATOM     22  C   UNL     1      -1.658  11.421  23.316  0.00  0.00    +0.000 A 
ATOM     23  C   UNL     1      -0.894  10.396  22.753  0.00  0.00    +0.000 A 
ATOM     24  C   UNL     1       0.012  10.690  21.742  0.00  0.00    +0.000 A 
ATOM     25  F   UNL     1       0.729   9.702  21.190  0.00  0.00    +0.000 F 
ATOM     26  C   UNL     1       0.180  11.994  21.289  0.00  0.00    +0.000 A 
ATOM     27  C   UNL     1      -0.581  13.021  21.850  0.00  0.00    +0.000 A 
ENDBRANCH   4  21
TORSDOF 2
ENDMDL
