MODEL 1
REMARK VINA RESULT:      -7.5      0.000      0.000
REMARK  Name = 
REMARK  7 active torsions:
REMARK  status: ('A' for Active; 'I' for Inactive)
REMARK    1  A    between atoms: C_1  and  C_2
REMARK    2  A    between atoms: C_2  and  C_3
REMARK    3  A    between atoms: C_3  and  N_4
REMARK    4  A    between atoms: N_7  and  C_8
REMARK    5  A    between atoms: C_8  and  C_9
REMARK    6  A    between atoms: C_9  and  N_10
REMARK    7  A    between atoms: N_16  and  C_17
REMARK                            x       y       z     vdW  Elec       q    Type
REMARK                         _______ _______ _______ _____ _____    ______ ____
ROOT
ATOM      1  N   UNL     1       1.465   8.851  19.149  0.00  0.00    +0.000 N 
ATOM      2  C   UNL     1       2.398   8.296  18.300  0.00  0.00    +0.000 C 
ATOM      3  O   UNL     1       2.811   8.915  17.318  0.00  0.00    +0.000 OA
ATOM      4  N   UNL     1       2.787   7.008  18.645  0.00  0.00    +0.000 N 
ATOM      5  C   UNL     1       2.341   6.244  19.765  0.00  0.00    +0.000 A 
ATOM      6  O   UNL     1       1.565   6.614  20.640  0.00  0.00    +0.000 OA
ATOM      7  N   UNL     1       2.979   4.984  19.686  0.00  0.00    +0.000 N 
ATOM      8  C   UNL     1       3.785   4.960  18.538  0.00  0.00    +0.000 A 
ATOM      9  C   UNL     1       4.575   3.944  18.039  0.00  0.00    +0.000 A 
ATOM     10  C   UNL     1       5.288   4.201  16.869  0.00  0.00    +0.000 A 
ATOM     11  C   UNL     1       5.194   5.448  16.224  0.00  0.00    +0.000 A 
ATOM     12  C   UNL     1       4.379   6.463  16.739  0.00  0.00    +0.000 A 
ATOM     13  C   UNL     1       3.679   6.200  17.904  0.00  0.00    +0.000 A 
ATOM     14  H   UNL     1       1.289   8.385  20.037  0.00  0.00    +0.000 HD
ENDROOT
BRANCH   7  15
ATOM     15  C   UNL     1       2.782   3.898  20.583  0.00  0.00    +0.000 C 
ATOM     16  C   UNL     1       1.410   3.453  21.017  0.00  0.00    +0.000 C 
ATOM     17  C   UNL     1       2.214   2.587  20.098  0.00  0.00    +0.000 C 
ENDBRANCH   7  15
BRANCH   1  18
ATOM     18  C   UNL     1       0.930  10.177  18.940  0.00  0.00    +0.000 C 
BRANCH  18  19
ATOM     19  C   UNL     1      -0.607  10.161  18.890  0.00  0.00    +0.000 C 
BRANCH  19  23
ATOM     20  N   UNL     1      -4.211  10.948  18.186  0.00  0.00    +0.000 NA
ATOM     21  C   UNL     1      -3.444   9.788  17.684  0.00  0.00    +0.000 C 
ATOM     22  C   UNL     1      -2.107  10.155  16.990  0.00  0.00    +0.000 C 
ATOM     23  N   UNL     1      -1.196  10.985  17.817  0.00  0.00    +0.000 NA
ATOM     24  C   UNL     1      -1.965  12.136  18.346  0.00  0.00    +0.000 C 
ATOM     25  C   UNL     1      -3.304  11.764  19.033  0.00  0.00    +0.000 C 
BRANCH  20  26
ATOM     26  C   UNL     1      -4.780  11.783  17.114  0.00  0.00    +0.000 C 
BRANCH  26  28
ATOM     27  C   UNL     1      -6.518  13.588  16.975  0.00  0.00    +0.000 C 
ATOM     28  C   UNL     1      -6.261  12.123  17.298  0.00  0.00    +0.000 C 
ENDBRANCH  26  28
ENDBRANCH  20  26
ENDBRANCH  19  23
ENDBRANCH  18  19
ENDBRANCH   1  18
TORSDOF 6
ENDMDL
MODEL 2
REMARK VINA RESULT:      -7.5      3.336      9.218
REMARK  Name = 
REMARK  7 active torsions:
REMARK  status: ('A' for Active; 'I' for Inactive)
REMARK    1  A    between atoms: C_1  and  C_2
REMARK    2  A    between atoms: C_2  and  C_3
REMARK    3  A    between atoms: C_3  and  N_4
REMARK    4  A    between atoms: N_7  and  C_8
REMARK    5  A    between atoms: C_8  and  C_9
REMARK    6  A    between atoms: C_9  and  N_10
REMARK    7  A    between atoms: N_16  and  C_17
REMARK                            x       y       z     vdW  Elec       q    Type
REMARK                         _______ _______ _______ _____ _____    ______ ____
ROOT
ATOM      1  N   UNL     1       2.459   7.105  18.930  0.00  0.00    +0.000 N 
ATOM      2  C   UNL     1       1.799   7.506  20.071  0.00  0.00    +0.000 C 
ATOM      3  O   UNL     1       1.597   6.721  20.998  0.00  0.00    +0.000 OA
ATOM      4  N   UNL     1       1.381   8.831  20.050  0.00  0.00    +0.000 N 
ATOM      5  C   UNL     1       1.584   9.782  19.006  0.00  0.00    +0.000 A 
ATOM      6  O   UNL     1       2.200   9.601  17.961  0.00  0.00    +0.000 OA
ATOM      7  N   UNL     1       0.955  10.983  19.414  0.00  0.00    +0.000 N 
ATOM      8  C   UNL     1       0.363  10.777  20.668  0.00  0.00    +0.000 A 
ATOM      9  C   UNL     1      -0.371  11.647  21.448  0.00  0.00    +0.000 A 
ATOM     10  C   UNL     1      -0.837  11.174  22.674  0.00  0.00    +0.000 A 
ATOM     11  C   UNL     1      -0.569   9.856  23.090  0.00  0.00    +0.000 A 
ATOM     12  C   UNL     1       0.169   8.984  22.280  0.00  0.00    +0.000 A 
ATOM     13  C   UNL     1       0.630   9.464  21.067  0.00  0.00    +0.000 A 
ATOM     14  H   UNL     1       2.761   7.823  18.274  0.00  0.00    +0.000 HD
ENDROOT
BRANCH   7  15
ATOM     15  C   UNL     1       0.878  12.178  18.647  0.00  0.00    +0.000 C 
ATOM     16  C   UNL     1       1.067  13.541  19.258  0.00  0.00    +0.000 C 
ATOM     17  C   UNL     1       2.116  12.985  18.346  0.00  0.00    +0.000 C 
ENDBRANCH   7  15
BRANCH   1  18
ATOM     18  C   UNL     1       2.952   5.757  18.762  0.00  0.00    +0.000 C 
BRANCH  18  19
ATOM     19  C   UNL     1       4.462   5.671  19.041  0.00  0.00    +0.000 C 
BRANCH  19  23
ATOM     20  N   UNL     1       6.435   5.862  15.852  0.00  0.00    +0.000 NA
ATOM     21  C   UNL     1       4.981   5.632  15.979  0.00  0.00    +0.000 C 
ATOM     22  C   UNL     1       4.597   4.477  16.940  0.00  0.00    +0.000 C 
ATOM     23  N   UNL     1       5.164   4.601  18.305  0.00  0.00    +0.000 NA
ATOM     24  C   UNL     1       6.618   4.860  18.185  0.00  0.00    +0.000 C 
ATOM     25  C   UNL     1       6.997   6.012  17.218  0.00  0.00    +0.000 C 
BRANCH  20  26
ATOM     26  C   UNL     1       7.139   4.783  15.137  0.00  0.00    +0.000 C 
BRANCH  26  28
ATOM     27  C   UNL     1       6.209   3.624  13.115  0.00  0.00    +0.000 C 
ATOM     28  C   UNL     1       6.987   4.833  13.614  0.00  0.00    +0.000 C 
ENDBRANCH  26  28
ENDBRANCH  20  26
ENDBRANCH  19  23
ENDBRANCH  18  19
ENDBRANCH   1  18
TORSDOF 6
ENDMDL
MODEL 3
REMARK VINA RESULT:      -7.4      1.230      1.520
REMARK  Name = 
REMARK  7 active torsions:
REMARK  status: ('A' for Active; 'I' for Inactive)
REMARK    1  A    between atoms: C_1  and  C_2
REMARK    2  A    between atoms: C_2  and  C_3
REMARK    3  A    between atoms: C_3  and  N_4
REMARK    4  A    between atoms: N_7  and  C_8
REMARK    5  A    between atoms: C_8  and  C_9
REMARK    6  A    between atoms: C_9  and  N_10
REMARK    7  A    between atoms: N_16  and  C_17
REMARK                            x       y       z     vdW  Elec       q    Type
REMARK                         _______ _______ _______ _____ _____    ______ ____
ROOT
ATOM      1  N   UNL     1       1.305   8.504  20.189  0.00  0.00    +0.000 N 
ATOM      2  C   UNL     1       2.207   8.209  19.190  0.00  0.00    +0.000 C 
ATOM      3  O   UNL     1       2.622   9.085  18.429  0.00  0.00    +0.000 OA
ATOM      4  N   UNL     1       2.562   6.868  19.121  0.00  0.00    +0.000 N 
ATOM      5  C   UNL     1       2.113   5.813  19.970  0.00  0.00    +0.000 A 
ATOM      6  O   UNL     1       1.363   5.921  20.935  0.00  0.00    +0.000 OA
ATOM      7  N   UNL     1       2.711   4.620  19.500  0.00  0.00    +0.000 N 
ATOM      8  C   UNL     1       3.496   4.924  18.378  0.00  0.00    +0.000 A 
ATOM      9  C   UNL     1       4.247   4.088  17.577  0.00  0.00    +0.000 A 
ATOM     10  C   UNL     1       4.948   4.668  16.521  0.00  0.00    +0.000 A 
ATOM     11  C   UNL     1       4.880   6.053  16.283  0.00  0.00    +0.000 A 
ATOM     12  C   UNL     1       4.104   6.885  17.100  0.00  0.00    +0.000 A 
ATOM     13  C   UNL     1       3.417   6.300  18.149  0.00  0.00    +0.000 A 
ATOM     14  H   UNL     1       1.131   7.797  20.900  0.00  0.00    +0.000 HD
ENDROOT
BRANCH   7  15
ATOM     15  C   UNL     1       2.496   3.320  20.034  0.00  0.00    +0.000 C 
ATOM     16  C   UNL     1       1.212   2.933  20.717  0.00  0.00    +0.000 C 
ATOM     17  C   UNL     1       1.537   2.361  19.372  0.00  0.00    +0.000 C 
ENDBRANCH   7  15
BRANCH   1  18
ATOM     18  C   UNL     1       0.807   9.844  20.403  0.00  0.00    +0.000 C 
BRANCH  18  19
ATOM     19  C   UNL     1      -0.603  10.019  19.814  0.00  0.00    +0.000 C 
BRANCH  19  23
ATOM     20  N   UNL     1      -3.548  10.798  17.618  0.00  0.00    +0.000 NA
ATOM     21  C   UNL     1      -2.805   9.522  17.682  0.00  0.00    +0.000 C 
ATOM     22  C   UNL     1      -1.270   9.664  17.515  0.00  0.00    +0.000 C 
ATOM     23  N   UNL     1      -0.636  10.612  18.463  0.00  0.00    +0.000 NA
ATOM     24  C   UNL     1      -1.393  11.887  18.425  0.00  0.00    +0.000 C 
ATOM     25  C   UNL     1      -2.927  11.738  18.586  0.00  0.00    +0.000 C 
BRANCH  20  26
ATOM     26  C   UNL     1      -3.562  11.402  16.274  0.00  0.00    +0.000 C 
BRANCH  26  28
ATOM     27  C   UNL     1      -3.002  10.123  14.188  0.00  0.00    +0.000 C 
ATOM     28  C   UNL     1      -4.103  10.482  15.175  0.00  0.00    +0.000 C 
ENDBRANCH  26  28
ENDBRANCH  20  26
ENDBRANCH  19  23
ENDBRANCH  18  19
ENDBRANCH   1  18
TORSDOF 6
ENDMDL
MODEL 4
REMARK VINA RESULT:      -7.2      3.316      9.300
REMARK  Name = 
REMARK  7 active torsions:
REMARK  status: ('A' for Active; 'I' for Inactive)
REMARK    1  A    between atoms: C_1  and  C_2
REMARK    2  A    between atoms: C_2  and  C_3
REMARK    3  A    between atoms: C_3  and  N_4
REMARK    4  A    between atoms: N_7  and  C_8
REMARK    5  A    between atoms: C_8  and  C_9
REMARK    6  A    between atoms: C_9  and  N_10
REMARK    7  A    between atoms: N_16  and  C_17
REMARK                            x       y       z     vdW  Elec       q    Type
REMARK                         _______ _______ _______ _____ _____    ______ ____
ROOT
ATOM      1  N   UNL     1       2.438   7.264  18.706  0.00  0.00    +0.000 N 
ATOM      2  C   UNL     1       1.827   7.614  19.890  0.00  0.00    +0.000 C 
ATOM      3  O   UNL     1       1.704   6.801  20.807  0.00  0.00    +0.000 OA
ATOM      4  N   UNL     1       1.359   8.921  19.924  0.00  0.00    +0.000 N 
ATOM      5  C   UNL     1       1.470   9.903  18.894  0.00  0.00    +0.000 A 
ATOM      6  O   UNL     1       2.034   9.769  17.814  0.00  0.00    +0.000 OA
ATOM      7  N   UNL     1       0.820  11.069  19.364  0.00  0.00    +0.000 N 
ATOM      8  C   UNL     1       0.305  10.812  20.643  0.00  0.00    +0.000 A 
ATOM      9  C   UNL     1      -0.418  11.636  21.482  0.00  0.00    +0.000 A 
ATOM     10  C   UNL     1      -0.798  11.118  22.719  0.00  0.00    +0.000 A 
ATOM     11  C   UNL     1      -0.460   9.802  23.087  0.00  0.00    +0.000 A 
ATOM     12  C   UNL     1       0.265   8.978  22.218  0.00  0.00    +0.000 A 
ATOM     13  C   UNL     1       0.642   9.503  20.994  0.00  0.00    +0.000 A 
ATOM     14  H   UNL     1       2.678   8.007  18.053  0.00  0.00    +0.000 HD
ENDROOT
BRANCH   7  15
ATOM     15  C   UNL     1       0.657  12.278  18.632  0.00  0.00    +0.000 C 
ATOM     16  C   UNL     1       0.834  13.632  19.264  0.00  0.00    +0.000 C 
ATOM     17  C   UNL     1       1.847  13.136  18.281  0.00  0.00    +0.000 C 
ENDBRANCH   7  15
BRANCH   1  18
ATOM     18  C   UNL     1       2.971   5.940  18.479  0.00  0.00    +0.000 C 
BRANCH  18  19
ATOM     19  C   UNL     1       4.489   5.895  18.720  0.00  0.00    +0.000 C 
BRANCH  19  23
ATOM     20  N   UNL     1       6.527   4.202  16.059  0.00  0.00    +0.000 NA
ATOM     21  C   UNL     1       6.982   4.582  17.413  0.00  0.00    +0.000 C 
ATOM     22  C   UNL     1       6.715   6.064  17.786  0.00  0.00    +0.000 C 
ATOM     23  N   UNL     1       5.302   6.488  17.639  0.00  0.00    +0.000 NA
ATOM     24  C   UNL     1       4.830   6.085  16.293  0.00  0.00    +0.000 C 
ATOM     25  C   UNL     1       5.104   4.604  15.923  0.00  0.00    +0.000 C 
BRANCH  20  26
ATOM     26  C   UNL     1       7.324   4.811  14.980  0.00  0.00    +0.000 C 
BRANCH  26  28
ATOM     27  C   UNL     1       7.709   5.155  12.524  0.00  0.00    +0.000 C 
ATOM     28  C   UNL     1       6.834   4.476  13.568  0.00  0.00    +0.000 C 
ENDBRANCH  26  28
ENDBRANCH  20  26
ENDBRANCH  19  23
ENDBRANCH  18  19
ENDBRANCH   1  18
TORSDOF 6
ENDMDL
MODEL 5
REMARK VINA RESULT:      -7.2      2.925      3.749
REMARK  Name = 
REMARK  7 active torsions:
REMARK  status: ('A' for Active; 'I' for Inactive)
REMARK    1  A    between atoms: C_1  and  C_2
REMARK    2  A    between atoms: C_2  and  C_3
REMARK    3  A    between atoms: C_3  and  N_4
REMARK    4  A    between atoms: N_7  and  C_8
REMARK    5  A    between atoms: C_8  and  C_9
REMARK    6  A    between atoms: C_9  and  N_10
REMARK    7  A    between atoms: N_16  and  C_17
REMARK                            x       y       z     vdW  Elec       q    Type
REMARK                         _______ _______ _______ _____ _____    ______ ____
ROOT
ATOM      1  N   UNL     1       1.341   8.832  19.475  0.00  0.00    +0.000 N 
ATOM      2  C   UNL     1       2.264   8.387  18.554  0.00  0.00    +0.000 C 
ATOM      3  O   UNL     1       2.635   9.108  17.626  0.00  0.00    +0.000 OA
ATOM      4  N   UNL     1       2.692   7.082  18.762  0.00  0.00    +0.000 N 
ATOM      5  C   UNL     1       2.295   6.202  19.813  0.00  0.00    +0.000 A 
ATOM      6  O   UNL     1       1.535   6.466  20.739  0.00  0.00    +0.000 OA
ATOM      7  N   UNL     1       2.961   4.972  19.596  0.00  0.00    +0.000 N 
ATOM      8  C   UNL     1       3.735   5.080  18.432  0.00  0.00    +0.000 A 
ATOM      9  C   UNL     1       4.536   4.139  17.818  0.00  0.00    +0.000 A 
ATOM     10  C   UNL     1       5.211   4.526  16.661  0.00  0.00    +0.000 A 
ATOM     11  C   UNL     1       5.070   5.826  16.142  0.00  0.00    +0.000 A 
ATOM     12  C   UNL     1       4.244   6.765  16.774  0.00  0.00    +0.000 A 
ATOM     13  C   UNL     1       3.582   6.373  17.924  0.00  0.00    +0.000 A 
ATOM     14  H   UNL     1       1.200   8.278  20.318  0.00  0.00    +0.000 HD
ENDROOT
BRANCH   7  15
ATOM     15  C   UNL     1       2.813   3.801  20.389  0.00  0.00    +0.000 C 
ATOM     16  C   UNL     1       1.506   3.424  21.033  0.00  0.00    +0.000 C 
ATOM     17  C   UNL     1       2.024   2.619  19.882  0.00  0.00    +0.000 C 
ENDBRANCH   7  15
BRANCH   1  18
ATOM     18  C   UNL     1       0.769  10.157  19.410  0.00  0.00    +0.000 C 
BRANCH  18  19
ATOM     19  C   UNL     1      -0.286  10.369  20.508  0.00  0.00    +0.000 C 
BRANCH  19  23
ATOM     20  N   UNL     1      -1.813  13.257  22.361  0.00  0.00    +0.000 NA
ATOM     21  C   UNL     1      -0.890  13.334  21.209  0.00  0.00    +0.000 C 
ATOM     22  C   UNL     1       0.417  12.515  21.379  0.00  0.00    +0.000 C 
ATOM     23  N   UNL     1       0.204  11.083  21.703  0.00  0.00    +0.000 NA
ATOM     24  C   UNL     1      -0.743  10.997  22.840  0.00  0.00    +0.000 C 
ATOM     25  C   UNL     1      -2.044  11.823  22.668  0.00  0.00    +0.000 C 
BRANCH  20  26
ATOM     26  C   UNL     1      -1.313  13.951  23.560  0.00  0.00    +0.000 C 
BRANCH  26  28
ATOM     27  C   UNL     1      -1.819  15.381  25.559  0.00  0.00    +0.000 C 
ATOM     28  C   UNL     1      -2.412  14.479  24.487  0.00  0.00    +0.000 C 
ENDBRANCH  26  28
ENDBRANCH  20  26
ENDBRANCH  19  23
ENDBRANCH  18  19
ENDBRANCH   1  18
TORSDOF 6
ENDMDL
MODEL 6
REMARK VINA RESULT:      -7.2      2.361      3.116
REMARK  Name = 
REMARK  7 active torsions:
REMARK  status: ('A' for Active; 'I' for Inactive)
REMARK    1  A    between atoms: C_1  and  C_2
REMARK    2  A    between atoms: C_2  and  C_3
REMARK    3  A    between atoms: C_3  and  N_4
REMARK    4  A    between atoms: N_7  and  C_8
REMARK    5  A    between atoms: C_8  and  C_9
REMARK    6  A    between atoms: C_9  and  N_10
REMARK    7  A    between atoms: N_16  and  C_17
REMARK                            x       y       z     vdW  Elec       q    Type
REMARK                         _______ _______ _______ _____ _____    ______ ____
ROOT
ATOM      1  N   UNL     1       1.538   8.755  19.251  0.00  0.00    +0.000 N 
ATOM      2  C   UNL     1       2.455   8.224  18.369  0.00  0.00    +0.000 C 
ATOM      3  O   UNL     1       2.875   8.882  17.416  0.00  0.00    +0.000 OA
ATOM      4  N   UNL     1       2.818   6.912  18.647  0.00  0.00    +0.000 N 
ATOM      5  C   UNL     1       2.363   6.103  19.731  0.00  0.00    +0.000 A 
ATOM      6  O   UNL     1       1.600   6.445  20.628  0.00  0.00    +0.000 OA
ATOM      7  N   UNL     1       2.975   4.835  19.585  0.00  0.00    +0.000 N 
ATOM      8  C   UNL     1       3.773   4.852  18.433  0.00  0.00    +0.000 A 
ATOM      9  C   UNL     1       4.540   3.847  17.879  0.00  0.00    +0.000 A 
ATOM     10  C   UNL     1       5.252   4.146  16.718  0.00  0.00    +0.000 A 
ATOM     11  C   UNL     1       5.180   5.426  16.136  0.00  0.00    +0.000 A 
ATOM     12  C   UNL     1       4.388   6.430  16.706  0.00  0.00    +0.000 A 
ATOM     13  C   UNL     1       3.689   6.124  17.861  0.00  0.00    +0.000 A 
ATOM     14  H   UNL     1       1.358   8.249  20.116  0.00  0.00    +0.000 HD
ENDROOT
BRANCH   7  15
ATOM     15  C   UNL     1       2.760   3.711  20.429  0.00  0.00    +0.000 C 
ATOM     16  C   UNL     1       1.451   3.473  21.135  0.00  0.00    +0.000 C 
ATOM     17  C   UNL     1       1.853   2.584  20.000  0.00  0.00    +0.000 C 
ENDBRANCH   7  15
BRANCH   1  18
ATOM     18  C   UNL     1       1.029  10.100  19.112  0.00  0.00    +0.000 C 
BRANCH  18  19
ATOM     19  C   UNL     1       0.724  10.730  20.481  0.00  0.00    +0.000 C 
BRANCH  19  23
ATOM     20  N   UNL     1      -1.560  13.449  21.701  0.00  0.00    +0.000 NA
ATOM     21  C   UNL     1      -0.663  12.612  22.525  0.00  0.00    +0.000 C 
ATOM     22  C   UNL     1      -0.828  11.086  22.304  0.00  0.00    +0.000 C 
ATOM     23  N   UNL     1      -0.692  10.653  20.892  0.00  0.00    +0.000 NA
ATOM     24  C   UNL     1      -1.569  11.507  20.055  0.00  0.00    +0.000 C 
ATOM     25  C   UNL     1      -1.405  13.031  20.285  0.00  0.00    +0.000 C 
BRANCH  20  26
ATOM     26  C   UNL     1      -2.977  13.355  22.097  0.00  0.00    +0.000 C 
BRANCH  26  28
ATOM     27  C   UNL     1      -4.018  12.530  24.226  0.00  0.00    +0.000 C 
ATOM     28  C   UNL     1      -3.240  13.664  23.574  0.00  0.00    +0.000 C 
ENDBRANCH  26  28
ENDBRANCH  20  26
ENDBRANCH  19  23
ENDBRANCH  18  19
ENDBRANCH   1  18
TORSDOF 6
ENDMDL
MODEL 7
REMARK VINA RESULT:      -7.2      3.028      4.353
REMARK  Name = 
REMARK  7 active torsions:
REMARK  status: ('A' for Active; 'I' for Inactive)
REMARK    1  A    between atoms: C_1  and  C_2
REMARK    2  A    between atoms: C_2  and  C_3
REMARK    3  A    between atoms: C_3  and  N_4
REMARK    4  A    between atoms: N_7  and  C_8
REMARK    5  A    between atoms: C_8  and  C_9
REMARK    6  A    between atoms: C_9  and  N_10
REMARK    7  A    between atoms: N_16  and  C_17
REMARK                            x       y       z     vdW  Elec       q    Type
REMARK                         _______ _______ _______ _____ _____    ______ ____
ROOT
ATOM      1  N   UNL     1       1.225   8.970  19.194  0.00  0.00    +0.000 N 
ATOM      2  C   UNL     1       2.189   8.509  18.325  0.00  0.00    +0.000 C 
ATOM      3  O   UNL     1       2.537   9.177  17.350  0.00  0.00    +0.000 OA
ATOM      4  N   UNL     1       2.686   7.251  18.640  0.00  0.00    +0.000 N 
ATOM      5  C   UNL     1       2.318   6.434  19.751  0.00  0.00    +0.000 A 
ATOM      6  O   UNL     1       1.527   6.723  20.641  0.00  0.00    +0.000 OA
ATOM      7  N   UNL     1       3.057   5.231  19.641  0.00  0.00    +0.000 N 
ATOM      8  C   UNL     1       3.847   5.294  18.484  0.00  0.00    +0.000 A 
ATOM      9  C   UNL     1       4.711   4.356  17.957  0.00  0.00    +0.000 A 
ATOM     10  C   UNL     1       5.386   4.691  16.784  0.00  0.00    +0.000 A 
ATOM     11  C   UNL     1       5.181   5.938  16.163  0.00  0.00    +0.000 A 
ATOM     12  C   UNL     1       4.292   6.873  16.707  0.00  0.00    +0.000 A 
ATOM     13  C   UNL     1       3.631   6.533  17.874  0.00  0.00    +0.000 A 
ATOM     14  H   UNL     1       1.099   8.476  20.075  0.00  0.00    +0.000 HD
ENDROOT
BRANCH   7  15
ATOM     15  C   UNL     1       2.960   4.118  20.520  0.00  0.00    +0.000 C 
ATOM     16  C   UNL     1       1.657   3.697  21.146  0.00  0.00    +0.000 C 
ATOM     17  C   UNL     1       2.277   2.845  20.083  0.00  0.00    +0.000 C 
ENDBRANCH   7  15
BRANCH   1  18
ATOM     18  C   UNL     1       0.580  10.251  19.017  0.00  0.00    +0.000 C 
BRANCH  18  19
ATOM     19  C   UNL     1       0.995  11.246  20.113  0.00  0.00    +0.000 C 
BRANCH  19  23
ATOM     20  N   UNL     1       3.246  14.115  19.217  0.00  0.00    +0.000 NA
ATOM     21  C   UNL     1       2.865  13.682  20.578  0.00  0.00    +0.000 C 
ATOM     22  C   UNL     1       1.336  13.542  20.801  0.00  0.00    +0.000 C 
ATOM     23  N   UNL     1       0.654  12.654  19.828  0.00  0.00    +0.000 NA
ATOM     24  C   UNL     1       1.053  13.065  18.461  0.00  0.00    +0.000 C 
ATOM     25  C   UNL     1       2.582  13.211  18.245  0.00  0.00    +0.000 C 
BRANCH  20  26
ATOM     26  C   UNL     1       2.885  15.514  18.924  0.00  0.00    +0.000 C 
BRANCH  26  28
ATOM     27  C   UNL     1       2.554  17.250  17.142  0.00  0.00    +0.000 C 
ATOM     28  C   UNL     1       3.331  16.005  17.544  0.00  0.00    +0.000 C 
ENDBRANCH  26  28
ENDBRANCH  20  26
ENDBRANCH  19  23
ENDBRANCH  18  19
ENDBRANCH   1  18
TORSDOF 6
ENDMDL
MODEL 8
REMARK VINA RESULT:      -7.1      2.225      9.288
REMARK  Name = 
REMARK  7 active torsions:
REMARK  status: ('A' for Active; 'I' for Inactive)
REMARK    1  A    between atoms: C_1  and  C_2
REMARK    2  A    between atoms: C_2  and  C_3
REMARK    3  A    between atoms: C_3  and  N_4
REMARK    4  A    between atoms: N_7  and  C_8
REMARK    5  A    between atoms: C_8  and  C_9
REMARK    6  A    between atoms: C_9  and  N_10
REMARK    7  A    between atoms: N_16  and  C_17
REMARK                            x       y       z     vdW  Elec       q    Type
REMARK                         _______ _______ _______ _____ _____    ______ ____
ROOT
ATOM      1  N   UNL     1       1.546   8.103  19.747  0.00  0.00    +0.000 N 
ATOM      2  C   UNL     1       1.018   8.893  20.745  0.00  0.00    +0.000 C 
ATOM      3  O   UNL     1       1.308   8.703  21.927  0.00  0.00    +0.000 OA
ATOM      4  N   UNL     1       0.141   9.870  20.293  0.00  0.00    +0.000 N 
ATOM      5  C   UNL     1      -0.233  10.134  18.941  0.00  0.00    +0.000 A 
ATOM      6  O   UNL     1       0.191   9.564  17.941  0.00  0.00    +0.000 OA
ATOM      7  N   UNL     1      -1.173  11.192  18.971  0.00  0.00    +0.000 N 
ATOM      8  C   UNL     1      -1.389  11.562  20.305  0.00  0.00    +0.000 A 
ATOM      9  C   UNL     1      -2.230  12.525  20.826  0.00  0.00    +0.000 A 
ATOM     10  C   UNL     1      -2.238  12.691  22.210  0.00  0.00    +0.000 A 
ATOM     11  C   UNL     1      -1.423  11.897  23.038  0.00  0.00    +0.000 A 
ATOM     12  C   UNL     1      -0.584  10.917  22.493  0.00  0.00    +0.000 A 
ATOM     13  C   UNL     1      -0.580  10.763  21.118  0.00  0.00    +0.000 A 
ATOM     14  H   UNL     1       1.425   8.405  18.783  0.00  0.00    +0.000 HD
ENDROOT
BRANCH   7  15
ATOM     15  C   UNL     1      -1.838  11.740  17.839  0.00  0.00    +0.000 C 
ATOM     16  C   UNL     1      -2.305  10.887  16.690  0.00  0.00    +0.000 C 
ATOM     17  C   UNL     1      -3.311  11.498  17.616  0.00  0.00    +0.000 C 
ENDBRANCH   7  15
BRANCH   1  18
ATOM     18  C   UNL     1       2.464   7.022  20.028  0.00  0.00    +0.000 C 
BRANCH  18  19
ATOM     19  C   UNL     1       2.889   6.296  18.741  0.00  0.00    +0.000 C 
BRANCH  19  23
ATOM     20  N   UNL     1       4.850   4.660  15.989  0.00  0.00    +0.000 NA
ATOM     21  C   UNL     1       3.977   3.986  16.974  0.00  0.00    +0.000 C 
ATOM     22  C   UNL     1       4.286   4.341  18.452  0.00  0.00    +0.000 C 
ATOM     23  N   UNL     1       4.277   5.795  18.747  0.00  0.00    +0.000 NA
ATOM     24  C   UNL     1       5.129   6.480  17.746  0.00  0.00    +0.000 C 
ATOM     25  C   UNL     1       4.821   6.117  16.271  0.00  0.00    +0.000 C 
BRANCH  20  26
ATOM     26  C   UNL     1       6.242   4.174  16.011  0.00  0.00    +0.000 C 
BRANCH  26  28
ATOM     27  C   UNL     1       6.236   3.903  13.516  0.00  0.00    +0.000 C 
ATOM     28  C   UNL     1       7.016   4.424  14.714  0.00  0.00    +0.000 C 
ENDBRANCH  26  28
ENDBRANCH  20  26
ENDBRANCH  19  23
ENDBRANCH  18  19
ENDBRANCH   1  18
TORSDOF 6
ENDMDL
MODEL 9
REMARK VINA RESULT:      -7.1      2.459      3.247
REMARK  Name = 
REMARK  7 active torsions:
REMARK  status: ('A' for Active; 'I' for Inactive)
REMARK    1  A    between atoms: C_1  and  C_2
REMARK    2  A    between atoms: C_2  and  C_3
REMARK    3  A    between atoms: C_3  and  N_4
REMARK    4  A    between atoms: N_7  and  C_8
REMARK    5  A    between atoms: C_8  and  C_9
REMARK    6  A    between atoms: C_9  and  N_10
REMARK    7  A    between atoms: N_16  and  C_17
REMARK                            x       y       z     vdW  Elec       q    Type
REMARK                         _______ _______ _______ _____ _____    ______ ____
ROOT
ATOM      1  N   UNL     1       1.405   8.860  19.154  0.00  0.00    +0.000 N 
ATOM      2  C   UNL     1       2.345   8.320  18.304  0.00  0.00    +0.000 C 
ATOM      3  O   UNL     1       2.750   8.945  17.323  0.00  0.00    +0.000 OA
ATOM      4  N   UNL     1       2.750   7.035  18.646  0.00  0.00    +0.000 N 
ATOM      5  C   UNL     1       2.314   6.264  19.765  0.00  0.00    +0.000 A 
ATOM      6  O   UNL     1       1.534   6.622  20.640  0.00  0.00    +0.000 OA
ATOM      7  N   UNL     1       2.968   5.011  19.683  0.00  0.00    +0.000 N 
ATOM      8  C   UNL     1       3.774   5.000  18.535  0.00  0.00    +0.000 A 
ATOM      9  C   UNL     1       4.577   3.996  18.034  0.00  0.00    +0.000 A 
ATOM     10  C   UNL     1       5.287   4.264  16.864  0.00  0.00    +0.000 A 
ATOM     11  C   UNL     1       5.177   5.511  16.222  0.00  0.00    +0.000 A 
ATOM     12  C   UNL     1       4.348   6.515  16.739  0.00  0.00    +0.000 A 
ATOM     13  C   UNL     1       3.652   6.240  17.903  0.00  0.00    +0.000 A 
ATOM     14  H   UNL     1       1.235   8.390  20.041  0.00  0.00    +0.000 HD
ENDROOT
BRANCH   7  15
ATOM     15  C   UNL     1       2.784   3.922  20.578  0.00  0.00    +0.000 C 
ATOM     16  C   UNL     1       1.431   3.543  21.118  0.00  0.00    +0.000 C 
ATOM     17  C   UNL     1       2.107   2.652  20.122  0.00  0.00    +0.000 C 
ENDBRANCH   7  15
BRANCH   1  18
ATOM     18  C   UNL     1       0.853  10.180  18.949  0.00  0.00    +0.000 C 
BRANCH  18  19
ATOM     19  C   UNL     1      -0.258  10.489  19.966  0.00  0.00    +0.000 C 
BRANCH  19  23
ATOM     20  N   UNL     1      -2.442  12.056  22.588  0.00  0.00    +0.000 NA
ATOM     21  C   UNL     1      -2.475  12.323  21.134  0.00  0.00    +0.000 C 
ATOM     22  C   UNL     1      -1.099  12.690  20.519  0.00  0.00    +0.000 C 
ATOM     23  N   UNL     1      -0.028  11.698  20.780  0.00  0.00    +0.000 NA
ATOM     24  C   UNL     1      -0.007  11.404  22.233  0.00  0.00    +0.000 C 
ATOM     25  C   UNL     1      -1.386  11.044  22.844  0.00  0.00    +0.000 C 
BRANCH  20  26
ATOM     26  C   UNL     1      -2.190  13.259  23.400  0.00  0.00    +0.000 C 
BRANCH  26  28
ATOM     27  C   UNL     1      -4.262  12.596  24.651  0.00  0.00    +0.000 C 
ATOM     28  C   UNL     1      -3.410  13.764  24.175  0.00  0.00    +0.000 C 
ENDBRANCH  26  28
ENDBRANCH  20  26
ENDBRANCH  19  23
ENDBRANCH  18  19
ENDBRANCH   1  18
TORSDOF 6
ENDMDL
