MODEL 1
REMARK VINA RESULT:      -7.5      0.000      0.000
REMARK  Name = 
REMARK  8 active torsions:
REMARK  status: ('A' for Active; 'I' for Inactive)
REMARK    1  A    between atoms: C_1  and  C_2
REMARK    2  A    between atoms: C_6  and  N_7
REMARK    3  A    between atoms: C_15  and  N_16
REMARK    4  A    between atoms: C_17  and  C_19
REMARK    5  A    between atoms: C_19  and  C_20
REMARK    6  A    between atoms: C_20  and  C_21
REMARK    7  A    between atoms: C_21  and  N_22
REMARK    8  A    between atoms: C_29  and  C_30
REMARK                            x       y       z     vdW  Elec       q    Type
REMARK                         _______ _______ _______ _____ _____    ______ ____
ROOT
ATOM      1  N   UNL     1       1.011   9.627  18.713  0.00  0.00    +0.000 N 
ATOM      2  N   UNL     1       1.788   9.820  17.612  0.00  0.00    +0.000 NA
ATOM      3  C   UNL     1       2.689   8.838  17.642  0.00  0.00    +0.000 A 
ATOM      4  C   UNL     1       2.495   7.956  18.717  0.00  0.00    +0.000 A 
ATOM      5  C   UNL     1       1.407   8.475  19.387  0.00  0.00    +0.000 A 
ATOM      6  C   UNL     1       0.716   7.833  20.529  0.00  0.00    +0.000 C 
ATOM      7  C   UNL     1       1.456   6.616  21.090  0.00  0.00    +0.000 C 
ATOM      8  C   UNL     1       2.725   6.085  20.406  0.00  0.00    +0.000 C 
ATOM      9  C   UNL     1       3.240   6.732  19.103  0.00  0.00    +0.000 C 
ENDROOT
BRANCH   1  15
ATOM     10  C   UNL     1      -3.491  11.871  18.149  0.00  0.00    +0.000 C 
ATOM     11  C   UNL     1      -2.154  11.690  18.822  0.00  0.00    +0.000 A 
ATOM     12  C   UNL     1      -1.812  12.579  19.851  0.00  0.00    +0.000 A 
ATOM     13  C   UNL     1      -0.577  12.491  20.479  0.00  0.00    +0.000 A 
ATOM     14  C   UNL     1       0.333  11.519  20.075  0.00  0.00    +0.000 A 
ATOM     15  C   UNL     1       0.011  10.584  19.075  0.00  0.00    +0.000 A 
ATOM     16  C   UNL     1      -1.253  10.658  18.434  0.00  0.00    +0.000 A 
ATOM     17  C   UNL     1      -1.720   9.672  17.389  0.00  0.00    +0.000 C 
ENDBRANCH   1  15
BRANCH   9  18
ATOM     18  N   UNL     1       3.209   5.780  18.002  0.00  0.00    +0.000 N 
ATOM     19  C   UNL     1       4.383   5.266  17.492  0.00  0.00    +0.000 C 
ATOM     20  O   UNL     1       5.494   5.623  17.871  0.00  0.00    +0.000 OA
ATOM     21  H   UNL     1       2.320   5.387  17.723  0.00  0.00    +0.000 HD
BRANCH  19  22
ATOM     22  C   UNL     1       4.210   4.194  16.441  0.00  0.00    +0.000 C 
BRANCH  22  23
ATOM     23  C   UNL     1       2.968   3.357  16.739  0.00  0.00    +0.000 C 
BRANCH  23  24
ATOM     24  C   UNL     1       3.268   2.273  17.778  0.00  0.00    +0.000 C 
BRANCH  24  25
ATOM     25  N   UNL     1       2.676   2.566  19.084  0.00  0.00    +0.000 N 
ATOM     26  C   UNL     1       1.221   2.530  19.178  0.00  0.00    +0.000 C 
ATOM     27  C   UNL     1       0.688   3.123  20.470  0.00  0.00    +0.000 C 
ATOM     28  C   UNL     1       1.387   2.450  21.637  0.00  0.00    +0.000 C 
ATOM     29  C   UNL     1       2.876   2.726  21.561  0.00  0.00    +0.000 C 
ATOM     30  C   UNL     1       3.499   2.488  20.199  0.00  0.00    +0.000 C 
ATOM     31  O   UNL     1       4.721   2.316  20.108  0.00  0.00    +0.000 OA
ENDBRANCH  24  25
ENDBRANCH  23  24
ENDBRANCH  22  23
ENDBRANCH  19  22
ENDBRANCH   9  18
TORSDOF 6
ENDMDL
MODEL 2
REMARK VINA RESULT:      -7.2      3.439      8.794
REMARK  Name = 
REMARK  8 active torsions:
REMARK  status: ('A' for Active; 'I' for Inactive)
REMARK    1  A    between atoms: C_1  and  C_2
REMARK    2  A    between atoms: C_6  and  N_7
REMARK    3  A    between atoms: C_15  and  N_16
REMARK    4  A    between atoms: C_17  and  C_19
REMARK    5  A    between atoms: C_19  and  C_20
REMARK    6  A    between atoms: C_20  and  C_21
REMARK    7  A    between atoms: C_21  and  N_22
REMARK    8  A    between atoms: C_29  and  C_30
REMARK                            x       y       z     vdW  Elec       q    Type
REMARK                         _______ _______ _______ _____ _____    ______ ____
ROOT
ATOM      1  N   UNL     1       2.799   7.164  18.584  0.00  0.00    +0.000 N 
ATOM      2  N   UNL     1       2.976   7.992  17.518  0.00  0.00    +0.000 NA
ATOM      3  C   UNL     1       2.154   9.019  17.733  0.00  0.00    +0.000 A 
ATOM      4  C   UNL     1       1.469   8.920  18.954  0.00  0.00    +0.000 A 
ATOM      5  C   UNL     1       1.904   7.726  19.490  0.00  0.00    +0.000 A 
ATOM      6  C   UNL     1       1.574   7.220  20.842  0.00  0.00    +0.000 C 
ATOM      7  C   UNL     1       0.490   8.032  21.555  0.00  0.00    +0.000 C 
ATOM      8  C   UNL     1      -0.072   9.315  20.924  0.00  0.00    +0.000 C 
ATOM      9  C   UNL     1       0.494   9.843  19.588  0.00  0.00    +0.000 C 
ENDROOT
BRANCH   1  15
ATOM     10  C   UNL     1       2.809   2.126  18.080  0.00  0.00    +0.000 C 
ATOM     11  C   UNL     1       3.465   3.448  18.391  0.00  0.00    +0.000 A 
ATOM     12  C   UNL     1       4.796   3.432  18.831  0.00  0.00    +0.000 A 
ATOM     13  C   UNL     1       5.441   4.611  19.176  0.00  0.00    +0.000 A 
ATOM     14  C   UNL     1       4.755   5.819  19.096  0.00  0.00    +0.000 A 
ATOM     15  C   UNL     1       3.432   5.881  18.621  0.00  0.00    +0.000 A 
ATOM     16  C   UNL     1       2.768   4.682  18.256  0.00  0.00    +0.000 A 
ATOM     17  C   UNL     1       1.370   4.641  17.684  0.00  0.00    +0.000 C 
ENDBRANCH   1  15
BRANCH   9  18
ATOM     18  N   UNL     1       1.111  11.150  19.765  0.00  0.00    +0.000 N 
ATOM     19  C   UNL     1       0.353  12.297  19.665  0.00  0.00    +0.000 C 
ATOM     20  O   UNL     1      -0.835  12.294  19.358  0.00  0.00    +0.000 OA
ATOM     21  H   UNL     1       2.061  11.197  20.111  0.00  0.00    +0.000 HD
BRANCH  19  22
ATOM     22  C   UNL     1       1.084  13.579  19.996  0.00  0.00    +0.000 C 
BRANCH  22  23
ATOM     23  C   UNL     1       0.124  14.587  20.623  0.00  0.00    +0.000 C 
BRANCH  23  24
ATOM     24  C   UNL     1       0.015  14.381  22.136  0.00  0.00    +0.000 C 
BRANCH  24  25
ATOM     25  N   UNL     1      -1.306  13.903  22.545  0.00  0.00    +0.000 N 
ATOM     26  C   UNL     1      -2.457  14.706  22.144  0.00  0.00    +0.000 C 
ATOM     27  C   UNL     1      -3.742  14.305  22.846  0.00  0.00    +0.000 C 
ATOM     28  C   UNL     1      -3.950  12.814  22.662  0.00  0.00    +0.000 C 
ATOM     29  C   UNL     1      -2.800  12.060  23.301  0.00  0.00    +0.000 C 
ATOM     30  C   UNL     1      -1.421  12.578  22.939  0.00  0.00    +0.000 C 
ATOM     31  O   UNL     1      -0.436  11.844  23.085  0.00  0.00    +0.000 OA
ENDBRANCH  24  25
ENDBRANCH  23  24
ENDBRANCH  22  23
ENDBRANCH  19  22
ENDBRANCH   9  18
TORSDOF 6
ENDMDL
MODEL 3
REMARK VINA RESULT:      -7.2      0.410      1.531
REMARK  Name = 
REMARK  8 active torsions:
REMARK  status: ('A' for Active; 'I' for Inactive)
REMARK    1  A    between atoms: C_1  and  C_2
REMARK    2  A    between atoms: C_6  and  N_7
REMARK    3  A    between atoms: C_15  and  N_16
REMARK    4  A    between atoms: C_17  and  C_19
REMARK    5  A    between atoms: C_19  and  C_20
REMARK    6  A    between atoms: C_20  and  C_21
REMARK    7  A    between atoms: C_21  and  N_22
REMARK    8  A    between atoms: C_29  and  C_30
REMARK                            x       y       z     vdW  Elec       q    Type
REMARK                         _______ _______ _______ _____ _____    ______ ____
ROOT
ATOM      1  N   UNL     1       0.962   9.694  18.609  0.00  0.00    +0.000 N 
ATOM      2  N   UNL     1       1.733   9.894  17.505  0.00  0.00    +0.000 NA
ATOM      3  C   UNL     1       2.648   8.925  17.536  0.00  0.00    +0.000 A 
ATOM      4  C   UNL     1       2.469   8.045  18.614  0.00  0.00    +0.000 A 
ATOM      5  C   UNL     1       1.376   8.550  19.286  0.00  0.00    +0.000 A 
ATOM      6  C   UNL     1       0.699   7.903  20.433  0.00  0.00    +0.000 C 
ATOM      7  C   UNL     1       1.457   6.699  20.997  0.00  0.00    +0.000 C 
ATOM      8  C   UNL     1       2.731   6.183  20.310  0.00  0.00    +0.000 C 
ATOM      9  C   UNL     1       3.233   6.833  19.003  0.00  0.00    +0.000 C 
ENDROOT
BRANCH   1  15
ATOM     10  C   UNL     1      -0.780  13.637  21.262  0.00  0.00    +0.000 C 
ATOM     11  C   UNL     1      -0.920  12.536  20.242  0.00  0.00    +0.000 A 
ATOM     12  C   UNL     1      -2.172  12.359  19.635  0.00  0.00    +0.000 A 
ATOM     13  C   UNL     1      -2.376  11.334  18.722  0.00  0.00    +0.000 A 
ATOM     14  C   UNL     1      -1.331  10.468  18.414  0.00  0.00    +0.000 A 
ATOM     15  C   UNL     1      -0.051  10.638  18.971  0.00  0.00    +0.000 A 
ATOM     16  C   UNL     1       0.171  11.689  19.898  0.00  0.00    +0.000 A 
ATOM     17  C   UNL     1       1.518  11.993  20.511  0.00  0.00    +0.000 C 
ENDBRANCH   1  15
BRANCH   9  18
ATOM     18  N   UNL     1       3.212   5.876  17.905  0.00  0.00    +0.000 N 
ATOM     19  C   UNL     1       4.388   5.338  17.427  0.00  0.00    +0.000 C 
ATOM     20  O   UNL     1       5.496   5.675  17.833  0.00  0.00    +0.000 OA
ATOM     21  H   UNL     1       2.322   5.498  17.605  0.00  0.00    +0.000 HD
BRANCH  19  22
ATOM     22  C   UNL     1       4.221   4.263  16.377  0.00  0.00    +0.000 C 
BRANCH  22  23
ATOM     23  C   UNL     1       3.089   3.316  16.765  0.00  0.00    +0.000 C 
BRANCH  23  24
ATOM     24  C   UNL     1       3.516   2.377  17.897  0.00  0.00    +0.000 C 
BRANCH  24  25
ATOM     25  N   UNL     1       2.809   2.648  19.149  0.00  0.00    +0.000 N 
ATOM     26  C   UNL     1       1.351   2.673  19.098  0.00  0.00    +0.000 C 
ATOM     27  C   UNL     1       0.716   3.240  20.355  0.00  0.00    +0.000 C 
ATOM     28  C   UNL     1       1.267   2.494  21.556  0.00  0.00    +0.000 C 
ATOM     29  C   UNL     1       2.767   2.707  21.639  0.00  0.00    +0.000 C 
ATOM     30  C   UNL     1       3.512   2.492  20.335  0.00  0.00    +0.000 C 
ATOM     31  O   UNL     1       4.729   2.271  20.358  0.00  0.00    +0.000 OA
ENDBRANCH  24  25
ENDBRANCH  23  24
ENDBRANCH  22  23
ENDBRANCH  19  22
ENDBRANCH   9  18
TORSDOF 6
ENDMDL
MODEL 4
REMARK VINA RESULT:      -7.1      3.095      4.678
REMARK  Name = 
REMARK  8 active torsions:
REMARK  status: ('A' for Active; 'I' for Inactive)
REMARK    1  A    between atoms: C_1  and  C_2
REMARK    2  A    between atoms: C_6  and  N_7
REMARK    3  A    between atoms: C_15  and  N_16
REMARK    4  A    between atoms: C_17  and  C_19
REMARK    5  A    between atoms: C_19  and  C_20
REMARK    6  A    between atoms: C_20  and  C_21
REMARK    7  A    between atoms: C_21  and  N_22
REMARK    8  A    between atoms: C_29  and  C_30
REMARK                            x       y       z     vdW  Elec       q    Type
REMARK                         _______ _______ _______ _____ _____    ______ ____
ROOT
ATOM      1  N   UNL     1      -1.792  12.212  21.344  0.00  0.00    +0.000 N 
ATOM      2  N   UNL     1      -1.464  12.529  20.062  0.00  0.00    +0.000 NA
ATOM      3  C   UNL     1      -0.376  11.808  19.790  0.00  0.00    +0.000 A 
ATOM      4  C   UNL     1      -0.001  10.970  20.852  0.00  0.00    +0.000 A 
ATOM      5  C   UNL     1      -0.928  11.238  21.838  0.00  0.00    +0.000 A 
ATOM      6  C   UNL     1      -1.049  10.512  23.123  0.00  0.00    +0.000 C 
ATOM      7  C   UNL     1       0.113   9.556  23.401  0.00  0.00    +0.000 C 
ATOM      8  C   UNL     1       1.205   9.320  22.347  0.00  0.00    +0.000 C 
ATOM      9  C   UNL     1       1.115   9.998  20.962  0.00  0.00    +0.000 C 
ENDROOT
BRANCH   1  15
ATOM     10  C   UNL     1      -3.572  15.308  24.933  0.00  0.00    +0.000 C 
ATOM     11  C   UNL     1      -3.733  14.393  23.745  0.00  0.00    +0.000 A 
ATOM     12  C   UNL     1      -5.034  14.130  23.291  0.00  0.00    +0.000 A 
ATOM     13  C   UNL     1      -5.250  13.261  22.231  0.00  0.00    +0.000 A 
ATOM     14  C   UNL     1      -4.167  12.637  21.620  0.00  0.00    +0.000 A 
ATOM     15  C   UNL     1      -2.845  12.907  22.019  0.00  0.00    +0.000 A 
ATOM     16  C   UNL     1      -2.613  13.802  23.095  0.00  0.00    +0.000 A 
ATOM     17  C   UNL     1      -1.234  14.203  23.567  0.00  0.00    +0.000 C 
ENDBRANCH   1  15
BRANCH   9  18
ATOM     18  N   UNL     1       0.996   9.004  19.904  0.00  0.00    +0.000 N 
ATOM     19  C   UNL     1       1.659   9.178  18.708  0.00  0.00    +0.000 C 
ATOM     20  O   UNL     1       2.311  10.182  18.439  0.00  0.00    +0.000 OA
ATOM     21  H   UNL     1       0.550   8.121  20.113  0.00  0.00    +0.000 HD
BRANCH  19  22
ATOM     22  C   UNL     1       1.557   8.018  17.744  0.00  0.00    +0.000 C 
BRANCH  22  23
ATOM     23  C   UNL     1       2.925   7.369  17.552  0.00  0.00    +0.000 C 
BRANCH  23  24
ATOM     24  C   UNL     1       3.305   6.508  18.759  0.00  0.00    +0.000 C 
BRANCH  24  25
ATOM     25  N   UNL     1       2.429   5.348  18.922  0.00  0.00    +0.000 N 
ATOM     26  C   UNL     1       2.650   4.217  18.026  0.00  0.00    +0.000 C 
ATOM     27  C   UNL     1       1.530   3.193  18.065  0.00  0.00    +0.000 C 
ATOM     28  C   UNL     1       1.295   2.786  19.507  0.00  0.00    +0.000 C 
ATOM     29  C   UNL     1       0.865   3.997  20.312  0.00  0.00    +0.000 C 
ATOM     30  C   UNL     1       1.723   5.231  20.111  0.00  0.00    +0.000 C 
ATOM     31  O   UNL     1       1.708   6.130  20.961  0.00  0.00    +0.000 OA
ENDBRANCH  24  25
ENDBRANCH  23  24
ENDBRANCH  22  23
ENDBRANCH  19  22
ENDBRANCH   9  18
TORSDOF 6
ENDMDL
MODEL 5
REMARK VINA RESULT:      -7.1      3.560      8.766
REMARK  Name = 
REMARK  8 active torsions:
REMARK  status: ('A' for Active; 'I' for Inactive)
REMARK    1  A    between atoms: C_1  and  C_2
REMARK    2  A    between atoms: C_6  and  N_7
REMARK    3  A    between atoms: C_15  and  N_16
REMARK    4  A    between atoms: C_17  and  C_19
REMARK    5  A    between atoms: C_19  and  C_20
REMARK    6  A    between atoms: C_20  and  C_21
REMARK    7  A    between atoms: C_21  and  N_22
REMARK    8  A    between atoms: C_29  and  C_30
REMARK                            x       y       z     vdW  Elec       q    Type
REMARK                         _______ _______ _______ _____ _____    ______ ____
ROOT
ATOM      1  N   UNL     1       2.820   7.159  18.560  0.00  0.00    +0.000 N 
ATOM      2  N   UNL     1       2.962   7.978  17.481  0.00  0.00    +0.000 NA
ATOM      3  C   UNL     1       2.133   8.998  17.705  0.00  0.00    +0.000 A 
ATOM      4  C   UNL     1       1.479   8.904  18.943  0.00  0.00    +0.000 A 
ATOM      5  C   UNL     1       1.940   7.721  19.481  0.00  0.00    +0.000 A 
ATOM      6  C   UNL     1       1.649   7.227  20.846  0.00  0.00    +0.000 C 
ATOM      7  C   UNL     1       0.572   8.034  21.576  0.00  0.00    +0.000 C 
ATOM      8  C   UNL     1      -0.019   9.304  20.945  0.00  0.00    +0.000 C 
ATOM      9  C   UNL     1       0.509   9.823  19.590  0.00  0.00    +0.000 C 
ENDROOT
BRANCH   1  15
ATOM     10  C   UNL     1       2.888   2.122  18.062  0.00  0.00    +0.000 C 
ATOM     11  C   UNL     1       3.530   3.451  18.369  0.00  0.00    +0.000 A 
ATOM     12  C   UNL     1       4.863   3.452  18.802  0.00  0.00    +0.000 A 
ATOM     13  C   UNL     1       5.495   4.639  19.143  0.00  0.00    +0.000 A 
ATOM     14  C   UNL     1       4.795   5.839  19.065  0.00  0.00    +0.000 A 
ATOM     15  C   UNL     1       3.469   5.884  18.596  0.00  0.00    +0.000 A 
ATOM     16  C   UNL     1       2.818   4.677  18.235  0.00  0.00    +0.000 A 
ATOM     17  C   UNL     1       1.418   4.618  17.669  0.00  0.00    +0.000 C 
ENDBRANCH   1  15
BRANCH   9  18
ATOM     18  N   UNL     1       1.115  11.139  19.738  0.00  0.00    +0.000 N 
ATOM     19  C   UNL     1       0.579  12.229  19.086  0.00  0.00    +0.000 C 
ATOM     20  O   UNL     1      -0.367  12.151  18.308  0.00  0.00    +0.000 OA
ATOM     21  H   UNL     1       1.832  11.269  20.439  0.00  0.00    +0.000 HD
BRANCH  19  22
ATOM     22  C   UNL     1       1.220  13.556  19.423  0.00  0.00    +0.000 C 
BRANCH  22  23
ATOM     23  C   UNL     1       0.755  14.035  20.796  0.00  0.00    +0.000 C 
BRANCH  23  24
ATOM     24  C   UNL     1      -0.714  14.464  20.764  0.00  0.00    +0.000 C 
BRANCH  24  25
ATOM     25  N   UNL     1      -1.579  13.570  21.534  0.00  0.00    +0.000 N 
ATOM     26  C   UNL     1      -0.937  12.726  22.538  0.00  0.00    +0.000 C 
ATOM     27  C   UNL     1      -1.848  11.638  23.078  0.00  0.00    +0.000 C 
ATOM     28  C   UNL     1      -3.136  12.277  23.559  0.00  0.00    +0.000 C 
ATOM     29  C   UNL     1      -3.834  12.950  22.392  0.00  0.00    +0.000 C 
ATOM     30  C   UNL     1      -2.941  13.834  21.542  0.00  0.00    +0.000 C 
ATOM     31  O   UNL     1      -3.450  14.701  20.820  0.00  0.00    +0.000 OA
ENDBRANCH  24  25
ENDBRANCH  23  24
ENDBRANCH  22  23
ENDBRANCH  19  22
ENDBRANCH   9  18
TORSDOF 6
ENDMDL
MODEL 6
REMARK VINA RESULT:      -7.0      4.599      9.441
REMARK  Name = 
REMARK  8 active torsions:
REMARK  status: ('A' for Active; 'I' for Inactive)
REMARK    1  A    between atoms: C_1  and  C_2
REMARK    2  A    between atoms: C_6  and  N_7
REMARK    3  A    between atoms: C_15  and  N_16
REMARK    4  A    between atoms: C_17  and  C_19
REMARK    5  A    between atoms: C_19  and  C_20
REMARK    6  A    between atoms: C_20  and  C_21
REMARK    7  A    between atoms: C_21  and  N_22
REMARK    8  A    between atoms: C_29  and  C_30
REMARK                            x       y       z     vdW  Elec       q    Type
REMARK                         _______ _______ _______ _____ _____    ______ ____
ROOT
ATOM      1  N   UNL     1       2.828   7.119  18.530  0.00  0.00    +0.000 N 
ATOM      2  N   UNL     1       3.012   7.860  17.404  0.00  0.00    +0.000 NA
ATOM      3  C   UNL     1       2.229   8.928  17.555  0.00  0.00    +0.000 A 
ATOM      4  C   UNL     1       1.564   8.943  18.791  0.00  0.00    +0.000 A 
ATOM      5  C   UNL     1       1.969   7.777  19.406  0.00  0.00    +0.000 A 
ATOM      6  C   UNL     1       1.648   7.384  20.798  0.00  0.00    +0.000 C 
ATOM      7  C   UNL     1       0.605   8.283  21.466  0.00  0.00    +0.000 C 
ATOM      8  C   UNL     1       0.074   9.534  20.751  0.00  0.00    +0.000 C 
ATOM      9  C   UNL     1       0.632   9.942  19.370  0.00  0.00    +0.000 C 
ENDROOT
BRANCH   1  15
ATOM     10  C   UNL     1       2.707   2.066  18.241  0.00  0.00    +0.000 C 
ATOM     11  C   UNL     1       3.388   3.381  18.528  0.00  0.00    +0.000 A 
ATOM     12  C   UNL     1       4.696   3.346  19.032  0.00  0.00    +0.000 A 
ATOM     13  C   UNL     1       5.360   4.520  19.357  0.00  0.00    +0.000 A 
ATOM     14  C   UNL     1       4.716   5.743  19.193  0.00  0.00    +0.000 A 
ATOM     15  C   UNL     1       3.420   5.821  18.653  0.00  0.00    +0.000 A 
ATOM     16  C   UNL     1       2.737   4.627  18.306  0.00  0.00    +0.000 A 
ATOM     17  C   UNL     1       1.367   4.601  17.670  0.00  0.00    +0.000 C 
ENDBRANCH   1  15
BRANCH   9  18
ATOM     18  N   UNL     1       1.295  11.237  19.439  0.00  0.00    +0.000 N 
ATOM     19  C   UNL     1       0.663  12.370  18.972  0.00  0.00    +0.000 C 
ATOM     20  O   UNL     1      -0.433  12.349  18.419  0.00  0.00    +0.000 OA
ATOM     21  H   UNL     1       2.153  11.317  19.970  0.00  0.00    +0.000 HD
BRANCH  19  22
ATOM     22  C   UNL     1       1.403  13.665  19.218  0.00  0.00    +0.000 C 
BRANCH  22  23
ATOM     23  C   UNL     1       2.824  13.574  18.668  0.00  0.00    +0.000 C 
BRANCH  23  24
ATOM     24  C   UNL     1       3.217  14.859  17.935  0.00  0.00    +0.000 C 
BRANCH  24  25
ATOM     25  N   UNL     1       4.520  15.373  18.360  0.00  0.00    +0.000 N 
ATOM     26  C   UNL     1       5.702  14.667  17.879  0.00  0.00    +0.000 C 
ATOM     27  C   UNL     1       6.979  15.079  18.590  0.00  0.00    +0.000 C 
ATOM     28  C   UNL     1       7.106  16.589  18.521  0.00  0.00    +0.000 C 
ATOM     29  C   UNL     1       5.931  17.229  19.236  0.00  0.00    +0.000 C 
ATOM     30  C   UNL     1       4.574  16.668  18.856  0.00  0.00    +0.000 C 
ATOM     31  O   UNL     1       3.555  17.335  19.074  0.00  0.00    +0.000 OA
ENDBRANCH  24  25
ENDBRANCH  23  24
ENDBRANCH  22  23
ENDBRANCH  19  22
ENDBRANCH   9  18
TORSDOF 6
ENDMDL
MODEL 7
REMARK VINA RESULT:      -7.0      3.379      8.763
REMARK  Name = 
REMARK  8 active torsions:
REMARK  status: ('A' for Active; 'I' for Inactive)
REMARK    1  A    between atoms: C_1  and  C_2
REMARK    2  A    between atoms: C_6  and  N_7
REMARK    3  A    between atoms: C_15  and  N_16
REMARK    4  A    between atoms: C_17  and  C_19
REMARK    5  A    between atoms: C_19  and  C_20
REMARK    6  A    between atoms: C_20  and  C_21
REMARK    7  A    between atoms: C_21  and  N_22
REMARK    8  A    between atoms: C_29  and  C_30
REMARK                            x       y       z     vdW  Elec       q    Type
REMARK                         _______ _______ _______ _____ _____    ______ ____
ROOT
ATOM      1  N   UNL     1       2.801   7.163  18.552  0.00  0.00    +0.000 N 
ATOM      2  N   UNL     1       2.900   7.924  17.427  0.00  0.00    +0.000 NA
ATOM      3  C   UNL     1       2.063   8.943  17.619  0.00  0.00    +0.000 A 
ATOM      4  C   UNL     1       1.445   8.908  18.879  0.00  0.00    +0.000 A 
ATOM      5  C   UNL     1       1.940   7.762  19.467  0.00  0.00    +0.000 A 
ATOM      6  C   UNL     1       1.694   7.340  20.864  0.00  0.00    +0.000 C 
ATOM      7  C   UNL     1       0.627   8.171  21.580  0.00  0.00    +0.000 C 
ATOM      8  C   UNL     1      -0.001   9.396  20.899  0.00  0.00    +0.000 C 
ATOM      9  C   UNL     1       0.480   9.847  19.503  0.00  0.00    +0.000 C 
ENDROOT
BRANCH   1  15
ATOM     10  C   UNL     1       2.949   2.112  18.255  0.00  0.00    +0.000 C 
ATOM     11  C   UNL     1       3.570   3.462  18.508  0.00  0.00    +0.000 A 
ATOM     12  C   UNL     1       4.903   3.501  18.940  0.00  0.00    +0.000 A 
ATOM     13  C   UNL     1       5.516   4.711  19.233  0.00  0.00    +0.000 A 
ATOM     14  C   UNL     1       4.797   5.896  19.108  0.00  0.00    +0.000 A 
ATOM     15  C   UNL     1       3.471   5.901  18.638  0.00  0.00    +0.000 A 
ATOM     16  C   UNL     1       2.838   4.670  18.326  0.00  0.00    +0.000 A 
ATOM     17  C   UNL     1       1.439   4.567  17.765  0.00  0.00    +0.000 C 
ENDBRANCH   1  15
BRANCH   9  18
ATOM     18  N   UNL     1       1.070  11.178  19.562  0.00  0.00    +0.000 N 
ATOM     19  C   UNL     1       0.444  12.244  18.952  0.00  0.00    +0.000 C 
ATOM     20  O   UNL     1      -0.577  12.132  18.281  0.00  0.00    +0.000 OA
ATOM     21  H   UNL     1       1.855  11.336  20.180  0.00  0.00    +0.000 HD
BRANCH  19  22
ATOM     22  C   UNL     1       1.089  13.590  19.194  0.00  0.00    +0.000 C 
BRANCH  22  23
ATOM     23  C   UNL     1       0.074  14.709  18.979  0.00  0.00    +0.000 C 
BRANCH  23  24
ATOM     24  C   UNL     1      -0.293  15.387  20.301  0.00  0.00    +0.000 C 
BRANCH  24  25
ATOM     25  N   UNL     1      -1.086  14.523  21.176  0.00  0.00    +0.000 N 
ATOM     26  C   UNL     1      -2.336  13.997  20.636  0.00  0.00    +0.000 C 
ATOM     27  C   UNL     1      -3.224  13.361  21.690  0.00  0.00    +0.000 C 
ATOM     28  C   UNL     1      -2.412  12.330  22.450  0.00  0.00    +0.000 C 
ATOM     29  C   UNL     1      -1.253  13.014  23.150  0.00  0.00    +0.000 C 
ATOM     30  C   UNL     1      -0.454  13.963  22.277  0.00  0.00    +0.000 C 
ATOM     31  O   UNL     1       0.695  14.277  22.610  0.00  0.00    +0.000 OA
ENDBRANCH  24  25
ENDBRANCH  23  24
ENDBRANCH  22  23
ENDBRANCH  19  22
ENDBRANCH   9  18
TORSDOF 6
ENDMDL
MODEL 8
REMARK VINA RESULT:      -6.9      1.338      2.168
REMARK  Name = 
REMARK  8 active torsions:
REMARK  status: ('A' for Active; 'I' for Inactive)
REMARK    1  A    between atoms: C_1  and  C_2
REMARK    2  A    between atoms: C_6  and  N_7
REMARK    3  A    between atoms: C_15  and  N_16
REMARK    4  A    between atoms: C_17  and  C_19
REMARK    5  A    between atoms: C_19  and  C_20
REMARK    6  A    between atoms: C_20  and  C_21
REMARK    7  A    between atoms: C_21  and  N_22
REMARK    8  A    between atoms: C_29  and  C_30
REMARK                            x       y       z     vdW  Elec       q    Type
REMARK                         _______ _______ _______ _____ _____    ______ ____
ROOT
ATOM      1  N   UNL     1       1.048  10.166  18.652  0.00  0.00    +0.000 N 
ATOM      2  N   UNL     1       1.842  10.068  17.550  0.00  0.00    +0.000 NA
ATOM      3  C   UNL     1       2.539   8.944  17.721  0.00  0.00    +0.000 A 
ATOM      4  C   UNL     1       2.185   8.258  18.893  0.00  0.00    +0.000 A 
ATOM      5  C   UNL     1       1.219   9.055  19.472  0.00  0.00    +0.000 A 
ATOM      6  C   UNL     1       0.425   8.706  20.672  0.00  0.00    +0.000 C 
ATOM      7  C   UNL     1       0.921   7.452  21.396  0.00  0.00    +0.000 C 
ATOM      8  C   UNL     1       2.062   6.607  20.809  0.00  0.00    +0.000 C 
ATOM      9  C   UNL     1       2.685   6.974  19.445  0.00  0.00    +0.000 C 
ENDROOT
BRANCH   1  15
ATOM     10  C   UNL     1       0.449  15.077  19.727  0.00  0.00    +0.000 C 
ATOM     11  C   UNL     1      -0.069  13.700  19.394  0.00  0.00    +0.000 A 
ATOM     12  C   UNL     1      -1.458  13.511  19.366  0.00  0.00    +0.000 A 
ATOM     13  C   UNL     1      -1.996  12.258  19.110  0.00  0.00    +0.000 A 
ATOM     14  C   UNL     1      -1.147  11.176  18.892  0.00  0.00    +0.000 A 
ATOM     15  C   UNL     1       0.250  11.334  18.872  0.00  0.00    +0.000 A 
ATOM     16  C   UNL     1       0.810  12.614  19.121  0.00  0.00    +0.000 A 
ATOM     17  C   UNL     1       2.292  12.903  19.070  0.00  0.00    +0.000 C 
ENDBRANCH   1  15
BRANCH   9  18
ATOM     18  N   UNL     1       2.467   5.913  18.471  0.00  0.00    +0.000 N 
ATOM     19  C   UNL     1       3.530   5.375  17.778  0.00  0.00    +0.000 C 
ATOM     20  O   UNL     1       4.680   5.792  17.879  0.00  0.00    +0.000 OA
ATOM     21  H   UNL     1       1.556   5.475  18.424  0.00  0.00    +0.000 HD
BRANCH  19  22
ATOM     22  C   UNL     1       3.188   4.197  16.894  0.00  0.00    +0.000 C 
BRANCH  22  23
ATOM     23  C   UNL     1       4.034   2.985  17.278  0.00  0.00    +0.000 C 
BRANCH  23  24
ATOM     24  C   UNL     1       3.164   1.857  17.838  0.00  0.00    +0.000 C 
BRANCH  24  25
ATOM     25  N   UNL     1       2.653   2.151  19.177  0.00  0.00    +0.000 N 
ATOM     26  C   UNL     1       3.637   2.436  20.216  0.00  0.00    +0.000 C 
ATOM     27  C   UNL     1       3.048   2.442  21.615  0.00  0.00    +0.000 C 
ATOM     28  C   UNL     1       1.857   3.380  21.636  0.00  0.00    +0.000 C 
ATOM     29  C   UNL     1       0.799   2.877  20.673  0.00  0.00    +0.000 C 
ATOM     30  C   UNL     1       1.317   2.507  19.296  0.00  0.00    +0.000 C 
ATOM     31  O   UNL     1       0.531   2.448  18.343  0.00  0.00    +0.000 OA
ENDBRANCH  24  25
ENDBRANCH  23  24
ENDBRANCH  22  23
ENDBRANCH  19  22
ENDBRANCH   9  18
TORSDOF 6
ENDMDL
MODEL 9
REMARK VINA RESULT:      -6.9      0.973      1.321
REMARK  Name = 
REMARK  8 active torsions:
REMARK  status: ('A' for Active; 'I' for Inactive)
REMARK    1  A    between atoms: C_1  and  C_2
REMARK    2  A    between atoms: C_6  and  N_7
REMARK    3  A    between atoms: C_15  and  N_16
REMARK    4  A    between atoms: C_17  and  C_19
REMARK    5  A    between atoms: C_19  and  C_20
REMARK    6  A    between atoms: C_20  and  C_21
REMARK    7  A    between atoms: C_21  and  N_22
REMARK    8  A    between atoms: C_29  and  C_30
REMARK                            x       y       z     vdW  Elec       q    Type
REMARK                         _______ _______ _______ _____ _____    ______ ____
ROOT
ATOM      1  N   UNL     1       0.796   9.740  18.744  0.00  0.00    +0.000 N 
ATOM      2  N   UNL     1       1.551   9.932  17.628  0.00  0.00    +0.000 NA
ATOM      3  C   UNL     1       2.479   8.976  17.663  0.00  0.00    +0.000 A 
ATOM      4  C   UNL     1       2.324   8.110  18.757  0.00  0.00    +0.000 A 
ATOM      5  C   UNL     1       1.233   8.613  19.434  0.00  0.00    +0.000 A 
ATOM      6  C   UNL     1       0.577   7.976  20.599  0.00  0.00    +0.000 C 
ATOM      7  C   UNL     1       1.358   6.791  21.173  0.00  0.00    +0.000 C 
ATOM      8  C   UNL     1       2.630   6.280  20.480  0.00  0.00    +0.000 C 
ATOM      9  C   UNL     1       3.108   6.915  19.156  0.00  0.00    +0.000 C 
ENDROOT
BRANCH   1  15
ATOM     10  C   UNL     1      -3.739  11.910  18.152  0.00  0.00    +0.000 C 
ATOM     11  C   UNL     1      -2.406  11.747  18.837  0.00  0.00    +0.000 A 
ATOM     12  C   UNL     1      -2.088  12.634  19.875  0.00  0.00    +0.000 A 
ATOM     13  C   UNL     1      -0.859  12.564  20.514  0.00  0.00    +0.000 A 
ATOM     14  C   UNL     1       0.072  11.611  20.112  0.00  0.00    +0.000 A 
ATOM     15  C   UNL     1      -0.224  10.677  19.103  0.00  0.00    +0.000 A 
ATOM     16  C   UNL     1      -1.483  10.734  18.451  0.00  0.00    +0.000 A 
ATOM     17  C   UNL     1      -1.923   9.748  17.394  0.00  0.00    +0.000 C 
ENDBRANCH   1  15
BRANCH   9  18
ATOM     18  N   UNL     1       3.086   5.940  18.074  0.00  0.00    +0.000 N 
ATOM     19  C   UNL     1       4.261   5.539  17.474  0.00  0.00    +0.000 C 
ATOM     20  O   UNL     1       5.357   6.016  17.754  0.00  0.00    +0.000 OA
ATOM     21  H   UNL     1       2.223   5.452  17.876  0.00  0.00    +0.000 HD
BRANCH  19  22
ATOM     22  C   UNL     1       4.115   4.431  16.456  0.00  0.00    +0.000 C 
BRANCH  22  23
ATOM     23  C   UNL     1       4.152   3.070  17.147  0.00  0.00    +0.000 C 
BRANCH  23  24
ATOM     24  C   UNL     1       2.740   2.575  17.471  0.00  0.00    +0.000 C 
BRANCH  24  25
ATOM     25  N   UNL     1       2.478   2.526  18.910  0.00  0.00    +0.000 N 
ATOM     26  C   UNL     1       3.612   2.747  19.801  0.00  0.00    +0.000 C 
ATOM     27  C   UNL     1       3.317   2.395  21.248  0.00  0.00    +0.000 C 
ATOM     28  C   UNL     1       2.059   3.125  21.678  0.00  0.00    +0.000 C 
ATOM     29  C   UNL     1       0.891   2.667  20.825  0.00  0.00    +0.000 C 
ATOM     30  C   UNL     1       1.162   2.651  19.333  0.00  0.00    +0.000 C 
ATOM     31  O   UNL     1       0.212   2.662  18.540  0.00  0.00    +0.000 OA
ENDBRANCH  24  25
ENDBRANCH  23  24
ENDBRANCH  22  23
ENDBRANCH  19  22
ENDBRANCH   9  18
TORSDOF 6
ENDMDL
