MODEL 1
REMARK VINA RESULT:      -6.2      0.000      0.000
REMARK  Name = 
REMARK  8 active torsions:
REMARK  status: ('A' for Active; 'I' for Inactive)
REMARK    1  A    between atoms: O_1  and  C_2
REMARK    2  A    between atoms: C_11  and  C_12
REMARK    3  A    between atoms: C_18  and  C_19
REMARK    4  A    between atoms: C_22  and  O_23
REMARK    5  A    between atoms: O_23  and  C_24
REMARK    6  A    between atoms: N_27  and  C_28
REMARK    7  A    between atoms: C_28  and  C_29
REMARK    8  A    between atoms: C_29  and  C_30
REMARK                            x       y       z     vdW  Elec       q    Type
REMARK                         _______ _______ _______ _____ _____    ______ ____
ROOT
ATOM      1  C   UNL     1       2.358  14.786  21.989  0.00  0.00    +0.000 A 
ATOM      2  C   UNL     1       3.001  14.040  21.017  0.00  0.00    +0.000 A 
ATOM      3  C   UNL     1       2.230  13.199  20.205  0.00  0.00    +0.000 A 
ATOM      4  C   UNL     1       0.845  13.059  20.364  0.00  0.00    +0.000 A 
ATOM      5  C   UNL     1       0.202  13.828  21.359  0.00  0.00    +0.000 A 
ATOM      6  C   UNL     1       0.982  14.690  22.160  0.00  0.00    +0.000 A 
ATOM      7  C   UNL     1      -1.260  13.678  21.717  0.00  0.00    +0.000 C 
ATOM      8  C   UNL     1      -2.311  13.728  20.603  0.00  0.00    +0.000 C 
ATOM      9  C   UNL     1      -1.791  13.622  19.180  0.00  0.00    +0.000 C 
ATOM     10  C   UNL     1      -1.070  12.306  18.970  0.00  0.00    +0.000 C 
ATOM     11  C   UNL     1       0.139  12.045  19.506  0.00  0.00    +0.000 C 
ENDROOT
BRANCH  10  12
ATOM     12  C   UNL     1      -1.838  11.358  18.104  0.00  0.00    +0.000 A 
ATOM     13  C   UNL     1      -2.611  10.336  18.664  0.00  0.00    +0.000 A 
ATOM     14  C   UNL     1      -3.366   9.535  17.824  0.00  0.00    +0.000 A 
ATOM     15  N   UNL     1      -3.422   9.688  16.484  0.00  0.00    +0.000 NA
ATOM     16  C   UNL     1      -2.668  10.679  15.963  0.00  0.00    +0.000 A 
ATOM     17  C   UNL     1      -1.860  11.518  16.717  0.00  0.00    +0.000 A 
ENDBRANCH  10  12
BRANCH  11  18
ATOM     18  C   UNL     1       0.810  10.769  19.126  0.00  0.00    +0.000 A 
ATOM     19  C   UNL     1       0.769   9.706  20.030  0.00  0.00    +0.000 A 
ATOM     20  C   UNL     1       1.542   8.571  19.811  0.00  0.00    +0.000 A 
ATOM     21  C   UNL     1       2.250   8.422  18.621  0.00  0.00    +0.000 A 
ATOM     22  C   UNL     1       2.243   9.457  17.684  0.00  0.00    +0.000 A 
ATOM     23  C   UNL     1       1.531  10.638  17.939  0.00  0.00    +0.000 A 
BRANCH  21  24
ATOM     24  O   UNL     1       2.974   7.308  18.284  0.00  0.00    +0.000 OA
BRANCH  24  25
ATOM     25  C   UNL     1       2.936   6.230  19.225  0.00  0.00    +0.000 C 
ATOM     26  C   UNL     1       2.154   5.018  18.721  0.00  0.00    +0.000 C 
ATOM     27  C   UNL     1       2.835   3.881  19.449  0.00  0.00    +0.000 C 
ATOM     28  N   UNL     1       4.277   4.168  19.320  0.00  0.00    +0.000 NA
ATOM     29  C   UNL     1       4.350   5.652  19.443  0.00  0.00    +0.000 C 
BRANCH  28  30
ATOM     30  C   UNL     1       4.799   3.741  18.003  0.00  0.00    +0.000 C 
BRANCH  30  31
ATOM     31  C   UNL     1       5.593   4.852  17.299  0.00  0.00    +0.000 C 
BRANCH  31  32
ATOM     32  C   UNL     1       6.878   4.303  16.711  0.00  0.00    +0.000 C 
ATOM     33  F   UNL     1       7.863   4.365  17.643  0.00  0.00    +0.000 F 
ENDBRANCH  31  32
ENDBRANCH  30  31
ENDBRANCH  28  30
ENDBRANCH  24  25
ENDBRANCH  21  24
ENDBRANCH  11  18
BRANCH   1  34
ATOM     34  O   UNL     1       3.052  15.613  22.820  0.00  0.00    +0.000 OA
ATOM     35  H   UNL     1       3.162  16.473  22.383  0.00  0.00    +0.000 HD
ENDBRANCH   1  34
TORSDOF 8
ENDMDL
MODEL 2
REMARK VINA RESULT:      -6.1      5.940      8.636
REMARK  Name = 
REMARK  8 active torsions:
REMARK  status: ('A' for Active; 'I' for Inactive)
REMARK    1  A    between atoms: O_1  and  C_2
REMARK    2  A    between atoms: C_11  and  C_12
REMARK    3  A    between atoms: C_18  and  C_19
REMARK    4  A    between atoms: C_22  and  O_23
REMARK    5  A    between atoms: O_23  and  C_24
REMARK    6  A    between atoms: N_27  and  C_28
REMARK    7  A    between atoms: C_28  and  C_29
REMARK    8  A    between atoms: C_29  and  C_30
REMARK                            x       y       z     vdW  Elec       q    Type
REMARK                         _______ _______ _______ _____ _____    ______ ____
ROOT
ATOM      1  C   UNL     1      -3.235  10.318  15.978  0.00  0.00    +0.000 A 
ATOM      2  C   UNL     1      -2.151  10.178  16.827  0.00  0.00    +0.000 A 
ATOM      3  C   UNL     1      -2.188  10.831  18.066  0.00  0.00    +0.000 A 
ATOM      4  C   UNL     1      -3.259  11.643  18.459  0.00  0.00    +0.000 A 
ATOM      5  C   UNL     1      -4.359  11.774  17.584  0.00  0.00    +0.000 A 
ATOM      6  C   UNL     1      -4.326  11.097  16.345  0.00  0.00    +0.000 A 
ATOM      7  C   UNL     1      -5.517  12.717  17.831  0.00  0.00    +0.000 C 
ATOM      8  C   UNL     1      -6.238  12.675  19.182  0.00  0.00    +0.000 C 
ATOM      9  C   UNL     1      -5.550  11.899  20.292  0.00  0.00    +0.000 C 
ATOM     10  C   UNL     1      -4.191  12.497  20.600  0.00  0.00    +0.000 C 
ATOM     11  C   UNL     1      -3.139  12.379  19.766  0.00  0.00    +0.000 C 
ENDROOT
BRANCH  10  12
ATOM     12  C   UNL     1      -4.158  13.208  21.915  0.00  0.00    +0.000 A 
ATOM     13  C   UNL     1      -4.634  14.516  22.041  0.00  0.00    +0.000 A 
ATOM     14  C   UNL     1      -4.655  15.100  23.296  0.00  0.00    +0.000 A 
ATOM     15  N   UNL     1      -4.257  14.477  24.426  0.00  0.00    +0.000 NA
ATOM     16  C   UNL     1      -3.800  13.215  24.284  0.00  0.00    +0.000 A 
ATOM     17  C   UNL     1      -3.717  12.552  23.068  0.00  0.00    +0.000 A 
ENDBRANCH  10  12
BRANCH  11  18
ATOM     18  C   UNL     1      -1.819  12.895  20.231  0.00  0.00    +0.000 A 
ATOM     19  C   UNL     1      -1.539  14.250  20.049  0.00  0.00    +0.000 A 
ATOM     20  C   UNL     1      -0.257  14.737  20.282  0.00  0.00    +0.000 A 
ATOM     21  C   UNL     1       0.718  13.911  20.835  0.00  0.00    +0.000 A 
ATOM     22  C   UNL     1       0.423  12.569  21.078  0.00  0.00    +0.000 A 
ATOM     23  C   UNL     1      -0.844  12.054  20.767  0.00  0.00    +0.000 A 
BRANCH  21  24
ATOM     24  O   UNL     1       1.982  14.322  21.171  0.00  0.00    +0.000 OA
BRANCH  24  25
ATOM     25  C   UNL     1       2.828  14.698  20.080  0.00  0.00    +0.000 C 
ATOM     26  C   UNL     1       2.182  14.479  18.714  0.00  0.00    +0.000 C 
ATOM     27  C   UNL     1       2.854  15.542  17.874  0.00  0.00    +0.000 C 
ATOM     28  N   UNL     1       2.836  16.751  18.722  0.00  0.00    +0.000 NA
ATOM     29  C   UNL     1       3.083  16.220  20.092  0.00  0.00    +0.000 C 
BRANCH  28  30
ATOM     30  C   UNL     1       1.522  17.430  18.669  0.00  0.00    +0.000 C 
BRANCH  30  31
ATOM     31  C   UNL     1       1.247  18.070  17.299  0.00  0.00    +0.000 C 
BRANCH  31  32
ATOM     32  C   UNL     1      -0.240  18.093  17.007  0.00  0.00    +0.000 C 
ATOM     33  F   UNL     1      -0.846  17.075  17.670  0.00  0.00    +0.000 F 
ENDBRANCH  31  32
ENDBRANCH  30  31
ENDBRANCH  28  30
ENDBRANCH  24  25
ENDBRANCH  21  24
ENDBRANCH  11  18
BRANCH   1  34
ATOM     34  O   UNL     1      -3.256   9.721  14.754  0.00  0.00    +0.000 OA
ATOM     35  H   UNL     1      -2.370   9.784  14.361  0.00  0.00    +0.000 HD
ENDBRANCH   1  34
TORSDOF 8
ENDMDL
MODEL 3
REMARK VINA RESULT:      -6.1      2.867      4.630
REMARK  Name = 
REMARK  8 active torsions:
REMARK  status: ('A' for Active; 'I' for Inactive)
REMARK    1  A    between atoms: O_1  and  C_2
REMARK    2  A    between atoms: C_11  and  C_12
REMARK    3  A    between atoms: C_18  and  C_19
REMARK    4  A    between atoms: C_22  and  O_23
REMARK    5  A    between atoms: O_23  and  C_24
REMARK    6  A    between atoms: N_27  and  C_28
REMARK    7  A    between atoms: C_28  and  C_29
REMARK    8  A    between atoms: C_29  and  C_30
REMARK                            x       y       z     vdW  Elec       q    Type
REMARK                         _______ _______ _______ _____ _____    ______ ____
ROOT
ATOM      1  C   UNL     1      -4.342  13.070  23.895  0.00  0.00    +0.000 A 
ATOM      2  C   UNL     1      -3.462  12.002  23.875  0.00  0.00    +0.000 A 
ATOM      3  C   UNL     1      -2.298  12.113  23.104  0.00  0.00    +0.000 A 
ATOM      4  C   UNL     1      -2.011  13.245  22.331  0.00  0.00    +0.000 A 
ATOM      5  C   UNL     1      -2.917  14.328  22.363  0.00  0.00    +0.000 A 
ATOM      6  C   UNL     1      -4.079  14.218  23.159  0.00  0.00    +0.000 A 
ATOM      7  C   UNL     1      -2.790  15.552  21.482  0.00  0.00    +0.000 C 
ATOM      8  C   UNL     1      -1.457  16.304  21.435  0.00  0.00    +0.000 C 
ATOM      9  C   UNL     1      -0.260  15.596  22.046  0.00  0.00    +0.000 C 
ATOM     10  C   UNL     1       0.012  14.288  21.330  0.00  0.00    +0.000 C 
ATOM     11  C   UNL     1      -0.785  13.208  21.460  0.00  0.00    +0.000 C 
ENDROOT
BRANCH  10  12
ATOM     12  C   UNL     1       1.248  14.335  20.489  0.00  0.00    +0.000 A 
ATOM     13  C   UNL     1       1.181  14.635  19.125  0.00  0.00    +0.000 A 
ATOM     14  C   UNL     1       2.362  14.745  18.409  0.00  0.00    +0.000 A 
ATOM     15  N   UNL     1       3.590  14.599  18.950  0.00  0.00    +0.000 NA
ATOM     16  C   UNL     1       3.633  14.309  20.267  0.00  0.00    +0.000 A 
ATOM     17  C   UNL     1       2.508  14.155  21.065  0.00  0.00    +0.000 A 
ENDBRANCH  10  12
BRANCH  11  18
ATOM     18  C   UNL     1      -0.349  11.938  20.811  0.00  0.00    +0.000 A 
ATOM     19  C   UNL     1       0.506  11.093  21.521  0.00  0.00    +0.000 A 
ATOM     20  C   UNL     1       1.096  10.004  20.889  0.00  0.00    +0.000 A 
ATOM     21  C   UNL     1       0.729   9.662  19.590  0.00  0.00    +0.000 A 
ATOM     22  C   UNL     1      -0.175  10.468  18.898  0.00  0.00    +0.000 A 
ATOM     23  C   UNL     1      -0.709  11.615  19.503  0.00  0.00    +0.000 A 
BRANCH  21  24
ATOM     24  O   UNL     1       1.196   8.563  18.917  0.00  0.00    +0.000 OA
BRANCH  24  25
ATOM     25  C   UNL     1       2.072   7.704  19.653  0.00  0.00    +0.000 C 
ATOM     26  C   UNL     1       1.333   6.661  20.487  0.00  0.00    +0.000 C 
ATOM     27  C   UNL     1       2.334   5.529  20.534  0.00  0.00    +0.000 C 
ATOM     28  N   UNL     1       2.836   5.419  19.151  0.00  0.00    +0.000 NA
ATOM     29  C   UNL     1       2.913   6.835  18.693  0.00  0.00    +0.000 C 
BRANCH  28  30
ATOM     30  C   UNL     1       1.900   4.658  18.293  0.00  0.00    +0.000 C 
BRANCH  30  31
ATOM     31  C   UNL     1       2.615   3.599  17.440  0.00  0.00    +0.000 C 
BRANCH  31  32
ATOM     32  C   UNL     1       4.084   3.520  17.803  0.00  0.00    +0.000 C 
ATOM     33  F   UNL     1       4.815   3.295  16.680  0.00  0.00    +0.000 F 
ENDBRANCH  31  32
ENDBRANCH  30  31
ENDBRANCH  28  30
ENDBRANCH  24  25
ENDBRANCH  21  24
ENDBRANCH  11  18
BRANCH   1  34
ATOM     34  O   UNL     1      -5.499  13.019  24.613  0.00  0.00    +0.000 OA
ATOM     35  H   UNL     1      -5.360  12.451  25.389  0.00  0.00    +0.000 HD
ENDBRANCH   1  34
TORSDOF 8
ENDMDL
MODEL 4
REMARK VINA RESULT:      -5.9      1.436      1.728
REMARK  Name = 
REMARK  8 active torsions:
REMARK  status: ('A' for Active; 'I' for Inactive)
REMARK    1  A    between atoms: O_1  and  C_2
REMARK    2  A    between atoms: C_11  and  C_12
REMARK    3  A    between atoms: C_18  and  C_19
REMARK    4  A    between atoms: C_22  and  O_23
REMARK    5  A    between atoms: O_23  and  C_24
REMARK    6  A    between atoms: N_27  and  C_28
REMARK    7  A    between atoms: C_28  and  C_29
REMARK    8  A    between atoms: C_29  and  C_30
REMARK                            x       y       z     vdW  Elec       q    Type
REMARK                         _______ _______ _______ _____ _____    ______ ____
ROOT
ATOM      1  C   UNL     1       2.788  14.966  21.947  0.00  0.00    +0.000 A 
ATOM      2  C   UNL     1       3.406  14.054  21.109  0.00  0.00    +0.000 A 
ATOM      3  C   UNL     1       2.601  13.186  20.360  0.00  0.00    +0.000 A 
ATOM      4  C   UNL     1       1.203  13.185  20.453  0.00  0.00    +0.000 A 
ATOM      5  C   UNL     1       0.586  14.124  21.310  0.00  0.00    +0.000 A 
ATOM      6  C   UNL     1       1.403  15.010  22.047  0.00  0.00    +0.000 A 
ATOM      7  C   UNL     1      -0.899  14.145  21.597  0.00  0.00    +0.000 C 
ATOM      8  C   UNL     1      -1.886  14.145  20.425  0.00  0.00    +0.000 C 
ATOM      9  C   UNL     1      -1.311  13.819  19.057  0.00  0.00    +0.000 C 
ATOM     10  C   UNL     1      -0.704  12.430  19.048  0.00  0.00    +0.000 C 
ATOM     11  C   UNL     1       0.449  12.137  19.682  0.00  0.00    +0.000 C 
ENDROOT
BRANCH  10  12
ATOM     12  C   UNL     1      -1.513  11.451  18.259  0.00  0.00    +0.000 A 
ATOM     13  C   UNL     1      -2.206  10.414  18.891  0.00  0.00    +0.000 A 
ATOM     14  C   UNL     1      -3.005   9.583  18.124  0.00  0.00    +0.000 A 
ATOM     15  N   UNL     1      -3.176   9.719  16.792  0.00  0.00    +0.000 NA
ATOM     16  C   UNL     1      -2.497  10.724  16.200  0.00  0.00    +0.000 A 
ATOM     17  C   UNL     1      -1.655  11.595  16.877  0.00  0.00    +0.000 A 
ENDBRANCH  10  12
BRANCH  11  18
ATOM     18  C   UNL     1       1.018  10.771  19.497  0.00  0.00    +0.000 A 
ATOM     19  C   UNL     1       1.592  10.455  18.265  0.00  0.00    +0.000 A 
ATOM     20  C   UNL     1       1.954   9.144  17.976  0.00  0.00    +0.000 A 
ATOM     21  C   UNL     1       1.882   8.163  18.961  0.00  0.00    +0.000 A 
ATOM     22  C   UNL     1       1.367   8.488  20.217  0.00  0.00    +0.000 A 
ATOM     23  C   UNL     1       0.924   9.791  20.485  0.00  0.00    +0.000 A 
BRANCH  21  24
ATOM     24  O   UNL     1       2.289   6.864  18.794  0.00  0.00    +0.000 OA
BRANCH  24  25
ATOM     25  C   UNL     1       2.566   6.136  19.994  0.00  0.00    +0.000 C 
ATOM     26  C   UNL     1       1.413   5.236  20.432  0.00  0.00    +0.000 C 
ATOM     27  C   UNL     1       2.138   4.130  21.163  0.00  0.00    +0.000 C 
ATOM     28  N   UNL     1       3.288   3.803  20.296  0.00  0.00    +0.000 NA
ATOM     29  C   UNL     1       3.712   5.129  19.764  0.00  0.00    +0.000 C 
BRANCH  28  30
ATOM     30  C   UNL     1       2.891   2.913  19.182  0.00  0.00    +0.000 C 
BRANCH  30  31
ATOM     31  C   UNL     1       3.861   2.992  17.993  0.00  0.00    +0.000 C 
BRANCH  31  32
ATOM     32  C   UNL     1       3.267   3.818  16.870  0.00  0.00    +0.000 C 
ATOM     33  F   UNL     1       1.922   3.903  17.035  0.00  0.00    +0.000 F 
ENDBRANCH  31  32
ENDBRANCH  30  31
ENDBRANCH  28  30
ENDBRANCH  24  25
ENDBRANCH  21  24
ENDBRANCH  11  18
BRANCH   1  34
ATOM     34  O   UNL     1       3.514  15.828  22.712  0.00  0.00    +0.000 OA
ATOM     35  H   UNL     1       4.453  15.583  22.652  0.00  0.00    +0.000 HD
ENDBRANCH   1  34
TORSDOF 8
ENDMDL
MODEL 5
REMARK VINA RESULT:      -5.9      1.756      2.023
REMARK  Name = 
REMARK  8 active torsions:
REMARK  status: ('A' for Active; 'I' for Inactive)
REMARK    1  A    between atoms: O_1  and  C_2
REMARK    2  A    between atoms: C_11  and  C_12
REMARK    3  A    between atoms: C_18  and  C_19
REMARK    4  A    between atoms: C_22  and  O_23
REMARK    5  A    between atoms: O_23  and  C_24
REMARK    6  A    between atoms: N_27  and  C_28
REMARK    7  A    between atoms: C_28  and  C_29
REMARK    8  A    between atoms: C_29  and  C_30
REMARK                            x       y       z     vdW  Elec       q    Type
REMARK                         _______ _______ _______ _____ _____    ______ ____
ROOT
ATOM      1  C   UNL     1       3.683  15.181  21.599  0.00  0.00    +0.000 A 
ATOM      2  C   UNL     1       3.951  14.279  20.583  0.00  0.00    +0.000 A 
ATOM      3  C   UNL     1       2.881  13.570  20.024  0.00  0.00    +0.000 A 
ATOM      4  C   UNL     1       1.562  13.713  20.475  0.00  0.00    +0.000 A 
ATOM      5  C   UNL     1       1.304  14.639  21.510  0.00  0.00    +0.000 A 
ATOM      6  C   UNL     1       2.384  15.366  22.056  0.00  0.00    +0.000 A 
ATOM      7  C   UNL     1      -0.048  14.797  22.172  0.00  0.00    +0.000 C 
ATOM      8  C   UNL     1      -1.288  15.002  21.297  0.00  0.00    +0.000 C 
ATOM      9  C   UNL     1      -1.120  14.730  19.812  0.00  0.00    +0.000 C 
ATOM     10  C   UNL     1      -0.715  13.289  19.574  0.00  0.00    +0.000 C 
ATOM     11  C   UNL     1       0.513  12.820  19.872  0.00  0.00    +0.000 C 
ENDROOT
BRANCH  10  12
ATOM     12  C   UNL     1      -1.814  12.472  18.971  0.00  0.00    +0.000 A 
ATOM     13  C   UNL     1      -3.012  12.256  19.658  0.00  0.00    +0.000 A 
ATOM     14  C   UNL     1      -4.027  11.560  19.024  0.00  0.00    +0.000 A 
ATOM     15  N   UNL     1      -3.944  11.087  17.762  0.00  0.00    +0.000 NA
ATOM     16  C   UNL     1      -2.780  11.304  17.116  0.00  0.00    +0.000 A 
ATOM     17  C   UNL     1      -1.696  11.968  17.673  0.00  0.00    +0.000 A 
ENDBRANCH  10  12
BRANCH  11  18
ATOM     18  C   UNL     1       0.840  11.420  19.475  0.00  0.00    +0.000 A 
ATOM     19  C   UNL     1       0.560  10.395  20.379  0.00  0.00    +0.000 A 
ATOM     20  C   UNL     1       1.025   9.106  20.142  0.00  0.00    +0.000 A 
ATOM     21  C   UNL     1       1.646   8.795  18.935  0.00  0.00    +0.000 A 
ATOM     22  C   UNL     1       1.871   9.805  17.998  0.00  0.00    +0.000 A 
ATOM     23  C   UNL     1       1.478  11.123  18.271  0.00  0.00    +0.000 A 
BRANCH  21  24
ATOM     24  O   UNL     1       2.065   7.538  18.579  0.00  0.00    +0.000 OA
BRANCH  24  25
ATOM     25  C   UNL     1       2.623   6.745  19.631  0.00  0.00    +0.000 C 
ATOM     26  C   UNL     1       1.833   5.467  19.906  0.00  0.00    +0.000 C 
ATOM     27  C   UNL     1       2.907   4.540  20.428  0.00  0.00    +0.000 C 
ATOM     28  N   UNL     1       4.049   4.742  19.514  0.00  0.00    +0.000 NA
ATOM     29  C   UNL     1       4.010   6.204  19.224  0.00  0.00    +0.000 C 
BRANCH  28  30
ATOM     30  C   UNL     1       3.883   3.972  18.261  0.00  0.00    +0.000 C 
BRANCH  30  31
ATOM     31  C   UNL     1       3.565   2.491  18.522  0.00  0.00    +0.000 C 
BRANCH  31  32
ATOM     32  C   UNL     1       2.320   2.069  17.768  0.00  0.00    +0.000 C 
ATOM     33  F   UNL     1       1.226   2.293  18.541  0.00  0.00    +0.000 F 
ENDBRANCH  31  32
ENDBRANCH  30  31
ENDBRANCH  28  30
ENDBRANCH  24  25
ENDBRANCH  21  24
ENDBRANCH  11  18
BRANCH   1  34
ATOM     34  O   UNL     1       4.681  15.892  22.194  0.00  0.00    +0.000 OA
ATOM     35  H   UNL     1       5.499  15.768  21.685  0.00  0.00    +0.000 HD
ENDBRANCH   1  34
TORSDOF 8
ENDMDL
MODEL 6
REMARK VINA RESULT:      -5.9      5.399      7.907
REMARK  Name = 
REMARK  8 active torsions:
REMARK  status: ('A' for Active; 'I' for Inactive)
REMARK    1  A    between atoms: O_1  and  C_2
REMARK    2  A    between atoms: C_11  and  C_12
REMARK    3  A    between atoms: C_18  and  C_19
REMARK    4  A    between atoms: C_22  and  O_23
REMARK    5  A    between atoms: O_23  and  C_24
REMARK    6  A    between atoms: N_27  and  C_28
REMARK    7  A    between atoms: C_28  and  C_29
REMARK    8  A    between atoms: C_29  and  C_30
REMARK                            x       y       z     vdW  Elec       q    Type
REMARK                         _______ _______ _______ _____ _____    ______ ____
ROOT
ATOM      1  C   UNL     1      -3.034  10.064  16.005  0.00  0.00    +0.000 A 
ATOM      2  C   UNL     1      -2.085   9.938  17.004  0.00  0.00    +0.000 A 
ATOM      3  C   UNL     1      -2.265  10.664  18.188  0.00  0.00    +0.000 A 
ATOM      4  C   UNL     1      -3.346  11.533  18.383  0.00  0.00    +0.000 A 
ATOM      5  C   UNL     1      -4.308  11.649  17.356  0.00  0.00    +0.000 A 
ATOM      6  C   UNL     1      -4.132  10.899  16.172  0.00  0.00    +0.000 A 
ATOM      7  C   UNL     1      -5.449  12.642  17.386  0.00  0.00    +0.000 C 
ATOM      8  C   UNL     1      -6.352  12.705  18.623  0.00  0.00    +0.000 C 
ATOM      9  C   UNL     1      -5.856  11.974  19.859  0.00  0.00    +0.000 C 
ATOM     10  C   UNL     1      -4.530  12.543  20.321  0.00  0.00    +0.000 C 
ATOM     11  C   UNL     1      -3.377  12.341  19.652  0.00  0.00    +0.000 C 
ENDROOT
BRANCH  10  12
ATOM     12  C   UNL     1      -4.649  13.329  21.589  0.00  0.00    +0.000 A 
ATOM     13  C   UNL     1      -4.863  14.710  21.563  0.00  0.00    +0.000 A 
ATOM     14  C   UNL     1      -5.046  15.378  22.762  0.00  0.00    +0.000 A 
ATOM     15  N   UNL     1      -5.051  14.775  23.970  0.00  0.00    +0.000 NA
ATOM     16  C   UNL     1      -4.841  13.442  23.973  0.00  0.00    +0.000 A 
ATOM     17  C   UNL     1      -4.624  12.687  22.830  0.00  0.00    +0.000 A 
ENDBRANCH  10  12
BRANCH  11  18
ATOM     18  C   UNL     1      -2.115  12.839  20.269  0.00  0.00    +0.000 A 
ATOM     19  C   UNL     1      -1.516  12.066  21.264  0.00  0.00    +0.000 A 
ATOM     20  C   UNL     1      -0.457  12.577  22.006  0.00  0.00    +0.000 A 
ATOM     21  C   UNL     1       0.109  13.804  21.668  0.00  0.00    +0.000 A 
ATOM     22  C   UNL     1      -0.447  14.554  20.630  0.00  0.00    +0.000 A 
ATOM     23  C   UNL     1      -1.568  14.078  19.935  0.00  0.00    +0.000 A 
BRANCH  21  24
ATOM     24  O   UNL     1       1.203  14.351  22.288  0.00  0.00    +0.000 OA
BRANCH  24  25
ATOM     25  C   UNL     1       2.171  14.958  21.428  0.00  0.00    +0.000 C 
ATOM     26  C   UNL     1       3.005  16.031  22.124  0.00  0.00    +0.000 C 
ATOM     27  C   UNL     1       4.304  15.970  21.352  0.00  0.00    +0.000 C 
ATOM     28  N   UNL     1       4.585  14.527  21.212  0.00  0.00    +0.000 NA
ATOM     29  C   UNL     1       3.237  13.928  20.999  0.00  0.00    +0.000 C 
BRANCH  28  30
ATOM     30  C   UNL     1       5.198  13.974  22.440  0.00  0.00    +0.000 C 
BRANCH  30  31
ATOM     31  C   UNL     1       6.708  14.249  22.517  0.00  0.00    +0.000 C 
BRANCH  31  32
ATOM     32  C   UNL     1       7.487  12.952  22.597  0.00  0.00    +0.000 C 
ATOM     33  F   UNL     1       8.752  13.210  23.017  0.00  0.00    +0.000 F 
ENDBRANCH  31  32
ENDBRANCH  30  31
ENDBRANCH  28  30
ENDBRANCH  24  25
ENDBRANCH  21  24
ENDBRANCH  11  18
BRANCH   1  34
ATOM     34  O   UNL     1      -2.910   9.396  14.824  0.00  0.00    +0.000 OA
ATOM     35  H   UNL     1      -2.273   9.869  14.263  0.00  0.00    +0.000 HD
ENDBRANCH   1  34
TORSDOF 8
ENDMDL
MODEL 7
REMARK VINA RESULT:      -5.8      5.854      8.573
REMARK  Name = 
REMARK  8 active torsions:
REMARK  status: ('A' for Active; 'I' for Inactive)
REMARK    1  A    between atoms: O_1  and  C_2
REMARK    2  A    between atoms: C_11  and  C_12
REMARK    3  A    between atoms: C_18  and  C_19
REMARK    4  A    between atoms: C_22  and  O_23
REMARK    5  A    between atoms: O_23  and  C_24
REMARK    6  A    between atoms: N_27  and  C_28
REMARK    7  A    between atoms: C_28  and  C_29
REMARK    8  A    between atoms: C_29  and  C_30
REMARK                            x       y       z     vdW  Elec       q    Type
REMARK                         _______ _______ _______ _____ _____    ______ ____
ROOT
ATOM      1  C   UNL     1      -2.935  10.123  15.999  0.00  0.00    +0.000 A 
ATOM      2  C   UNL     1      -1.959  10.059  16.979  0.00  0.00    +0.000 A 
ATOM      3  C   UNL     1      -2.176  10.745  18.180  0.00  0.00    +0.000 A 
ATOM      4  C   UNL     1      -3.321  11.519  18.411  0.00  0.00    +0.000 A 
ATOM      5  C   UNL     1      -4.309  11.572  17.404  0.00  0.00    +0.000 A 
ATOM      6  C   UNL     1      -4.095  10.860  16.203  0.00  0.00    +0.000 A 
ATOM      7  C   UNL     1      -5.528  12.466  17.475  0.00  0.00    +0.000 C 
ATOM      8  C   UNL     1      -6.408  12.431  18.728  0.00  0.00    +0.000 C 
ATOM      9  C   UNL     1      -5.829  11.722  19.941  0.00  0.00    +0.000 C 
ATOM     10  C   UNL     1      -4.546  12.392  20.390  0.00  0.00    +0.000 C 
ATOM     11  C   UNL     1      -3.394  12.298  19.696  0.00  0.00    +0.000 C 
ENDROOT
BRANCH  10  12
ATOM     12  C   UNL     1      -4.704  13.143  21.674  0.00  0.00    +0.000 A 
ATOM     13  C   UNL     1      -4.203  12.631  22.875  0.00  0.00    +0.000 A 
ATOM     14  C   UNL     1      -4.305  13.401  24.021  0.00  0.00    +0.000 A 
ATOM     15  N   UNL     1      -4.847  14.637  24.055  0.00  0.00    +0.000 NA
ATOM     16  C   UNL     1      -5.327  15.112  22.887  0.00  0.00    +0.000 A 
ATOM     17  C   UNL     1      -5.293  14.410  21.691  0.00  0.00    +0.000 A 
ENDBRANCH  10  12
BRANCH  11  18
ATOM     18  C   UNL     1      -2.165  12.889  20.300  0.00  0.00    +0.000 A 
ATOM     19  C   UNL     1      -1.241  12.028  20.894  0.00  0.00    +0.000 A 
ATOM     20  C   UNL     1      -0.187  12.541  21.641  0.00  0.00    +0.000 A 
ATOM     21  C   UNL     1       0.042  13.914  21.682  0.00  0.00    +0.000 A 
ATOM     22  C   UNL     1      -0.844  14.777  21.035  0.00  0.00    +0.000 A 
ATOM     23  C   UNL     1      -1.957  14.267  20.351  0.00  0.00    +0.000 A 
BRANCH  21  24
ATOM     24  O   UNL     1       1.099  14.505  22.325  0.00  0.00    +0.000 OA
BRANCH  24  25
ATOM     25  C   UNL     1       2.212  14.861  21.500  0.00  0.00    +0.000 C 
ATOM     26  C   UNL     1       2.268  14.074  20.191  0.00  0.00    +0.000 C 
ATOM     27  C   UNL     1       2.965  15.048  19.269  0.00  0.00    +0.000 C 
ATOM     28  N   UNL     1       2.317  16.346  19.540  0.00  0.00    +0.000 NA
ATOM     29  C   UNL     1       2.082  16.319  21.011  0.00  0.00    +0.000 C 
BRANCH  28  30
ATOM     30  C   UNL     1       1.028  16.468  18.822  0.00  0.00    +0.000 C 
BRANCH  30  31
ATOM     31  C   UNL     1       0.868  17.832  18.132  0.00  0.00    +0.000 C 
BRANCH  31  32
ATOM     32  C   UNL     1       1.666  17.879  16.845  0.00  0.00    +0.000 C 
ATOM     33  F   UNL     1       0.927  18.478  15.877  0.00  0.00    +0.000 F 
ENDBRANCH  31  32
ENDBRANCH  30  31
ENDBRANCH  28  30
ENDBRANCH  24  25
ENDBRANCH  21  24
ENDBRANCH  11  18
BRANCH   1  34
ATOM     34  O   UNL     1      -2.779   9.488  14.804  0.00  0.00    +0.000 OA
ATOM     35  H   UNL     1      -2.744  10.156  14.099  0.00  0.00    +0.000 HD
ENDBRANCH   1  34
TORSDOF 8
ENDMDL
MODEL 8
REMARK VINA RESULT:      -5.8      1.571      2.027
REMARK  Name = 
REMARK  8 active torsions:
REMARK  status: ('A' for Active; 'I' for Inactive)
REMARK    1  A    between atoms: O_1  and  C_2
REMARK    2  A    between atoms: C_11  and  C_12
REMARK    3  A    between atoms: C_18  and  C_19
REMARK    4  A    between atoms: C_22  and  O_23
REMARK    5  A    between atoms: O_23  and  C_24
REMARK    6  A    between atoms: N_27  and  C_28
REMARK    7  A    between atoms: C_28  and  C_29
REMARK    8  A    between atoms: C_29  and  C_30
REMARK                            x       y       z     vdW  Elec       q    Type
REMARK                         _______ _______ _______ _____ _____    ______ ____
ROOT
ATOM      1  C   UNL     1       3.492  15.226  21.845  0.00  0.00    +0.000 A 
ATOM      2  C   UNL     1       3.841  14.131  21.073  0.00  0.00    +0.000 A 
ATOM      3  C   UNL     1       2.817  13.389  20.469  0.00  0.00    +0.000 A 
ATOM      4  C   UNL     1       1.461  13.692  20.646  0.00  0.00    +0.000 A 
ATOM      5  C   UNL     1       1.121  14.813  21.434  0.00  0.00    +0.000 A 
ATOM      6  C   UNL     1       2.158  15.570  22.023  0.00  0.00    +0.000 A 
ATOM      7  C   UNL     1      -0.301  15.173  21.806  0.00  0.00    +0.000 C 
ATOM      8  C   UNL     1      -1.359  15.275  20.703  0.00  0.00    +0.000 C 
ATOM      9  C   UNL     1      -0.975  14.713  19.345  0.00  0.00    +0.000 C 
ATOM     10  C   UNL     1      -0.667  13.233  19.446  0.00  0.00    +0.000 C 
ATOM     11  C   UNL     1       0.449  12.760  20.036  0.00  0.00    +0.000 C 
ENDROOT
BRANCH  10  12
ATOM     12  C   UNL     1      -1.720  12.378  18.815  0.00  0.00    +0.000 A 
ATOM     13  C   UNL     1      -2.952  12.170  19.443  0.00  0.00    +0.000 A 
ATOM     14  C   UNL     1      -3.922  11.438  18.780  0.00  0.00    +0.000 A 
ATOM     15  N   UNL     1      -3.764  10.919  17.544  0.00  0.00    +0.000 NA
ATOM     16  C   UNL     1      -2.568  11.130  16.955  0.00  0.00    +0.000 A 
ATOM     17  C   UNL     1      -1.525  11.829  17.545  0.00  0.00    +0.000 A 
ENDBRANCH  10  12
BRANCH  11  18
ATOM     18  C   UNL     1       0.710  11.294  19.963  0.00  0.00    +0.000 A 
ATOM     19  C   UNL     1       0.415  10.513  21.081  0.00  0.00    +0.000 A 
ATOM     20  C   UNL     1       0.822   9.185  21.135  0.00  0.00    +0.000 A 
ATOM     21  C   UNL     1       1.398   8.582  20.020  0.00  0.00    +0.000 A 
ATOM     22  C   UNL     1       1.637   9.343  18.875  0.00  0.00    +0.000 A 
ATOM     23  C   UNL     1       1.304  10.704  18.847  0.00  0.00    +0.000 A 
BRANCH  21  24
ATOM     24  O   UNL     1       1.758   7.260  19.953  0.00  0.00    +0.000 OA
BRANCH  24  25
ATOM     25  C   UNL     1       2.590   6.895  18.848  0.00  0.00    +0.000 C 
ATOM     26  C   UNL     1       3.877   6.190  19.272  0.00  0.00    +0.000 C 
ATOM     27  C   UNL     1       4.166   5.315  18.073  0.00  0.00    +0.000 C 
ATOM     28  N   UNL     1       2.860   4.723  17.723  0.00  0.00    +0.000 NA
ATOM     29  C   UNL     1       1.895   5.830  17.974  0.00  0.00    +0.000 C 
BRANCH  28  30
ATOM     30  C   UNL     1       2.541   3.565  18.588  0.00  0.00    +0.000 C 
BRANCH  30  31
ATOM     31  C   UNL     1       2.652   2.227  17.842  0.00  0.00    +0.000 C 
BRANCH  31  32
ATOM     32  C   UNL     1       3.686   1.332  18.497  0.00  0.00    +0.000 C 
ATOM     33  F   UNL     1       4.334   2.026  19.468  0.00  0.00    +0.000 F 
ENDBRANCH  31  32
ENDBRANCH  30  31
ENDBRANCH  28  30
ENDBRANCH  24  25
ENDBRANCH  21  24
ENDBRANCH  11  18
BRANCH   1  34
ATOM     34  O   UNL     1       4.438  15.980  22.470  0.00  0.00    +0.000 OA
ATOM     35  H   UNL     1       3.997  16.699  22.951  0.00  0.00    +0.000 HD
ENDBRANCH   1  34
TORSDOF 8
ENDMDL
MODEL 9
REMARK VINA RESULT:      -5.7      2.561      3.546
REMARK  Name = 
REMARK  8 active torsions:
REMARK  status: ('A' for Active; 'I' for Inactive)
REMARK    1  A    between atoms: O_1  and  C_2
REMARK    2  A    between atoms: C_11  and  C_12
REMARK    3  A    between atoms: C_18  and  C_19
REMARK    4  A    between atoms: C_22  and  O_23
REMARK    5  A    between atoms: O_23  and  C_24
REMARK    6  A    between atoms: N_27  and  C_28
REMARK    7  A    between atoms: C_28  and  C_29
REMARK    8  A    between atoms: C_29  and  C_30
REMARK                            x       y       z     vdW  Elec       q    Type
REMARK                         _______ _______ _______ _____ _____    ______ ____
ROOT
ATOM      1  C   UNL     1       3.793  16.144  18.821  0.00  0.00    +0.000 A 
ATOM      2  C   UNL     1       3.286  15.080  18.094  0.00  0.00    +0.000 A 
ATOM      3  C   UNL     1       2.170  14.401  18.599  0.00  0.00    +0.000 A 
ATOM      4  C   UNL     1       1.574  14.734  19.822  0.00  0.00    +0.000 A 
ATOM      5  C   UNL     1       2.100  15.824  20.551  0.00  0.00    +0.000 A 
ATOM      6  C   UNL     1       3.213  16.518  20.026  0.00  0.00    +0.000 A 
ATOM      7  C   UNL     1       1.632  16.206  21.938  0.00  0.00    +0.000 C 
ATOM      8  C   UNL     1       0.134  16.397  22.194  0.00  0.00    +0.000 C 
ATOM      9  C   UNL     1      -0.806  15.894  21.111  0.00  0.00    +0.000 C 
ATOM     10  C   UNL     1      -0.637  14.401  20.907  0.00  0.00    +0.000 C 
ATOM     11  C   UNL     1       0.448  13.866  20.313  0.00  0.00    +0.000 C 
ENDROOT
BRANCH  10  12
ATOM     12  C   UNL     1      -1.800  13.613  21.421  0.00  0.00    +0.000 A 
ATOM     13  C   UNL     1      -1.793  13.076  22.712  0.00  0.00    +0.000 A 
ATOM     14  C   UNL     1      -2.926  12.423  23.168  0.00  0.00    +0.000 A 
ATOM     15  N   UNL     1      -4.058  12.283  22.447  0.00  0.00    +0.000 NA
ATOM     16  C   UNL     1      -4.045  12.806  21.203  0.00  0.00    +0.000 A 
ATOM     17  C   UNL     1      -2.953  13.457  20.647  0.00  0.00    +0.000 A 
ENDBRANCH  10  12
BRANCH  11  18
ATOM     18  C   UNL     1       0.447  12.399  20.050  0.00  0.00    +0.000 A 
ATOM     19  C   UNL     1       1.057  11.559  20.983  0.00  0.00    +0.000 A 
ATOM     20  C   UNL     1       1.257  10.215  20.690  0.00  0.00    +0.000 A 
ATOM     21  C   UNL     1       0.723   9.663  19.529  0.00  0.00    +0.000 A 
ATOM     22  C   UNL     1       0.055  10.486  18.621  0.00  0.00    +0.000 A 
ATOM     23  C   UNL     1      -0.076  11.859  18.874  0.00  0.00    +0.000 A 
BRANCH  21  24
ATOM     24  O   UNL     1       0.801   8.335  19.195  0.00  0.00    +0.000 OA
BRANCH  24  25
ATOM     25  C   UNL     1       2.042   7.688  19.490  0.00  0.00    +0.000 C 
ATOM     26  C   UNL     1       1.894   6.511  20.452  0.00  0.00    +0.000 C 
ATOM     27  C   UNL     1       3.046   5.623  20.042  0.00  0.00    +0.000 C 
ATOM     28  N   UNL     1       3.005   5.620  18.566  0.00  0.00    +0.000 NA
ATOM     29  C   UNL     1       2.619   7.018  18.225  0.00  0.00    +0.000 C 
BRANCH  28  30
ATOM     30  C   UNL     1       1.990   4.673  18.053  0.00  0.00    +0.000 C 
BRANCH  30  31
ATOM     31  C   UNL     1       2.611   3.545  17.215  0.00  0.00    +0.000 C 
BRANCH  31  32
ATOM     32  C   UNL     1       3.538   2.696  18.061  0.00  0.00    +0.000 C 
ATOM     33  F   UNL     1       3.133   1.401  18.014  0.00  0.00    +0.000 F 
ENDBRANCH  31  32
ENDBRANCH  30  31
ENDBRANCH  28  30
ENDBRANCH  24  25
ENDBRANCH  21  24
ENDBRANCH  11  18
BRANCH   1  34
ATOM     34  O   UNL     1       4.885  16.837  18.391  0.00  0.00    +0.000 OA
ATOM     35  H   UNL     1       4.594  17.698  18.051  0.00  0.00    +0.000 HD
ENDBRANCH   1  34
TORSDOF 8
ENDMDL
