MODEL 1
REMARK VINA RESULT:      -7.7      0.000      0.000
REMARK  Name = 
REMARK  5 active torsions:
REMARK  status: ('A' for Active; 'I' for Inactive)
REMARK    1  A    between atoms: C_1  and  O_2
REMARK    2  A    between atoms: O_2  and  C_3
REMARK    3  A    between atoms: C_7  and  C_8
REMARK    4  A    between atoms: C_10  and  C_11
REMARK    5  A    between atoms: C_30  and  O_31
REMARK                            x       y       z     vdW  Elec       q    Type
REMARK                         _______ _______ _______ _____ _____    ______ ____
ROOT
ATOM      1  C   UNL     1       0.704  12.952  20.426  0.00  0.00    +0.000 C 
ATOM      2  C   UNL     1       1.236  12.322  19.138  0.00  0.00    +0.000 C 
ATOM      3  C   UNL     1       0.030  11.619  18.520  0.00  0.00    +0.000 C 
ATOM      4  C   UNL     1      -1.158  12.285  17.879  0.00  0.00    +0.000 C 
ATOM      5  N   UNL     1      -0.161  10.372  18.763  0.00  0.00    +0.000 NA
ATOM      6  C   UNL     1       0.609   9.892  19.816  0.00  0.00    +0.000 A 
ATOM      7  C   UNL     1       0.374  10.441  21.094  0.00  0.00    +0.000 A 
ATOM      8  C   UNL     1       0.338   9.447  22.079  0.00  0.00    +0.000 A 
ATOM      9  C   UNL     1       0.822   8.112  21.811  0.00  0.00    +0.000 A 
ATOM     10  C   UNL     1       1.448   7.798  20.586  0.00  0.00    +0.000 A 
ATOM     11  C   UNL     1       1.367   8.747  19.597  0.00  0.00    +0.000 A 
ATOM     12  C   UNL     1       2.158   8.687  18.352  0.00  0.00    +0.000 C 
ATOM     13  O   UNL     1       2.264   9.632  17.601  0.00  0.00    +0.000 OA
ATOM     14  C   UNL     1       2.949   7.479  18.093  0.00  0.00    +0.000 A 
ATOM     15  C   UNL     1       3.756   7.468  16.942  0.00  0.00    +0.000 A 
ATOM     16  C   UNL     1       4.524   6.355  16.639  0.00  0.00    +0.000 A 
ATOM     17  C   UNL     1       4.466   5.250  17.483  0.00  0.00    +0.000 A 
ATOM     18  C   UNL     1       3.670   5.267  18.642  0.00  0.00    +0.000 A 
ATOM     19  C   UNL     1       2.914   6.404  18.978  0.00  0.00    +0.000 A 
ATOM     20  C   UNL     1       2.124   6.502  20.256  0.00  0.00    +0.000 C 
ATOM     21  O   UNL     1       2.037   5.545  21.012  0.00  0.00    +0.000 OA
ATOM     22  N   UNL     1      -0.052  11.837  21.269  0.00  0.00    +0.000 N 
ATOM     23  H   UNL     1      -1.046  11.874  21.042  0.00  0.00    +0.000 HD
ENDROOT
BRANCH   1  28
ATOM     24  C   UNL     1      -1.600  16.190  20.036  0.00  0.00    +0.000 A 
ATOM     25  C   UNL     1      -0.882  16.943  19.103  0.00  0.00    +0.000 A 
ATOM     26  C   UNL     1       0.308  16.460  18.633  0.00  0.00    +0.000 A 
ATOM     27  C   UNL     1       0.747  15.219  19.096  0.00  0.00    +0.000 A 
ATOM     28  C   UNL     1       0.027  14.332  19.988  0.00  0.00    +0.000 A 
ATOM     29  C   UNL     1      -1.148  14.906  20.486  0.00  0.00    +0.000 A 
BRANCH  24  31
ATOM     30  C   UNL     1      -3.344  17.748  19.687  0.00  0.00    +0.000 C 
ATOM     31  O   UNL     1      -2.644  16.896  20.579  0.00  0.00    +0.000 OA
ENDBRANCH  24  31
BRANCH  29  32
ATOM     32  O   UNL     1      -1.812  14.274  21.496  0.00  0.00    +0.000 OA
ATOM     33  H   UNL     1      -2.518  13.763  21.061  0.00  0.00    +0.000 HD
ENDBRANCH  29  32
ENDBRANCH   1  28
TORSDOF 3
ENDMDL
MODEL 2
REMARK VINA RESULT:      -7.3      1.275      1.621
REMARK  Name = 
REMARK  5 active torsions:
REMARK  status: ('A' for Active; 'I' for Inactive)
REMARK    1  A    between atoms: C_1  and  O_2
REMARK    2  A    between atoms: O_2  and  C_3
REMARK    3  A    between atoms: C_7  and  C_8
REMARK    4  A    between atoms: C_10  and  C_11
REMARK    5  A    between atoms: C_30  and  O_31
REMARK                            x       y       z     vdW  Elec       q    Type
REMARK                         _______ _______ _______ _____ _____    ______ ____
ROOT
ATOM      1  C   UNL     1       0.975  13.050  20.489  0.00  0.00    +0.000 C 
ATOM      2  C   UNL     1       1.475  12.399  19.199  0.00  0.00    +0.000 C 
ATOM      3  C   UNL     1       0.234  11.766  18.573  0.00  0.00    +0.000 C 
ATOM      4  C   UNL     1      -0.915  12.499  17.933  0.00  0.00    +0.000 C 
ATOM      5  N   UNL     1      -0.025  10.530  18.808  0.00  0.00    +0.000 NA
ATOM      6  C   UNL     1       0.716  10.003  19.860  0.00  0.00    +0.000 A 
ATOM      7  C   UNL     1       0.507  10.556  21.141  0.00  0.00    +0.000 A 
ATOM      8  C   UNL     1       0.415   9.560  22.120  0.00  0.00    +0.000 A 
ATOM      9  C   UNL     1       0.826   8.203  21.845  0.00  0.00    +0.000 A 
ATOM     10  C   UNL     1       1.438   7.862  20.620  0.00  0.00    +0.000 A 
ATOM     11  C   UNL     1       1.411   8.820  19.636  0.00  0.00    +0.000 A 
ATOM     12  C   UNL     1       2.200   8.724  18.392  0.00  0.00    +0.000 C 
ATOM     13  O   UNL     1       2.359   9.667  17.647  0.00  0.00    +0.000 OA
ATOM     14  C   UNL     1       2.925   7.477  18.128  0.00  0.00    +0.000 A 
ATOM     15  C   UNL     1       3.733   7.428  16.979  0.00  0.00    +0.000 A 
ATOM     16  C   UNL     1       4.441   6.278  16.672  0.00  0.00    +0.000 A 
ATOM     17  C   UNL     1       4.321   5.172  17.509  0.00  0.00    +0.000 A 
ATOM     18  C   UNL     1       3.524   5.225  18.666  0.00  0.00    +0.000 A 
ATOM     19  C   UNL     1       2.830   6.400  19.006  0.00  0.00    +0.000 A 
ATOM     20  C   UNL     1       2.043   6.534  20.284  0.00  0.00    +0.000 C 
ATOM     21  O   UNL     1       1.902   5.578  21.033  0.00  0.00    +0.000 OA
ATOM     22  N   UNL     1       0.157  11.973  21.323  0.00  0.00    +0.000 N 
ATOM     23  H   UNL     1      -0.833  12.065  21.095  0.00  0.00    +0.000 HD
ENDROOT
BRANCH   1  28
ATOM     24  C   UNL     1       0.232  16.604  18.827  0.00  0.00    +0.000 A 
ATOM     25  C   UNL     1      -1.032  16.903  19.341  0.00  0.00    +0.000 A 
ATOM     26  C   UNL     1      -1.646  16.000  20.164  0.00  0.00    +0.000 A 
ATOM     27  C   UNL     1      -0.970  14.818  20.469  0.00  0.00    +0.000 A 
ATOM     28  C   UNL     1       0.374  14.467  20.057  0.00  0.00    +0.000 A 
ATOM     29  C   UNL     1       0.925  15.395  19.167  0.00  0.00    +0.000 A 
BRANCH  24  31
ATOM     30  C   UNL     1      -0.432  18.191  17.204  0.00  0.00    +0.000 C 
ATOM     31  O   UNL     1       0.618  17.488  17.850  0.00  0.00    +0.000 OA
ENDBRANCH  24  31
BRANCH  29  32
ATOM     32  O   UNL     1       2.092  15.086  18.533  0.00  0.00    +0.000 OA
ATOM     33  H   UNL     1       2.570  14.497  19.144  0.00  0.00    +0.000 HD
ENDBRANCH  29  32
ENDBRANCH   1  28
TORSDOF 3
ENDMDL
MODEL 3
REMARK VINA RESULT:      -7.0      2.899      8.814
REMARK  Name = 
REMARK  5 active torsions:
REMARK  status: ('A' for Active; 'I' for Inactive)
REMARK    1  A    between atoms: C_1  and  O_2
REMARK    2  A    between atoms: O_2  and  C_3
REMARK    3  A    between atoms: C_7  and  C_8
REMARK    4  A    between atoms: C_10  and  C_11
REMARK    5  A    between atoms: C_30  and  O_31
REMARK                            x       y       z     vdW  Elec       q    Type
REMARK                         _______ _______ _______ _____ _____    ______ ____
ROOT
ATOM      1  C   UNL     1       2.038   6.193  19.376  0.00  0.00    +0.000 C 
ATOM      2  C   UNL     1       1.243   6.940  18.304  0.00  0.00    +0.000 C 
ATOM      3  C   UNL     1       2.084   8.171  17.979  0.00  0.00    +0.000 C 
ATOM      4  C   UNL     1       3.391   8.186  17.231  0.00  0.00    +0.000 C 
ATOM      5  N   UNL     1       1.838   9.277  18.585  0.00  0.00    +0.000 NA
ATOM      6  C   UNL     1       1.011   9.124  19.693  0.00  0.00    +0.000 A 
ATOM      7  C   UNL     1       1.500   8.348  20.765  0.00  0.00    +0.000 A 
ATOM      8  C   UNL     1       1.241   8.958  21.998  0.00  0.00    +0.000 A 
ATOM      9  C   UNL     1       0.303  10.051  22.108  0.00  0.00    +0.000 A 
ATOM     10  C   UNL     1      -0.466  10.464  20.999  0.00  0.00    +0.000 A 
ATOM     11  C   UNL     1      -0.114   9.937  19.780  0.00  0.00    +0.000 A 
ATOM     12  C   UNL     1      -0.946  10.073  18.569  0.00  0.00    +0.000 C 
ATOM     13  O   UNL     1      -0.757   9.413  17.570  0.00  0.00    +0.000 OA
ATOM     14  C   UNL     1      -2.126  10.941  18.635  0.00  0.00    +0.000 A 
ATOM     15  C   UNL     1      -2.952  11.000  17.500  0.00  0.00    +0.000 A 
ATOM     16  C   UNL     1      -4.080  11.805  17.497  0.00  0.00    +0.000 A 
ATOM     17  C   UNL     1      -4.365  12.563  18.629  0.00  0.00    +0.000 A 
ATOM     18  C   UNL     1      -3.548  12.493  19.771  0.00  0.00    +0.000 A 
ATOM     19  C   UNL     1      -2.421  11.652  19.797  0.00  0.00    +0.000 A 
ATOM     20  C   UNL     1      -1.573  11.473  21.029  0.00  0.00    +0.000 C 
ATOM     21  O   UNL     1      -1.785  12.135  22.034  0.00  0.00    +0.000 OA
ATOM     22  N   UNL     1       2.400   7.207  20.544  0.00  0.00    +0.000 N 
ATOM     23  H   UNL     1       3.328   7.592  20.367  0.00  0.00    +0.000 HD
ENDROOT
BRANCH   1  28
ATOM     24  C   UNL     1       5.349   4.364  18.098  0.00  0.00    +0.000 A 
ATOM     25  C   UNL     1       4.854   3.560  17.068  0.00  0.00    +0.000 A 
ATOM     26  C   UNL     1       3.513   3.570  16.803  0.00  0.00    +0.000 A 
ATOM     27  C   UNL     1       2.694   4.403  17.567  0.00  0.00    +0.000 A 
ATOM     28  C   UNL     1       3.131   5.334  18.587  0.00  0.00    +0.000 A 
ATOM     29  C   UNL     1       4.500   5.232  18.860  0.00  0.00    +0.000 A 
BRANCH  24  31
ATOM     30  C   UNL     1       7.627   4.690  17.554  0.00  0.00    +0.000 C 
ATOM     31  O   UNL     1       6.659   4.080  18.393  0.00  0.00    +0.000 OA
ENDBRANCH  24  31
BRANCH  29  32
ATOM     32  O   UNL     1       5.006   5.891  19.942  0.00  0.00    +0.000 OA
ATOM     33  H   UNL     1       5.342   5.195  20.534  0.00  0.00    +0.000 HD
ENDBRANCH  29  32
ENDBRANCH   1  28
TORSDOF 3
ENDMDL
MODEL 4
REMARK VINA RESULT:      -6.9      2.671      4.236
REMARK  Name = 
REMARK  5 active torsions:
REMARK  status: ('A' for Active; 'I' for Inactive)
REMARK    1  A    between atoms: C_1  and  O_2
REMARK    2  A    between atoms: O_2  and  C_3
REMARK    3  A    between atoms: C_7  and  C_8
REMARK    4  A    between atoms: C_10  and  C_11
REMARK    5  A    between atoms: C_30  and  O_31
REMARK                            x       y       z     vdW  Elec       q    Type
REMARK                         _______ _______ _______ _____ _____    ______ ____
ROOT
ATOM      1  C   UNL     1      -0.262  10.423  20.221  0.00  0.00    +0.000 C 
ATOM      2  C   UNL     1      -0.320   9.053  20.898  0.00  0.00    +0.000 C 
ATOM      3  C   UNL     1       0.969   8.963  21.711  0.00  0.00    +0.000 C 
ATOM      4  C   UNL     1       1.288   9.734  22.965  0.00  0.00    +0.000 C 
ATOM      5  N   UNL     1       1.998   8.394  21.194  0.00  0.00    +0.000 NA
ATOM      6  C   UNL     1       1.885   8.191  19.823  0.00  0.00    +0.000 A 
ATOM      7  C   UNL     1       1.788   9.337  19.005  0.00  0.00    +0.000 A 
ATOM      8  C   UNL     1       2.599   9.224  17.870  0.00  0.00    +0.000 A 
ATOM      9  C   UNL     1       3.162   7.954  17.478  0.00  0.00    +0.000 A 
ATOM     10  C   UNL     1       2.823   6.766  18.159  0.00  0.00    +0.000 A 
ATOM     11  C   UNL     1       2.125   6.913  19.333  0.00  0.00    +0.000 A 
ATOM     12  C   UNL     1       1.490   5.785  20.043  0.00  0.00    +0.000 C 
ATOM     13  O   UNL     1       0.684   5.947  20.934  0.00  0.00    +0.000 OA
ATOM     14  C   UNL     1       1.747   4.427  19.554  0.00  0.00    +0.000 A 
ATOM     15  C   UNL     1       1.075   3.370  20.192  0.00  0.00    +0.000 A 
ATOM     16  C   UNL     1       1.278   2.064  19.779  0.00  0.00    +0.000 A 
ATOM     17  C   UNL     1       2.170   1.819  18.738  0.00  0.00    +0.000 A 
ATOM     18  C   UNL     1       2.831   2.877  18.090  0.00  0.00    +0.000 A 
ATOM     19  C   UNL     1       2.605   4.210  18.478  0.00  0.00    +0.000 A 
ATOM     20  C   UNL     1       3.217   5.379  17.751  0.00  0.00    +0.000 C 
ATOM     21  O   UNL     1       4.017   5.201  16.845  0.00  0.00    +0.000 OA
ATOM     22  N   UNL     1       1.131  10.567  19.472  0.00  0.00    +0.000 N 
ATOM     23  H   UNL     1       1.790  11.036  20.094  0.00  0.00    +0.000 HD
ENDROOT
BRANCH   1  28
ATOM     24  C   UNL     1      -0.746  13.480  22.745  0.00  0.00    +0.000 A 
ATOM     25  C   UNL     1      -2.058  13.285  23.183  0.00  0.00    +0.000 A 
ATOM     26  C   UNL     1      -2.781  12.240  22.677  0.00  0.00    +0.000 A 
ATOM     27  C   UNL     1      -2.164  11.398  21.752  0.00  0.00    +0.000 A 
ATOM     28  C   UNL     1      -0.786  11.469  21.312  0.00  0.00    +0.000 A 
ATOM     29  C   UNL     1      -0.118  12.593  21.810  0.00  0.00    +0.000 A 
BRANCH  24  31
ATOM     30  C   UNL     1      -1.027  15.405  24.089  0.00  0.00    +0.000 C 
ATOM     31  O   UNL     1      -0.232  14.682  23.162  0.00  0.00    +0.000 OA
ENDBRANCH  24  31
BRANCH  29  32
ATOM     32  O   UNL     1       1.113  12.902  21.310  0.00  0.00    +0.000 OA
ATOM     33  H   UNL     1       1.711  12.212  21.650  0.00  0.00    +0.000 HD
ENDBRANCH  29  32
ENDBRANCH   1  28
TORSDOF 3
ENDMDL
MODEL 5
REMARK VINA RESULT:      -6.5      2.376      9.129
REMARK  Name = 
REMARK  5 active torsions:
REMARK  status: ('A' for Active; 'I' for Inactive)
REMARK    1  A    between atoms: C_1  and  O_2
REMARK    2  A    between atoms: O_2  and  C_3
REMARK    3  A    between atoms: C_7  and  C_8
REMARK    4  A    between atoms: C_10  and  C_11
REMARK    5  A    between atoms: C_30  and  O_31
REMARK                            x       y       z     vdW  Elec       q    Type
REMARK                         _______ _______ _______ _____ _____    ______ ____
ROOT
ATOM      1  C   UNL     1       0.884  11.288  20.225  0.00  0.00    +0.000 C 
ATOM      2  C   UNL     1      -0.527  11.084  20.780  0.00  0.00    +0.000 C 
ATOM      3  C   UNL     1      -1.443  11.169  19.561  0.00  0.00    +0.000 C 
ATOM      4  C   UNL     1      -1.566  10.144  18.465  0.00  0.00    +0.000 C 
ATOM      5  N   UNL     1      -1.986  12.294  19.262  0.00  0.00    +0.000 NA
ATOM      6  C   UNL     1      -1.422  13.373  19.934  0.00  0.00    +0.000 A 
ATOM      7  C   UNL     1      -0.067  13.665  19.668  0.00  0.00    +0.000 A 
ATOM      8  C   UNL     1       0.137  15.040  19.502  0.00  0.00    +0.000 A 
ATOM      9  C   UNL     1      -0.870  15.997  19.897  0.00  0.00    +0.000 A 
ATOM     10  C   UNL     1      -2.042  15.586  20.566  0.00  0.00    +0.000 A 
ATOM     11  C   UNL     1      -2.276  14.234  20.614  0.00  0.00    +0.000 A 
ATOM     12  C   UNL     1      -3.315  13.622  21.466  0.00  0.00    +0.000 C 
ATOM     13  O   UNL     1      -3.359  12.431  21.687  0.00  0.00    +0.000 OA
ATOM     14  C   UNL     1      -4.238  14.512  22.178  0.00  0.00    +0.000 A 
ATOM     15  C   UNL     1      -5.171  13.919  23.045  0.00  0.00    +0.000 A 
ATOM     16  C   UNL     1      -6.073  14.705  23.743  0.00  0.00    +0.000 A 
ATOM     17  C   UNL     1      -6.049  16.084  23.553  0.00  0.00    +0.000 A 
ATOM     18  C   UNL     1      -5.106  16.679  22.697  0.00  0.00    +0.000 A 
ATOM     19  C   UNL     1      -4.163  15.894  22.011  0.00  0.00    +0.000 A 
ATOM     20  C   UNL     1      -3.075  16.494  21.160  0.00  0.00    +0.000 C 
ATOM     21  O   UNL     1      -3.034  17.699  20.958  0.00  0.00    +0.000 OA
ATOM     22  N   UNL     1       0.901  12.608  19.340  0.00  0.00    +0.000 N 
ATOM     23  H   UNL     1       0.739  12.350  18.367  0.00  0.00    +0.000 HD
ENDROOT
BRANCH   1  28
ATOM     24  C   UNL     1       2.346   8.230  18.116  0.00  0.00    +0.000 A 
ATOM     25  C   UNL     1       2.239   7.175  19.026  0.00  0.00    +0.000 A 
ATOM     26  C   UNL     1       1.749   7.425  20.278  0.00  0.00    +0.000 A 
ATOM     27  C   UNL     1       1.358   8.728  20.586  0.00  0.00    +0.000 A 
ATOM     28  C   UNL     1       1.347   9.858  19.680  0.00  0.00    +0.000 A 
ATOM     29  C   UNL     1       1.920   9.560  18.439  0.00  0.00    +0.000 A 
BRANCH  24  31
ATOM     30  C   UNL     1       4.206   7.077  17.220  0.00  0.00    +0.000 C 
ATOM     31  O   UNL     1       3.058   7.878  16.995  0.00  0.00    +0.000 OA
ENDBRANCH  24  31
BRANCH  29  32
ATOM     32  O   UNL     1       2.171  10.579  17.568  0.00  0.00    +0.000 OA
ATOM     33  H   UNL     1       1.866  11.386  18.020  0.00  0.00    +0.000 HD
ENDBRANCH  29  32
ENDBRANCH   1  28
TORSDOF 3
ENDMDL
MODEL 6
REMARK VINA RESULT:      -6.5      2.020      3.754
REMARK  Name = 
REMARK  5 active torsions:
REMARK  status: ('A' for Active; 'I' for Inactive)
REMARK    1  A    between atoms: C_1  and  O_2
REMARK    2  A    between atoms: O_2  and  C_3
REMARK    3  A    between atoms: C_7  and  C_8
REMARK    4  A    between atoms: C_10  and  C_11
REMARK    5  A    between atoms: C_30  and  O_31
REMARK                            x       y       z     vdW  Elec       q    Type
REMARK                         _______ _______ _______ _____ _____    ______ ____
ROOT
ATOM      1  C   UNL     1      -0.444  10.614  18.939  0.00  0.00    +0.000 C 
ATOM      2  C   UNL     1      -0.538   9.469  19.949  0.00  0.00    +0.000 C 
ATOM      3  C   UNL     1       0.619   9.702  20.916  0.00  0.00    +0.000 C 
ATOM      4  C   UNL     1       0.715  10.798  21.944  0.00  0.00    +0.000 C 
ATOM      5  N   UNL     1       1.738   9.104  20.711  0.00  0.00    +0.000 NA
ATOM      6  C   UNL     1       1.836   8.541  19.443  0.00  0.00    +0.000 A 
ATOM      7  C   UNL     1       1.810   9.420  18.340  0.00  0.00    +0.000 A 
ATOM      8  C   UNL     1       2.784   9.081  17.393  0.00  0.00    +0.000 A 
ATOM      9  C   UNL     1       3.455   7.803  17.436  0.00  0.00    +0.000 A 
ATOM     10  C   UNL     1       3.072   6.812  18.364  0.00  0.00    +0.000 A 
ATOM     11  C   UNL     1       2.203   7.203  19.353  0.00  0.00    +0.000 A 
ATOM     12  C   UNL     1       1.522   6.252  20.254  0.00  0.00    +0.000 C 
ATOM     13  O   UNL     1       0.587   6.575  20.955  0.00  0.00    +0.000 OA
ATOM     14  C   UNL     1       1.908   4.839  20.188  0.00  0.00    +0.000 A 
ATOM     15  C   UNL     1       1.197   3.935  20.996  0.00  0.00    +0.000 A 
ATOM     16  C   UNL     1       1.517   2.587  20.982  0.00  0.00    +0.000 A 
ATOM     17  C   UNL     1       2.563   2.153  20.172  0.00  0.00    +0.000 A 
ATOM     18  C   UNL     1       3.264   3.055  19.353  0.00  0.00    +0.000 A 
ATOM     19  C   UNL     1       2.924   4.420  19.332  0.00  0.00    +0.000 A 
ATOM     20  C   UNL     1       3.583   5.404  18.402  0.00  0.00    +0.000 C 
ATOM     21  O   UNL     1       4.516   5.062  17.690  0.00  0.00    +0.000 OA
ATOM     22  N   UNL     1       1.038  10.671  18.367  0.00  0.00    +0.000 N 
ATOM     23  H   UNL     1       1.576  11.339  18.919  0.00  0.00    +0.000 HD
ENDROOT
BRANCH   1  28
ATOM     24  C   UNL     1      -1.409  14.156  20.510  0.00  0.00    +0.000 A 
ATOM     25  C   UNL     1      -2.779  14.006  20.737  0.00  0.00    +0.000 A 
ATOM     26  C   UNL     1      -3.388  12.835  20.379  0.00  0.00    +0.000 A 
ATOM     27  C   UNL     1      -2.604  11.828  19.815  0.00  0.00    +0.000 A 
ATOM     28  C   UNL     1      -1.168  11.862  19.628  0.00  0.00    +0.000 A 
ATOM     29  C   UNL     1      -0.611  13.105  19.950  0.00  0.00    +0.000 A 
BRANCH  24  31
ATOM     30  C   UNL     1      -1.158  16.326  19.605  0.00  0.00    +0.000 C 
ATOM     31  O   UNL     1      -0.989  15.448  20.706  0.00  0.00    +0.000 OA
ENDBRANCH  24  31
BRANCH  29  32
ATOM     32  O   UNL     1       0.690  13.348  19.621  0.00  0.00    +0.000 OA
ATOM     33  H   UNL     1       1.011  12.524  19.212  0.00  0.00    +0.000 HD
ENDBRANCH  29  32
ENDBRANCH   1  28
TORSDOF 3
ENDMDL
MODEL 7
REMARK VINA RESULT:      -6.4      2.826      4.099
REMARK  Name = 
REMARK  5 active torsions:
REMARK  status: ('A' for Active; 'I' for Inactive)
REMARK    1  A    between atoms: C_1  and  O_2
REMARK    2  A    between atoms: O_2  and  C_3
REMARK    3  A    between atoms: C_7  and  C_8
REMARK    4  A    between atoms: C_10  and  C_11
REMARK    5  A    between atoms: C_30  and  O_31
REMARK                            x       y       z     vdW  Elec       q    Type
REMARK                         _______ _______ _______ _____ _____    ______ ____
ROOT
ATOM      1  C   UNL     1       1.499   8.878  21.226  0.00  0.00    +0.000 C 
ATOM      2  C   UNL     1       2.251   9.088  19.911  0.00  0.00    +0.000 C 
ATOM      3  C   UNL     1       1.235   8.756  18.822  0.00  0.00    +0.000 C 
ATOM      4  C   UNL     1       0.036   9.581  18.439  0.00  0.00    +0.000 C 
ATOM      5  N   UNL     1       1.206   7.568  18.333  0.00  0.00    +0.000 NA
ATOM      6  C   UNL     1       1.924   6.645  19.085  0.00  0.00    +0.000 A 
ATOM      7  C   UNL     1       1.476   6.393  20.399  0.00  0.00    +0.000 A 
ATOM      8  C   UNL     1       1.484   5.022  20.688  0.00  0.00    +0.000 A 
ATOM      9  C   UNL     1       2.186   4.086  19.841  0.00  0.00    +0.000 A 
ATOM     10  C   UNL     1       2.978   4.532  18.762  0.00  0.00    +0.000 A 
ATOM     11  C   UNL     1       2.862   5.859  18.427  0.00  0.00    +0.000 A 
ATOM     12  C   UNL     1       3.780   6.540  17.492  0.00  0.00    +0.000 C 
ATOM     13  O   UNL     1       3.823   7.746  17.385  0.00  0.00    +0.000 OA
ATOM     14  C   UNL     1       4.764   5.725  16.773  0.00  0.00    +0.000 A 
ATOM     15  C   UNL     1       5.681   6.396  15.945  0.00  0.00    +0.000 A 
ATOM     16  C   UNL     1       6.633   5.683  15.236  0.00  0.00    +0.000 A 
ATOM     17  C   UNL     1       6.650   4.295  15.344  0.00  0.00    +0.000 A 
ATOM     18  C   UNL     1       5.743   3.624  16.183  0.00  0.00    +0.000 A 
ATOM     19  C   UNL     1       4.796   4.342  16.935  0.00  0.00    +0.000 A 
ATOM     20  C   UNL     1       3.869   3.674  17.917  0.00  0.00    +0.000 C 
ATOM     21  O   UNL     1       3.846   2.457  18.025  0.00  0.00    +0.000 OA
ATOM     22  N   UNL     1       0.832   7.436  21.210  0.00  0.00    +0.000 N 
ATOM     23  H   UNL     1      -0.127   7.523  20.873  0.00  0.00    +0.000 HD
ENDROOT
BRANCH   1  28
ATOM     24  C   UNL     1      -1.028  11.702  22.485  0.00  0.00    +0.000 A 
ATOM     25  C   UNL     1      -0.527  12.840  21.848  0.00  0.00    +0.000 A 
ATOM     26  C   UNL     1       0.591  12.729  21.069  0.00  0.00    +0.000 A 
ATOM     27  C   UNL     1       1.176  11.470  20.930  0.00  0.00    +0.000 A 
ATOM     28  C   UNL     1       0.674  10.225  21.476  0.00  0.00    +0.000 A 
ATOM     29  C   UNL     1      -0.430  10.410  22.314  0.00  0.00    +0.000 A 
BRANCH  24  31
ATOM     30  C   UNL     1      -3.232  12.470  22.864  0.00  0.00    +0.000 C 
ATOM     31  O   UNL     1      -2.004  12.007  23.401  0.00  0.00    +0.000 OA
ENDBRANCH  24  31
BRANCH  29  32
ATOM     32  O   UNL     1      -0.871   9.359  23.063  0.00  0.00    +0.000 OA
ATOM     33  H   UNL     1      -0.068   8.877  23.330  0.00  0.00    +0.000 HD
ENDBRANCH  29  32
ENDBRANCH   1  28
TORSDOF 3
ENDMDL
MODEL 8
REMARK VINA RESULT:      -6.3      5.053      8.536
REMARK  Name = 
REMARK  5 active torsions:
REMARK  status: ('A' for Active; 'I' for Inactive)
REMARK    1  A    between atoms: C_1  and  O_2
REMARK    2  A    between atoms: O_2  and  C_3
REMARK    3  A    between atoms: C_7  and  C_8
REMARK    4  A    between atoms: C_10  and  C_11
REMARK    5  A    between atoms: C_30  and  O_31
REMARK                            x       y       z     vdW  Elec       q    Type
REMARK                         _______ _______ _______ _____ _____    ______ ____
ROOT
ATOM      1  C   UNL     1       0.362  14.255  19.984  0.00  0.00    +0.000 C 
ATOM      2  C   UNL     1      -0.736  15.292  20.226  0.00  0.00    +0.000 C 
ATOM      3  C   UNL     1      -0.415  15.890  21.593  0.00  0.00    +0.000 C 
ATOM      4  C   UNL     1       0.732  16.811  21.916  0.00  0.00    +0.000 C 
ATOM      5  N   UNL     1      -0.981  15.405  22.639  0.00  0.00    +0.000 NA
ATOM      6  C   UNL     1      -1.601  14.181  22.412  0.00  0.00    +0.000 A 
ATOM      7  C   UNL     1      -0.777  13.097  22.040  0.00  0.00    +0.000 A 
ATOM      8  C   UNL     1      -1.126  11.930  22.730  0.00  0.00    +0.000 A 
ATOM      9  C   UNL     1      -2.375  11.832  23.448  0.00  0.00    +0.000 A 
ATOM     10  C   UNL     1      -3.334  12.865  23.384  0.00  0.00    +0.000 A 
ATOM     11  C   UNL     1      -2.927  14.042  22.804  0.00  0.00    +0.000 A 
ATOM     12  C   UNL     1      -3.857  15.130  22.443  0.00  0.00    +0.000 C 
ATOM     13  O   UNL     1      -3.535  16.051  21.724  0.00  0.00    +0.000 OA
ATOM     14  C   UNL     1      -5.257  15.011  22.864  0.00  0.00    +0.000 A 
ATOM     15  C   UNL     1      -6.147  16.017  22.448  0.00  0.00    +0.000 A 
ATOM     16  C   UNL     1      -7.481  15.964  22.817  0.00  0.00    +0.000 A 
ATOM     17  C   UNL     1      -7.915  14.912  23.618  0.00  0.00    +0.000 A 
ATOM     18  C   UNL     1      -7.029  13.898  24.022  0.00  0.00    +0.000 A 
ATOM     19  C   UNL     1      -5.680  13.923  23.624  0.00  0.00    +0.000 A 
ATOM     20  C   UNL     1      -4.719  12.811  23.953  0.00  0.00    +0.000 C 
ATOM     21  O   UNL     1      -5.061  11.881  24.668  0.00  0.00    +0.000 OA
ATOM     22  N   UNL     1       0.445  13.292  21.245  0.00  0.00    +0.000 N 
ATOM     23  H   UNL     1       1.158  13.648  21.882  0.00  0.00    +0.000 HD
ENDROOT
BRANCH   1  28
ATOM     24  C   UNL     1       3.990  15.614  19.021  0.00  0.00    +0.000 A 
ATOM     25  C   UNL     1       3.684  16.637  18.119  0.00  0.00    +0.000 A 
ATOM     26  C   UNL     1       2.375  16.873  17.800  0.00  0.00    +0.000 A 
ATOM     27  C   UNL     1       1.396  16.087  18.408  0.00  0.00    +0.000 A 
ATOM     28  C   UNL     1       1.614  15.071  19.418  0.00  0.00    +0.000 A 
ATOM     29  C   UNL     1       2.972  14.829  19.655  0.00  0.00    +0.000 A 
BRANCH  24  31
ATOM     30  C   UNL     1       5.916  14.882  17.859  0.00  0.00    +0.000 C 
ATOM     31  O   UNL     1       5.336  15.349  19.067  0.00  0.00    +0.000 OA
ENDBRANCH  24  31
BRANCH  29  32
ATOM     32  O   UNL     1       3.326  13.756  20.419  0.00  0.00    +0.000 OA
ATOM     33  H   UNL     1       3.480  13.030  19.788  0.00  0.00    +0.000 HD
ENDBRANCH  29  32
ENDBRANCH   1  28
TORSDOF 3
ENDMDL
MODEL 9
REMARK VINA RESULT:      -6.3      2.820      4.684
REMARK  Name = 
REMARK  5 active torsions:
REMARK  status: ('A' for Active; 'I' for Inactive)
REMARK    1  A    between atoms: C_1  and  O_2
REMARK    2  A    between atoms: O_2  and  C_3
REMARK    3  A    between atoms: C_7  and  C_8
REMARK    4  A    between atoms: C_10  and  C_11
REMARK    5  A    between atoms: C_30  and  O_31
REMARK                            x       y       z     vdW  Elec       q    Type
REMARK                         _______ _______ _______ _____ _____    ______ ____
ROOT
ATOM      1  C   UNL     1      -3.288  13.628  21.089  0.00  0.00    +0.000 C 
ATOM      2  C   UNL     1      -2.707  12.430  21.842  0.00  0.00    +0.000 C 
ATOM      3  C   UNL     1      -1.412  12.948  22.462  0.00  0.00    +0.000 C 
ATOM      4  C   UNL     1      -1.298  13.915  23.611  0.00  0.00    +0.000 C 
ATOM      5  N   UNL     1      -0.304  12.780  21.834  0.00  0.00    +0.000 NA
ATOM      6  C   UNL     1      -0.476  12.399  20.508  0.00  0.00    +0.000 A 
ATOM      7  C   UNL     1      -1.121  13.315  19.649  0.00  0.00    +0.000 A 
ATOM      8  C   UNL     1      -0.465  13.409  18.416  0.00  0.00    +0.000 A 
ATOM      9  C   UNL     1       0.519  12.430  18.018  0.00  0.00    +0.000 A 
ATOM     10  C   UNL     1       0.770  11.288  18.807  0.00  0.00    +0.000 A 
ATOM     11  C   UNL     1       0.208  11.275  20.060  0.00  0.00    +0.000 A 
ATOM     12  C   UNL     1       0.170  10.074  20.917  0.00  0.00    +0.000 C 
ATOM     13  O   UNL     1      -0.528  10.000  21.906  0.00  0.00    +0.000 OA
ATOM     14  C   UNL     1       0.901   8.883  20.472  0.00  0.00    +0.000 A 
ATOM     15  C   UNL     1       0.793   7.724  21.259  0.00  0.00    +0.000 A 
ATOM     16  C   UNL     1       1.463   6.568  20.895  0.00  0.00    +0.000 A 
ATOM     17  C   UNL     1       2.256   6.583  19.751  0.00  0.00    +0.000 A 
ATOM     18  C   UNL     1       2.353   7.738  18.956  0.00  0.00    +0.000 A 
ATOM     19  C   UNL     1       1.648   8.906  19.297  0.00  0.00    +0.000 A 
ATOM     20  C   UNL     1       1.647  10.135  18.424  0.00  0.00    +0.000 C 
ATOM     21  O   UNL     1       2.345  10.189  17.422  0.00  0.00    +0.000 OA
ATOM     22  N   UNL     1      -2.165  14.228  20.137  0.00  0.00    +0.000 N 
ATOM     23  H   UNL     1      -1.690  14.985  20.630  0.00  0.00    +0.000 HD
ENDROOT
BRANCH   1  28
ATOM     24  C   UNL     1      -4.726  16.510  23.448  0.00  0.00    +0.000 A 
ATOM     25  C   UNL     1      -5.747  15.842  24.128  0.00  0.00    +0.000 A 
ATOM     26  C   UNL     1      -5.996  14.531  23.831  0.00  0.00    +0.000 A 
ATOM     27  C   UNL     1      -5.201  13.909  22.868  0.00  0.00    +0.000 A 
ATOM     28  C   UNL     1      -4.067  14.494  22.183  0.00  0.00    +0.000 A 
ATOM     29  C   UNL     1      -3.902  15.852  22.477  0.00  0.00    +0.000 A 
BRANCH  24  31
ATOM     30  C   UNL     1      -5.744  18.596  22.997  0.00  0.00    +0.000 C 
ATOM     31  O   UNL     1      -4.743  17.862  23.684  0.00  0.00    +0.000 OA
ENDBRANCH  24  31
BRANCH  29  32
ATOM     32  O   UNL     1      -3.011  16.580  21.743  0.00  0.00    +0.000 OA
ATOM     33  H   UNL     1      -2.709  17.291  22.336  0.00  0.00    +0.000 HD
ENDBRANCH  29  32
ENDBRANCH   1  28
TORSDOF 3
ENDMDL
