MODEL 1
REMARK VINA RESULT:      -7.6      0.000      0.000
REMARK  Name = 
REMARK  3 active torsions:
REMARK  status: ('A' for Active; 'I' for Inactive)
REMARK    1  A    between atoms: C_1  and  C_2
REMARK    2  A    between atoms: C_3  and  C_4
REMARK    3  A    between atoms: C_13  and  C_14
REMARK                            x       y       z     vdW  Elec       q    Type
REMARK                         _______ _______ _______ _____ _____    ______ ____
ROOT
ATOM      1  C   UNL     1      -2.503  12.563  20.422  0.00  0.00    +0.000 C 
ATOM      2  C   UNL     1      -1.067  12.859  20.692  0.00  0.00    +0.000 A 
ATOM      3  C   UNL     1       0.090  12.342  20.130  0.00  0.00    +0.000 A 
ATOM      4  C   UNL     1       1.125  13.004  20.836  0.00  0.00    +0.000 A 
ATOM      5  N   UNL     1       0.676  13.830  21.773  0.00  0.00    +0.000 NA
ATOM      6  N   UNL     1      -0.678  13.783  21.648  0.00  0.00    +0.000 N 
ATOM      7  C   UNL     1      -1.478  14.630  22.446  0.00  0.00    +0.000 A 
ATOM      8  N   UNL     1      -2.751  14.819  22.269  0.00  0.00    +0.000 NA
ATOM      9  N   UNL     1      -3.295  15.574  23.254  0.00  0.00    +0.000 N 
ATOM     10  C   UNL     1      -4.493  16.226  23.229  0.00  0.00    +0.000 A 
ATOM     11  C   UNL     1      -4.694  16.786  24.477  0.00  0.00    +0.000 A 
ATOM     12  C   UNL     1      -3.580  16.448  25.284  0.00  0.00    +0.000 A 
ATOM     13  C   UNL     1      -2.687  15.810  24.454  0.00  0.00    +0.000 A 
ATOM     14  C   UNL     1      -1.340  15.374  24.603  0.00  0.00    +0.000 A 
ATOM     15  O   UNL     1      -0.802  15.076  25.665  0.00  0.00    +0.000 OA
ATOM     16  N   UNL     1      -0.717  15.280  23.390  0.00  0.00    +0.000 N 
ATOM     17  H   UNL     1      -0.679  16.241  23.045  0.00  0.00    +0.000 HD
ENDROOT
BRANCH   3  18
ATOM     18  C   UNL     1       0.195  11.409  19.023  0.00  0.00    +0.000 C 
ATOM     19  O   UNL     1       0.018  11.804  17.872  0.00  0.00    +0.000 OA
ATOM     20  N   UNL     1       0.565  10.096  19.289  0.00  0.00    +0.000 N 
ATOM     21  C   UNL     1       0.913   9.220  18.170  0.00  0.00    +0.000 C 
ATOM     22  C   UNL     1       2.187   8.412  18.477  0.00  0.00    +0.000 C 
ATOM     23  N   UNL     1       2.098   7.746  19.788  0.00  0.00    +0.000 N 
ATOM     24  C   UNL     1       2.052   6.390  19.897  0.00  0.00    +0.000 A 
ATOM     25  N   UNL     1       1.442   5.719  20.858  0.00  0.00    +0.000 NA
ATOM     26  N   UNL     1       1.528   4.347  20.717  0.00  0.00    +0.000 NA
ATOM     27  C   UNL     1       2.248   4.003  19.668  0.00  0.00    +0.000 A 
ATOM     28  S   UNL     1       2.872   5.336  18.793  0.00  0.00    +0.000 S 
ATOM     29  C   UNL     1       1.656   8.584  20.913  0.00  0.00    +0.000 C 
ATOM     30  C   UNL     1       0.383   9.370  20.554  0.00  0.00    +0.000 C 
BRANCH  27  31
ATOM     31  C   UNL     1       2.547   2.624  19.197  0.00  0.00    +0.000 C 
ATOM     32  F   UNL     1       1.645   1.703  19.627  0.00  0.00    +0.000 F 
ATOM     33  F   UNL     1       2.563   2.542  17.837  0.00  0.00    +0.000 F 
ATOM     34  F   UNL     1       3.769   2.195  19.618  0.00  0.00    +0.000 F 
ENDBRANCH  27  31
ENDBRANCH   3  18
TORSDOF 2
ENDMDL
MODEL 2
REMARK VINA RESULT:      -7.5      1.009      1.358
REMARK  Name = 
REMARK  3 active torsions:
REMARK  status: ('A' for Active; 'I' for Inactive)
REMARK    1  A    between atoms: C_1  and  C_2
REMARK    2  A    between atoms: C_3  and  C_4
REMARK    3  A    between atoms: C_13  and  C_14
REMARK                            x       y       z     vdW  Elec       q    Type
REMARK                         _______ _______ _______ _____ _____    ______ ____
ROOT
ATOM      1  C   UNL     1      -3.533  12.693  19.888  0.00  0.00    +0.000 C 
ATOM      2  C   UNL     1      -2.168  12.898  20.449  0.00  0.00    +0.000 A 
ATOM      3  C   UNL     1      -0.947  12.339  20.104  0.00  0.00    +0.000 A 
ATOM      4  C   UNL     1      -0.044  12.915  21.030  0.00  0.00    +0.000 A 
ATOM      5  N   UNL     1      -0.631  13.730  21.898  0.00  0.00    +0.000 NA
ATOM      6  N   UNL     1      -1.934  13.763  21.506  0.00  0.00    +0.000 N 
ATOM      7  C   UNL     1      -2.836  14.624  22.170  0.00  0.00    +0.000 A 
ATOM      8  N   UNL     1      -4.037  14.890  21.754  0.00  0.00    +0.000 NA
ATOM      9  N   UNL     1      -4.730  15.637  22.648  0.00  0.00    +0.000 N 
ATOM     10  C   UNL     1      -5.867  16.356  22.418  0.00  0.00    +0.000 A 
ATOM     11  C   UNL     1      -6.286  16.879  23.627  0.00  0.00    +0.000 A 
ATOM     12  C   UNL     1      -5.372  16.449  24.620  0.00  0.00    +0.000 A 
ATOM     13  C   UNL     1      -4.363  15.794  23.954  0.00  0.00    +0.000 A 
ATOM     14  C   UNL     1      -3.095  15.278  24.345  0.00  0.00    +0.000 A 
ATOM     15  O   UNL     1      -2.794  14.912  25.476  0.00  0.00    +0.000 OA
ATOM     16  N   UNL     1      -2.248  15.195  23.275  0.00  0.00    +0.000 N 
ATOM     17  H   UNL     1      -2.097  16.164  22.991  0.00  0.00    +0.000 HD
ENDROOT
BRANCH   3  18
ATOM     18  C   UNL     1      -0.668  11.443  18.995  0.00  0.00    +0.000 C 
ATOM     19  O   UNL     1      -0.914  11.800  17.845  0.00  0.00    +0.000 OA
ATOM     20  N   UNL     1      -0.059  10.222  19.261  0.00  0.00    +0.000 N 
ATOM     21  C   UNL     1       0.448   9.428  18.142  0.00  0.00    +0.000 C 
ATOM     22  C   UNL     1       1.851   8.872  18.450  0.00  0.00    +0.000 C 
ATOM     23  N   UNL     1       1.886   8.200  19.761  0.00  0.00    +0.000 N 
ATOM     24  C   UNL     1       2.094   6.859  19.869  0.00  0.00    +0.000 A 
ATOM     25  N   UNL     1       1.619   6.085  20.828  0.00  0.00    +0.000 NA
ATOM     26  N   UNL     1       1.960   4.754  20.686  0.00  0.00    +0.000 NA
ATOM     27  C   UNL     1       2.734   4.551  19.638  0.00  0.00    +0.000 A 
ATOM     28  S   UNL     1       3.098   5.979  18.765  0.00  0.00    +0.000 S 
ATOM     29  C   UNL     1       1.293   8.940  20.886  0.00  0.00    +0.000 C 
ATOM     30  C   UNL     1      -0.104   9.473  20.525  0.00  0.00    +0.000 C 
BRANCH  27  31
ATOM     31  C   UNL     1       3.287   3.253  19.167  0.00  0.00    +0.000 C 
ATOM     32  F   UNL     1       4.565   3.036  19.574  0.00  0.00    +0.000 F 
ATOM     33  F   UNL     1       2.554   2.196  19.615  0.00  0.00    +0.000 F 
ATOM     34  F   UNL     1       3.292   3.163  17.808  0.00  0.00    +0.000 F 
ENDBRANCH  27  31
ENDBRANCH   3  18
TORSDOF 2
ENDMDL
MODEL 3
REMARK VINA RESULT:      -7.5      7.555     10.702
REMARK  Name = 
REMARK  3 active torsions:
REMARK  status: ('A' for Active; 'I' for Inactive)
REMARK    1  A    between atoms: C_1  and  C_2
REMARK    2  A    between atoms: C_3  and  C_4
REMARK    3  A    between atoms: C_13  and  C_14
REMARK                            x       y       z     vdW  Elec       q    Type
REMARK                         _______ _______ _______ _____ _____    ______ ____
ROOT
ATOM      1  C   UNL     1       5.655  14.170  17.795  0.00  0.00    +0.000 C 
ATOM      2  C   UNL     1       5.956  15.440  18.516  0.00  0.00    +0.000 A 
ATOM      3  C   UNL     1       5.154  16.532  18.810  0.00  0.00    +0.000 A 
ATOM      4  C   UNL     1       6.033  17.418  19.480  0.00  0.00    +0.000 A 
ATOM      5  N   UNL     1       7.274  16.955  19.574  0.00  0.00    +0.000 NA
ATOM      6  N   UNL     1       7.215  15.710  19.028  0.00  0.00    +0.000 N 
ATOM      7  C   UNL     1       8.362  14.887  19.053  0.00  0.00    +0.000 A 
ATOM      8  N   UNL     1       8.366  13.623  18.753  0.00  0.00    +0.000 NA
ATOM      9  N   UNL     1       9.620  13.110  18.730  0.00  0.00    +0.000 N 
ATOM     10  C   UNL     1       9.974  11.793  18.774  0.00  0.00    +0.000 A 
ATOM     11  C   UNL     1      11.347  11.721  18.625  0.00  0.00    +0.000 A 
ATOM     12  C   UNL     1      11.832  13.043  18.476  0.00  0.00    +0.000 A 
ATOM     13  C   UNL     1      10.752  13.872  18.673  0.00  0.00    +0.000 A 
ATOM     14  C   UNL     1      10.601  15.280  18.815  0.00  0.00    +0.000 A 
ATOM     15  O   UNL     1      11.361  16.126  18.355  0.00  0.00    +0.000 OA
ATOM     16  N   UNL     1       9.459  15.585  19.501  0.00  0.00    +0.000 N 
ATOM     17  H   UNL     1       9.614  15.210  20.439  0.00  0.00    +0.000 HD
ENDROOT
BRANCH   3  18
ATOM     18  C   UNL     1       3.732  16.678  18.558  0.00  0.00    +0.000 C 
ATOM     19  O   UNL     1       3.346  17.350  17.604  0.00  0.00    +0.000 OA
ATOM     20  N   UNL     1       2.836  15.990  19.368  0.00  0.00    +0.000 N 
ATOM     21  C   UNL     1       1.429  15.930  18.973  0.00  0.00    +0.000 C 
ATOM     22  C   UNL     1       0.868  14.505  19.136  0.00  0.00    +0.000 C 
ATOM     23  N   UNL     1       1.166  13.961  20.472  0.00  0.00    +0.000 N 
ATOM     24  C   UNL     1       0.178  13.701  21.372  0.00  0.00    +0.000 A 
ATOM     25  N   UNL     1       0.305  13.759  22.686  0.00  0.00    +0.000 NA
ATOM     26  N   UNL     1      -0.862  13.472  23.368  0.00  0.00    +0.000 NA
ATOM     27  C   UNL     1      -1.845  13.152  22.551  0.00  0.00    +0.000 A 
ATOM     28  S   UNL     1      -1.402  13.175  20.897  0.00  0.00    +0.000 S 
ATOM     29  C   UNL     1       2.557  14.096  20.933  0.00  0.00    +0.000 C 
ATOM     30  C   UNL     1       3.067  15.535  20.747  0.00  0.00    +0.000 C 
BRANCH  27  31
ATOM     31  C   UNL     1      -3.241  12.794  22.922  0.00  0.00    +0.000 C 
ATOM     32  F   UNL     1      -3.312  11.821  23.868  0.00  0.00    +0.000 F 
ATOM     33  F   UNL     1      -3.926  13.863  23.417  0.00  0.00    +0.000 F 
ATOM     34  F   UNL     1      -3.955  12.347  21.852  0.00  0.00    +0.000 F 
ENDBRANCH  27  31
ENDBRANCH   3  18
TORSDOF 2
ENDMDL
MODEL 4
REMARK VINA RESULT:      -7.3      7.649     10.666
REMARK  Name = 
REMARK  3 active torsions:
REMARK  status: ('A' for Active; 'I' for Inactive)
REMARK    1  A    between atoms: C_1  and  C_2
REMARK    2  A    between atoms: C_3  and  C_4
REMARK    3  A    between atoms: C_13  and  C_14
REMARK                            x       y       z     vdW  Elec       q    Type
REMARK                         _______ _______ _______ _____ _____    ______ ____
ROOT
ATOM      1  C   UNL     1       6.310  16.944  20.185  0.00  0.00    +0.000 C 
ATOM      2  C   UNL     1       5.790  15.974  19.181  0.00  0.00    +0.000 A 
ATOM      3  C   UNL     1       4.494  15.675  18.790  0.00  0.00    +0.000 A 
ATOM      4  C   UNL     1       4.665  14.650  17.828  0.00  0.00    +0.000 A 
ATOM      5  N   UNL     1       5.934  14.305  17.648  0.00  0.00    +0.000 NA
ATOM      6  N   UNL     1       6.635  15.161  18.443  0.00  0.00    +0.000 N 
ATOM      7  C   UNL     1       8.046  15.132  18.418  0.00  0.00    +0.000 A 
ATOM      8  N   UNL     1       8.809  16.027  18.969  0.00  0.00    +0.000 NA
ATOM      9  N   UNL     1      10.119  15.685  18.910  0.00  0.00    +0.000 N 
ATOM     10  C   UNL     1      11.195  16.504  19.087  0.00  0.00    +0.000 A 
ATOM     11  C   UNL     1      12.333  15.721  19.041  0.00  0.00    +0.000 A 
ATOM     12  C   UNL     1      11.923  14.380  18.840  0.00  0.00    +0.000 A 
ATOM     13  C   UNL     1      10.563  14.422  18.639  0.00  0.00    +0.000 A 
ATOM     14  C   UNL     1       9.595  13.461  18.233  0.00  0.00    +0.000 A 
ATOM     15  O   UNL     1       9.689  12.247  18.390  0.00  0.00    +0.000 OA
ATOM     16  N   UNL     1       8.504  14.067  17.677  0.00  0.00    +0.000 N 
ATOM     17  H   UNL     1       8.859  14.504  16.825  0.00  0.00    +0.000 HD
ENDROOT
BRANCH   3  18
ATOM     18  C   UNL     1       3.269  16.329  19.216  0.00  0.00    +0.000 C 
ATOM     19  O   UNL     1       3.064  17.501  18.908  0.00  0.00    +0.000 OA
ATOM     20  N   UNL     1       2.320  15.586  19.908  0.00  0.00    +0.000 N 
ATOM     21  C   UNL     1       0.991  16.159  20.121  0.00  0.00    +0.000 C 
ATOM     22  C   UNL     1      -0.111  15.124  19.829  0.00  0.00    +0.000 C 
ATOM     23  N   UNL     1       0.143  13.856  20.535  0.00  0.00    +0.000 N 
ATOM     24  C   UNL     1      -0.678  13.416  21.528  0.00  0.00    +0.000 A 
ATOM     25  N   UNL     1      -0.307  12.674  22.556  0.00  0.00    +0.000 NA
ATOM     26  N   UNL     1      -1.335  12.388  23.433  0.00  0.00    +0.000 NA
ATOM     27  C   UNL     1      -2.486  12.884  23.023  0.00  0.00    +0.000 A 
ATOM     28  S   UNL     1      -2.382  13.725  21.535  0.00  0.00    +0.000 S 
ATOM     29  C   UNL     1       1.503  13.308  20.416  0.00  0.00    +0.000 C 
ATOM     30  C   UNL     1       2.563  14.381  20.714  0.00  0.00    +0.000 C 
BRANCH  27  31
ATOM     31  C   UNL     1      -3.802  12.786  23.709  0.00  0.00    +0.000 C 
ATOM     32  F   UNL     1      -4.093  13.874  24.469  0.00  0.00    +0.000 F 
ATOM     33  F   UNL     1      -4.829  12.648  22.824  0.00  0.00    +0.000 F 
ATOM     34  F   UNL     1      -3.867  11.707  24.538  0.00  0.00    +0.000 F 
ENDBRANCH  27  31
ENDBRANCH   3  18
TORSDOF 2
ENDMDL
MODEL 5
REMARK VINA RESULT:      -7.2      3.123      3.916
REMARK  Name = 
REMARK  3 active torsions:
REMARK  status: ('A' for Active; 'I' for Inactive)
REMARK    1  A    between atoms: C_1  and  C_2
REMARK    2  A    between atoms: C_3  and  C_4
REMARK    3  A    between atoms: C_13  and  C_14
REMARK                            x       y       z     vdW  Elec       q    Type
REMARK                         _______ _______ _______ _____ _____    ______ ____
ROOT
ATOM      1  C   UNL     1      -0.935  10.629  23.089  0.00  0.00    +0.000 C 
ATOM      2  C   UNL     1      -0.776  10.719  21.610  0.00  0.00    +0.000 A 
ATOM      3  C   UNL     1      -0.059   9.932  20.722  0.00  0.00    +0.000 A 
ATOM      4  C   UNL     1      -0.285  10.554  19.470  0.00  0.00    +0.000 A 
ATOM      5  N   UNL     1      -1.039  11.644  19.554  0.00  0.00    +0.000 NA
ATOM      6  N   UNL     1      -1.388  11.715  20.868  0.00  0.00    +0.000 N 
ATOM      7  C   UNL     1      -2.282  12.722  21.294  0.00  0.00    +0.000 A 
ATOM      8  N   UNL     1      -2.841  12.760  22.466  0.00  0.00    +0.000 NA
ATOM      9  N   UNL     1      -3.546  13.902  22.656  0.00  0.00    +0.000 N 
ATOM     10  C   UNL     1      -4.498  14.136  23.604  0.00  0.00    +0.000 A 
ATOM     11  C   UNL     1      -4.881  15.460  23.499  0.00  0.00    +0.000 A 
ATOM     12  C   UNL     1      -4.122  16.045  22.455  0.00  0.00    +0.000 A 
ATOM     13  C   UNL     1      -3.406  15.019  21.883  0.00  0.00    +0.000 A 
ATOM     14  C   UNL     1      -2.598  14.911  20.716  0.00  0.00    +0.000 A 
ATOM     15  O   UNL     1      -1.994  15.836  20.181  0.00  0.00    +0.000 OA
ATOM     16  N   UNL     1      -2.534  13.618  20.280  0.00  0.00    +0.000 N 
ATOM     17  H   UNL     1      -3.490  13.394  19.997  0.00  0.00    +0.000 HD
ENDROOT
BRANCH   3  18
ATOM     18  C   UNL     1       0.674   8.713  21.014  0.00  0.00    +0.000 C 
ATOM     19  O   UNL     1       0.438   8.091  22.048  0.00  0.00    +0.000 OA
ATOM     20  N   UNL     1       1.583   8.239  20.076  0.00  0.00    +0.000 N 
ATOM     21  C   UNL     1       2.137   6.896  20.244  0.00  0.00    +0.000 C 
ATOM     22  C   UNL     1       2.134   6.125  18.912  0.00  0.00    +0.000 C 
ATOM     23  N   UNL     1       2.742   6.920  17.830  0.00  0.00    +0.000 N 
ATOM     24  C   UNL     1       3.910   6.546  17.241  0.00  0.00    +0.000 A 
ATOM     25  N   UNL     1       4.802   7.369  16.718  0.00  0.00    +0.000 NA
ATOM     26  N   UNL     1       5.913   6.729  16.205  0.00  0.00    +0.000 NA
ATOM     27  C   UNL     1       5.819   5.418  16.308  0.00  0.00    +0.000 A 
ATOM     28  S   UNL     1       4.361   4.887  17.031  0.00  0.00    +0.000 S 
ATOM     29  C   UNL     1       2.270   8.307  17.701  0.00  0.00    +0.000 C 
ATOM     30  C   UNL     1       2.291   9.030  19.058  0.00  0.00    +0.000 C 
BRANCH  27  31
ATOM     31  C   UNL     1       6.822   4.408  15.875  0.00  0.00    +0.000 C 
ATOM     32  F   UNL     1       7.761   4.145  16.822  0.00  0.00    +0.000 F 
ATOM     33  F   UNL     1       6.243   3.215  15.565  0.00  0.00    +0.000 F 
ATOM     34  F   UNL     1       7.497   4.804  14.760  0.00  0.00    +0.000 F 
ENDBRANCH  27  31
ENDBRANCH   3  18
TORSDOF 2
ENDMDL
MODEL 6
REMARK VINA RESULT:      -7.2      2.343      2.728
REMARK  Name = 
REMARK  3 active torsions:
REMARK  status: ('A' for Active; 'I' for Inactive)
REMARK    1  A    between atoms: C_1  and  C_2
REMARK    2  A    between atoms: C_3  and  C_4
REMARK    3  A    between atoms: C_13  and  C_14
REMARK                            x       y       z     vdW  Elec       q    Type
REMARK                         _______ _______ _______ _____ _____    ______ ____
ROOT
ATOM      1  C   UNL     1      -3.545  12.059  19.345  0.00  0.00    +0.000 C 
ATOM      2  C   UNL     1      -2.433  12.168  20.331  0.00  0.00    +0.000 A 
ATOM      3  C   UNL     1      -1.080  11.891  20.213  0.00  0.00    +0.000 A 
ATOM      4  C   UNL     1      -0.571  12.166  21.505  0.00  0.00    +0.000 A 
ATOM      5  N   UNL     1      -1.505  12.545  22.369  0.00  0.00    +0.000 NA
ATOM      6  N   UNL     1      -2.648  12.600  21.630  0.00  0.00    +0.000 N 
ATOM      7  C   UNL     1      -3.838  13.068  22.228  0.00  0.00    +0.000 A 
ATOM      8  N   UNL     1      -4.924  13.356  21.576  0.00  0.00    +0.000 NA
ATOM      9  N   UNL     1      -5.952  13.654  22.407  0.00  0.00    +0.000 N 
ATOM     10  C   UNL     1      -7.112  14.299  22.088  0.00  0.00    +0.000 A 
ATOM     11  C   UNL     1      -7.917  14.299  23.212  0.00  0.00    +0.000 A 
ATOM     12  C   UNL     1      -7.218  13.620  24.240  0.00  0.00    +0.000 A 
ATOM     13  C   UNL     1      -5.965  13.352  23.739  0.00  0.00    +0.000 A 
ATOM     14  C   UNL     1      -4.762  12.848  24.308  0.00  0.00    +0.000 A 
ATOM     15  O   UNL     1      -4.691  12.120  25.293  0.00  0.00    +0.000 OA
ATOM     16  N   UNL     1      -3.673  13.243  23.583  0.00  0.00    +0.000 N 
ATOM     17  H   UNL     1      -3.646  14.259  23.691  0.00  0.00    +0.000 HD
ENDROOT
BRANCH   3  18
ATOM     18  C   UNL     1      -0.360  11.496  19.015  0.00  0.00    +0.000 C 
ATOM     19  O   UNL     1      -0.271  12.279  18.071  0.00  0.00    +0.000 OA
ATOM     20  N   UNL     1       0.274  10.260  18.993  0.00  0.00    +0.000 N 
ATOM     21  C   UNL     1       1.200   9.959  17.902  0.00  0.00    +0.000 C 
ATOM     22  C   UNL     1       2.488   9.306  18.433  0.00  0.00    +0.000 C 
ATOM     23  N   UNL     1       2.187   8.174  19.327  0.00  0.00    +0.000 N 
ATOM     24  C   UNL     1       2.509   6.895  18.989  0.00  0.00    +0.000 A 
ATOM     25  N   UNL     1       1.850   5.814  19.369  0.00  0.00    +0.000 NA
ATOM     26  N   UNL     1       2.375   4.640  18.864  0.00  0.00    +0.000 NA
ATOM     27  C   UNL     1       3.458   4.853  18.144  0.00  0.00    +0.000 A 
ATOM     28  S   UNL     1       3.907   6.502  18.045  0.00  0.00    +0.000 S 
ATOM     29  C   UNL     1       1.185   8.423  20.375  0.00  0.00    +0.000 C 
ATOM     30  C   UNL     1      -0.079   9.076  19.792  0.00  0.00    +0.000 C 
BRANCH  27  31
ATOM     31  C   UNL     1       4.282   3.834  17.438  0.00  0.00    +0.000 C 
ATOM     32  F   UNL     1       5.569   4.225  17.248  0.00  0.00    +0.000 F 
ATOM     33  F   UNL     1       4.333   2.658  18.124  0.00  0.00    +0.000 F 
ATOM     34  F   UNL     1       3.781   3.536  16.207  0.00  0.00    +0.000 F 
ENDBRANCH  27  31
ENDBRANCH   3  18
TORSDOF 2
ENDMDL
MODEL 7
REMARK VINA RESULT:      -7.2      1.174      1.348
REMARK  Name = 
REMARK  3 active torsions:
REMARK  status: ('A' for Active; 'I' for Inactive)
REMARK    1  A    between atoms: C_1  and  C_2
REMARK    2  A    between atoms: C_3  and  C_4
REMARK    3  A    between atoms: C_13  and  C_14
REMARK                            x       y       z     vdW  Elec       q    Type
REMARK                         _______ _______ _______ _____ _____    ______ ____
ROOT
ATOM      1  C   UNL     1      -2.943  12.267  19.380  0.00  0.00    +0.000 C 
ATOM      2  C   UNL     1      -1.710  12.428  20.201  0.00  0.00    +0.000 A 
ATOM      3  C   UNL     1      -0.437  11.902  20.045  0.00  0.00    +0.000 A 
ATOM      4  C   UNL     1       0.268  12.400  21.167  0.00  0.00    +0.000 A 
ATOM      5  N   UNL     1      -0.484  13.137  21.975  0.00  0.00    +0.000 NA
ATOM      6  N   UNL     1      -1.692  13.201  21.351  0.00  0.00    +0.000 N 
ATOM      7  C   UNL     1      -2.717  14.001  21.902  0.00  0.00    +0.000 A 
ATOM      8  N   UNL     1      -3.825  14.298  21.293  0.00  0.00    +0.000 NA
ATOM      9  N   UNL     1      -4.685  14.966  22.100  0.00  0.00    +0.000 N 
ATOM     10  C   UNL     1      -5.771  15.700  21.722  0.00  0.00    +0.000 A 
ATOM     11  C   UNL     1      -6.417  16.119  22.870  0.00  0.00    +0.000 A 
ATOM     12  C   UNL     1      -5.697  15.609  23.978  0.00  0.00    +0.000 A 
ATOM     13  C   UNL     1      -4.570  15.013  23.460  0.00  0.00    +0.000 A 
ATOM     14  C   UNL     1      -3.388  14.470  24.037  0.00  0.00    +0.000 A 
ATOM     15  O   UNL     1      -3.296  14.010  25.171  0.00  0.00    +0.000 OA
ATOM     16  N   UNL     1      -2.355  14.478  23.141  0.00  0.00    +0.000 N 
ATOM     17  H   UNL     1      -2.171  15.468  22.971  0.00  0.00    +0.000 HD
ENDROOT
BRANCH   3  18
ATOM     18  C   UNL     1       0.059  11.103  18.938  0.00  0.00    +0.000 C 
ATOM     19  O   UNL     1       0.130  11.594  17.814  0.00  0.00    +0.000 OA
ATOM     20  N   UNL     1       0.511   9.814  19.195  0.00  0.00    +0.000 N 
ATOM     21  C   UNL     1       1.236   9.097  18.147  0.00  0.00    +0.000 C 
ATOM     22  C   UNL     1       2.482   8.395  18.717  0.00  0.00    +0.000 C 
ATOM     23  N   UNL     1       2.149   7.592  19.907  0.00  0.00    +0.000 N 
ATOM     24  C   UNL     1       2.247   6.235  19.900  0.00  0.00    +0.000 A 
ATOM     25  N   UNL     1       1.502   5.411  20.616  0.00  0.00    +0.000 NA
ATOM     26  N   UNL     1       1.791   4.076  20.403  0.00  0.00    +0.000 NA
ATOM     27  C   UNL     1       2.790   3.916  19.557  0.00  0.00    +0.000 A 
ATOM     28  S   UNL     1       3.443   5.389  18.976  0.00  0.00    +0.000 S 
ATOM     29  C   UNL     1       1.337   8.262  20.934  0.00  0.00    +0.000 C 
ATOM     30  C   UNL     1       0.108   8.947  20.312  0.00  0.00    +0.000 C 
BRANCH  27  31
ATOM     31  C   UNL     1       3.368   2.630  19.082  0.00  0.00    +0.000 C 
ATOM     32  F   UNL     1       2.481   1.601  19.112  0.00  0.00    +0.000 F 
ATOM     33  F   UNL     1       3.815   2.717  17.798  0.00  0.00    +0.000 F 
ATOM     34  F   UNL     1       4.436   2.243  19.832  0.00  0.00    +0.000 F 
ENDBRANCH  27  31
ENDBRANCH   3  18
TORSDOF 2
ENDMDL
MODEL 8
REMARK VINA RESULT:      -7.1      1.800      2.576
REMARK  Name = 
REMARK  3 active torsions:
REMARK  status: ('A' for Active; 'I' for Inactive)
REMARK    1  A    between atoms: C_1  and  C_2
REMARK    2  A    between atoms: C_3  and  C_4
REMARK    3  A    between atoms: C_13  and  C_14
REMARK                            x       y       z     vdW  Elec       q    Type
REMARK                         _______ _______ _______ _____ _____    ______ ____
ROOT
ATOM      1  C   UNL     1       0.037  14.466  21.082  0.00  0.00    +0.000 C 
ATOM      2  C   UNL     1      -1.075  13.639  21.630  0.00  0.00    +0.000 A 
ATOM      3  C   UNL     1      -1.745  12.547  21.101  0.00  0.00    +0.000 A 
ATOM      4  C   UNL     1      -2.711  12.238  22.089  0.00  0.00    +0.000 A 
ATOM      5  N   UNL     1      -2.685  13.067  23.125  0.00  0.00    +0.000 NA
ATOM      6  N   UNL     1      -1.639  13.900  22.869  0.00  0.00    +0.000 N 
ATOM      7  C   UNL     1      -1.265  14.861  23.833  0.00  0.00    +0.000 A 
ATOM      8  N   UNL     1      -0.171  15.560  23.788  0.00  0.00    +0.000 NA
ATOM      9  N   UNL     1      -0.128  16.500  24.763  0.00  0.00    +0.000 N 
ATOM     10  C   UNL     1       0.970  17.175  25.212  0.00  0.00    +0.000 A 
ATOM     11  C   UNL     1       0.542  18.107  26.139  0.00  0.00    +0.000 A 
ATOM     12  C   UNL     1      -0.866  17.993  26.242  0.00  0.00    +0.000 A 
ATOM     13  C   UNL     1      -1.220  16.909  25.474  0.00  0.00    +0.000 A 
ATOM     14  C   UNL     1      -2.431  16.184  25.288  0.00  0.00    +0.000 A 
ATOM     15  O   UNL     1      -3.562  16.635  25.446  0.00  0.00    +0.000 OA
ATOM     16  N   UNL     1      -2.181  14.911  24.859  0.00  0.00    +0.000 N 
ATOM     17  H   UNL     1      -1.689  14.469  25.638  0.00  0.00    +0.000 HD
ENDROOT
BRANCH   3  18
ATOM     18  C   UNL     1      -1.452  11.846  19.863  0.00  0.00    +0.000 C 
ATOM     19  O   UNL     1      -1.834  12.314  18.792  0.00  0.00    +0.000 OA
ATOM     20  N   UNL     1      -0.682  10.691  19.915  0.00  0.00    +0.000 N 
ATOM     21  C   UNL     1      -0.176  10.121  18.666  0.00  0.00    +0.000 C 
ATOM     22  C   UNL     1       1.303   9.718  18.800  0.00  0.00    +0.000 C 
ATOM     23  N   UNL     1       1.528   8.892  20.000  0.00  0.00    +0.000 N 
ATOM     24  C   UNL     1       1.904   7.587  19.905  0.00  0.00    +0.000 A 
ATOM     25  N   UNL     1       1.607   6.640  20.777  0.00  0.00    +0.000 NA
ATOM     26  N   UNL     1       2.092   5.394  20.429  0.00  0.00    +0.000 NA
ATOM     27  C   UNL     1       2.795   5.432  19.314  0.00  0.00    +0.000 A 
ATOM     28  S   UNL     1       2.911   6.996  18.626  0.00  0.00    +0.000 S 
ATOM     29  C   UNL     1       0.945   9.396  21.253  0.00  0.00    +0.000 C 
ATOM     30  C   UNL     1      -0.531   9.785  21.063  0.00  0.00    +0.000 C 
BRANCH  27  31
ATOM     31  C   UNL     1       3.459   4.289  18.632  0.00  0.00    +0.000 C 
ATOM     32  F   UNL     1       2.776   3.121  18.755  0.00  0.00    +0.000 F 
ATOM     33  F   UNL     1       3.606   4.510  17.295  0.00  0.00    +0.000 F 
ATOM     34  F   UNL     1       4.710   4.060  19.119  0.00  0.00    +0.000 F 
ENDBRANCH  27  31
ENDBRANCH   3  18
TORSDOF 2
ENDMDL
MODEL 9
REMARK VINA RESULT:      -7.1      6.201     12.062
REMARK  Name = 
REMARK  3 active torsions:
REMARK  status: ('A' for Active; 'I' for Inactive)
REMARK    1  A    between atoms: C_1  and  C_2
REMARK    2  A    between atoms: C_3  and  C_4
REMARK    3  A    between atoms: C_13  and  C_14
REMARK                            x       y       z     vdW  Elec       q    Type
REMARK                         _______ _______ _______ _____ _____    ______ ____
ROOT
ATOM      1  C   UNL     1       2.868   4.797  16.695  0.00  0.00    +0.000 C 
ATOM      2  C   UNL     1       4.063   5.031  17.555  0.00  0.00    +0.000 A 
ATOM      3  C   UNL     1       4.168   5.421  18.881  0.00  0.00    +0.000 A 
ATOM      4  C   UNL     1       5.566   5.497  19.094  0.00  0.00    +0.000 A 
ATOM      5  N   UNL     1       6.279   5.219  18.009  0.00  0.00    +0.000 NA
ATOM      6  N   UNL     1       5.352   4.877  17.072  0.00  0.00    +0.000 N 
ATOM      7  C   UNL     1       5.781   4.425  15.805  0.00  0.00    +0.000 A 
ATOM      8  N   UNL     1       5.004   3.884  14.916  0.00  0.00    +0.000 NA
ATOM      9  N   UNL     1       5.646   3.666  13.743  0.00  0.00    +0.000 N 
ATOM     10  C   UNL     1       5.255   2.845  12.727  0.00  0.00    +0.000 A 
ATOM     11  C   UNL     1       6.151   3.005  11.686  0.00  0.00    +0.000 A 
ATOM     12  C   UNL     1       7.109   3.968  12.090  0.00  0.00    +0.000 A 
ATOM     13  C   UNL     1       6.833   4.253  13.407  0.00  0.00    +0.000 A 
ATOM     14  C   UNL     1       7.505   4.998  14.416  0.00  0.00    +0.000 A 
ATOM     15  O   UNL     1       8.278   5.930  14.217  0.00  0.00    +0.000 OA
ATOM     16  N   UNL     1       7.142   4.574  15.664  0.00  0.00    +0.000 N 
ATOM     17  H   UNL     1       7.493   3.616  15.722  0.00  0.00    +0.000 HD
ENDROOT
BRANCH   3  18
ATOM     18  C   UNL     1       3.090   5.617  19.833  0.00  0.00    +0.000 C 
ATOM     19  O   UNL     1       2.934   4.816  20.752  0.00  0.00    +0.000 OA
ATOM     20  N   UNL     1       2.297   6.753  19.720  0.00  0.00    +0.000 N 
ATOM     21  C   UNL     1       1.379   7.085  20.809  0.00  0.00    +0.000 C 
ATOM     22  C   UNL     1       1.444   8.585  21.151  0.00  0.00    +0.000 C 
ATOM     23  N   UNL     1       1.307   9.417  19.942  0.00  0.00    +0.000 N 
ATOM     24  C   UNL     1       0.226  10.222  19.750  0.00  0.00    +0.000 A 
ATOM     25  N   UNL     1      -0.284  10.551  18.577  0.00  0.00    +0.000 NA
ATOM     26  N   UNL     1      -1.399  11.362  18.665  0.00  0.00    +0.000 NA
ATOM     27  C   UNL     1      -1.685  11.673  19.914  0.00  0.00    +0.000 A 
ATOM     28  S   UNL     1      -0.604  10.998  21.057  0.00  0.00    +0.000 S 
ATOM     29  C   UNL     1       2.152   9.043  18.798  0.00  0.00    +0.000 C 
ATOM     30  C   UNL     1       2.052   7.538  18.501  0.00  0.00    +0.000 C 
BRANCH  27  31
ATOM     31  C   UNL     1      -2.814  12.514  20.394  0.00  0.00    +0.000 C 
ATOM     32  F   UNL     1      -2.554  13.847  20.333  0.00  0.00    +0.000 F 
ATOM     33  F   UNL     1      -3.947  12.310  19.665  0.00  0.00    +0.000 F 
ATOM     34  F   UNL     1      -3.141  12.242  21.688  0.00  0.00    +0.000 F 
ENDBRANCH  27  31
ENDBRANCH   3  18
TORSDOF 2
ENDMDL
