MODEL 1
REMARK VINA RESULT:      -7.3      0.000      0.000
REMARK  Name = 
REMARK  5 active torsions:
REMARK  status: ('A' for Active; 'I' for Inactive)
REMARK    1  A    between atoms: C_1  and  C_2
REMARK    2  A    between atoms: N_12  and  C_13
REMARK    3  A    between atoms: C_13  and  C_14
REMARK    4  A    between atoms: N_16  and  C_17
REMARK    5  A    between atoms: N_16  and  C_18
REMARK                            x       y       z     vdW  Elec       q    Type
REMARK                         _______ _______ _______ _____ _____    ______ ____
ROOT
ATOM      1  C   UNL     1       7.964   7.204  17.872  0.00  0.00    +0.000 C 
ATOM      2  C   UNL     1       6.997   6.102  18.119  0.00  0.00    +0.000 A 
ATOM      3  C   UNL     1       6.449   5.339  17.119  0.00  0.00    +0.000 A 
ATOM      4  N   UNL     1       5.499   4.408  17.321  0.00  0.00    +0.000 NA
ATOM      5  C   UNL     1       5.066   4.212  18.578  0.00  0.00    +0.000 A 
ATOM      6  N   UNL     1       3.904   3.480  18.760  0.00  0.00    +0.000 N 
ATOM      7  C   UNL     1       3.722   2.365  17.832  0.00  0.00    +0.000 C 
ATOM      8  C   UNL     1       2.233   2.133  17.588  0.00  0.00    +0.000 C 
ATOM      9  C   UNL     1       1.476   1.954  18.896  0.00  0.00    +0.000 C 
ATOM     10  C   UNL     1       1.788   3.050  19.909  0.00  0.00    +0.000 C 
ATOM     11  C   UNL     1       1.241   4.437  19.548  0.00  0.00    +0.000 C 
ATOM     12  N   UNL     1       1.953   5.372  20.442  0.00  0.00    +0.000 NA
ATOM     13  C   UNL     1       3.140   4.633  20.936  0.00  0.00    +0.000 C 
ATOM     14  C   UNL     1       3.286   3.346  20.095  0.00  0.00    +0.000 C 
ATOM     15  N   UNL     1       5.637   4.821  19.622  0.00  0.00    +0.000 NA
ATOM     16  C   UNL     1       6.551   5.779  19.376  0.00  0.00    +0.000 A 
ENDROOT
BRANCH  12  17
ATOM     17  C   UNL     1       2.341   6.600  19.707  0.00  0.00    +0.000 C 
BRANCH  17  18
ATOM     18  C   UNL     1       1.618   7.858  20.224  0.00  0.00    +0.000 C 
ATOM     19  O   UNL     1       1.279   7.928  21.409  0.00  0.00    +0.000 OA
ATOM     20  N   UNL     1       1.396   8.916  19.344  0.00  0.00    +0.000 N 
ATOM     21  C   UNL     1       1.810   8.940  17.950  0.00  0.00    +0.000 C 
ATOM     22  C   UNL     1       0.620  10.058  19.794  0.00  0.00    +0.000 C 
ENDBRANCH  17  18
ENDBRANCH  12  17
TORSDOF 2
ENDMDL
MODEL 2
REMARK VINA RESULT:      -6.4      1.686      4.742
REMARK  Name = 
REMARK  5 active torsions:
REMARK  status: ('A' for Active; 'I' for Inactive)
REMARK    1  A    between atoms: C_1  and  C_2
REMARK    2  A    between atoms: N_12  and  C_13
REMARK    3  A    between atoms: C_13  and  C_14
REMARK    4  A    between atoms: N_16  and  C_17
REMARK    5  A    between atoms: N_16  and  C_18
REMARK                            x       y       z     vdW  Elec       q    Type
REMARK                         _______ _______ _______ _____ _____    ______ ____
ROOT
ATOM      1  C   UNL     1       1.458   1.718  19.331  0.00  0.00    +0.000 C 
ATOM      2  C   UNL     1       2.706   2.430  18.949  0.00  0.00    +0.000 A 
ATOM      3  C   UNL     1       3.761   2.619  19.806  0.00  0.00    +0.000 A 
ATOM      4  N   UNL     1       4.851   3.347  19.505  0.00  0.00    +0.000 NA
ATOM      5  C   UNL     1       4.912   3.918  18.289  0.00  0.00    +0.000 A 
ATOM      6  N   UNL     1       5.872   4.891  18.074  0.00  0.00    +0.000 N 
ATOM      7  C   UNL     1       7.151   4.659  18.744  0.00  0.00    +0.000 C 
ATOM      8  C   UNL     1       7.805   5.995  19.089  0.00  0.00    +0.000 C 
ATOM      9  C   UNL     1       7.923   6.889  17.862  0.00  0.00    +0.000 C 
ATOM     10  C   UNL     1       6.613   7.006  17.092  0.00  0.00    +0.000 C 
ATOM     11  C   UNL     1       5.510   7.794  17.810  0.00  0.00    +0.000 C 
ATOM     12  N   UNL     1       4.271   7.470  17.076  0.00  0.00    +0.000 NA
ATOM     13  C   UNL     1       4.567   6.240  16.305  0.00  0.00    +0.000 C 
ATOM     14  C   UNL     1       5.908   5.666  16.817  0.00  0.00    +0.000 C 
ATOM     15  N   UNL     1       3.989   3.677  17.353  0.00  0.00    +0.000 NA
ATOM     16  C   UNL     1       2.890   2.983  17.707  0.00  0.00    +0.000 A 
ENDROOT
BRANCH  12  17
ATOM     17  C   UNL     1       3.146   7.266  18.020  0.00  0.00    +0.000 C 
BRANCH  17  18
ATOM     18  C   UNL     1       2.264   8.519  18.179  0.00  0.00    +0.000 C 
ATOM     19  O   UNL     1       2.136   9.303  17.234  0.00  0.00    +0.000 OA
ATOM     20  N   UNL     1       1.590   8.721  19.382  0.00  0.00    +0.000 N 
ATOM     21  C   UNL     1       1.641   7.822  20.525  0.00  0.00    +0.000 C 
ATOM     22  C   UNL     1       0.846   9.952  19.577  0.00  0.00    +0.000 C 
ENDBRANCH  17  18
ENDBRANCH  12  17
TORSDOF 2
ENDMDL
MODEL 3
REMARK VINA RESULT:      -6.1      9.518     10.872
REMARK  Name = 
REMARK  5 active torsions:
REMARK  status: ('A' for Active; 'I' for Inactive)
REMARK    1  A    between atoms: C_1  and  C_2
REMARK    2  A    between atoms: N_12  and  C_13
REMARK    3  A    between atoms: C_13  and  C_14
REMARK    4  A    between atoms: N_16  and  C_17
REMARK    5  A    between atoms: N_16  and  C_18
REMARK                            x       y       z     vdW  Elec       q    Type
REMARK                         _______ _______ _______ _____ _____    ______ ____
ROOT
ATOM      1  C   UNL     1       4.748  16.336  18.780  0.00  0.00    +0.000 C 
ATOM      2  C   UNL     1       6.083  15.698  18.630  0.00  0.00    +0.000 A 
ATOM      3  C   UNL     1       6.334  14.666  17.762  0.00  0.00    +0.000 A 
ATOM      4  N   UNL     1       7.510  14.016  17.690  0.00  0.00    +0.000 NA
ATOM      5  C   UNL     1       8.498  14.407  18.514  0.00  0.00    +0.000 A 
ATOM      6  N   UNL     1       9.596  13.575  18.655  0.00  0.00    +0.000 N 
ATOM      7  C   UNL     1      10.007  12.880  17.437  0.00  0.00    +0.000 C 
ATOM      8  C   UNL     1      10.630  11.533  17.795  0.00  0.00    +0.000 C 
ATOM      9  C   UNL     1      11.757  11.692  18.804  0.00  0.00    +0.000 C 
ATOM     10  C   UNL     1      11.355  12.542  20.004  0.00  0.00    +0.000 C 
ATOM     11  C   UNL     1      10.334  11.889  20.944  0.00  0.00    +0.000 C 
ATOM     12  N   UNL     1       9.833  12.993  21.788  0.00  0.00    +0.000 NA
ATOM     13  C   UNL     1      10.190  14.242  21.074  0.00  0.00    +0.000 C 
ATOM     14  C   UNL     1      10.650  13.863  19.649  0.00  0.00    +0.000 C 
ATOM     15  N   UNL     1       8.376  15.484  19.296  0.00  0.00    +0.000 NA
ATOM     16  C   UNL     1       7.170  16.079  19.376  0.00  0.00    +0.000 A 
ENDROOT
BRANCH  12  17
ATOM     17  C   UNL     1       8.368  12.875  21.983  0.00  0.00    +0.000 C 
BRANCH  17  18
ATOM     18  C   UNL     1       7.993  12.340  23.379  0.00  0.00    +0.000 C 
ATOM     19  O   UNL     1       7.969  11.123  23.583  0.00  0.00    +0.000 OA
ATOM     20  N   UNL     1       7.726  13.250  24.400  0.00  0.00    +0.000 N 
ATOM     21  C   UNL     1       7.785  14.697  24.260  0.00  0.00    +0.000 C 
ATOM     22  C   UNL     1       7.267  12.756  25.685  0.00  0.00    +0.000 C 
ENDBRANCH  17  18
ENDBRANCH  12  17
TORSDOF 2
ENDMDL
MODEL 4
REMARK VINA RESULT:      -6.1      2.344      5.096
REMARK  Name = 
REMARK  5 active torsions:
REMARK  status: ('A' for Active; 'I' for Inactive)
REMARK    1  A    between atoms: C_1  and  C_2
REMARK    2  A    between atoms: N_12  and  C_13
REMARK    3  A    between atoms: C_13  and  C_14
REMARK    4  A    between atoms: N_16  and  C_17
REMARK    5  A    between atoms: N_16  and  C_18
REMARK                            x       y       z     vdW  Elec       q    Type
REMARK                         _______ _______ _______ _____ _____    ______ ____
ROOT
ATOM      1  C   UNL     1       2.482   9.761  17.819  0.00  0.00    +0.000 C 
ATOM      2  C   UNL     1       2.227   8.388  18.331  0.00  0.00    +0.000 A 
ATOM      3  C   UNL     1       2.031   8.101  19.658  0.00  0.00    +0.000 A 
ATOM      4  N   UNL     1       1.900   6.854  20.144  0.00  0.00    +0.000 NA
ATOM      5  C   UNL     1       1.957   5.829  19.275  0.00  0.00    +0.000 A 
ATOM      6  N   UNL     1       2.113   4.551  19.784  0.00  0.00    +0.000 N 
ATOM      7  C   UNL     1       1.412   4.294  21.041  0.00  0.00    +0.000 C 
ATOM      8  C   UNL     1       2.184   3.265  21.864  0.00  0.00    +0.000 C 
ATOM      9  C   UNL     1       2.456   2.002  21.060  0.00  0.00    +0.000 C 
ATOM     10  C   UNL     1       3.057   2.296  19.690  0.00  0.00    +0.000 C 
ATOM     11  C   UNL     1       4.494   2.832  19.717  0.00  0.00    +0.000 C 
ATOM     12  N   UNL     1       4.724   3.376  18.364  0.00  0.00    +0.000 NA
ATOM     13  C   UNL     1       3.379   3.559  17.768  0.00  0.00    +0.000 C 
ATOM     14  C   UNL     1       2.332   3.394  18.892  0.00  0.00    +0.000 C 
ATOM     15  N   UNL     1       2.016   6.030  17.955  0.00  0.00    +0.000 NA
ATOM     16  C   UNL     1       2.194   7.289  17.511  0.00  0.00    +0.000 A 
ENDROOT
BRANCH  12  17
ATOM     17  C   UNL     1       5.467   4.656  18.438  0.00  0.00    +0.000 C 
BRANCH  17  18
ATOM     18  C   UNL     1       6.674   4.702  17.481  0.00  0.00    +0.000 C 
ATOM     19  O   UNL     1       7.777   4.302  17.865  0.00  0.00    +0.000 OA
ATOM     20  N   UNL     1       6.484   5.158  16.178  0.00  0.00    +0.000 N 
ATOM     21  C   UNL     1       5.211   5.595  15.627  0.00  0.00    +0.000 C 
ATOM     22  C   UNL     1       7.636   5.306  15.306  0.00  0.00    +0.000 C 
ENDBRANCH  17  18
ENDBRANCH  12  17
TORSDOF 2
ENDMDL
MODEL 5
REMARK VINA RESULT:      -5.6      9.419     11.119
REMARK  Name = 
REMARK  5 active torsions:
REMARK  status: ('A' for Active; 'I' for Inactive)
REMARK    1  A    between atoms: C_1  and  C_2
REMARK    2  A    between atoms: N_12  and  C_13
REMARK    3  A    between atoms: C_13  and  C_14
REMARK    4  A    between atoms: N_16  and  C_17
REMARK    5  A    between atoms: N_16  and  C_18
REMARK                            x       y       z     vdW  Elec       q    Type
REMARK                         _______ _______ _______ _____ _____    ______ ____
ROOT
ATOM      1  C   UNL     1       4.782  16.678  18.691  0.00  0.00    +0.000 C 
ATOM      2  C   UNL     1       6.058  15.935  18.514  0.00  0.00    +0.000 A 
ATOM      3  C   UNL     1       6.153  14.745  17.837  0.00  0.00    +0.000 A 
ATOM      4  N   UNL     1       7.280  14.016  17.757  0.00  0.00    +0.000 NA
ATOM      5  C   UNL     1       8.380  14.485  18.371  0.00  0.00    +0.000 A 
ATOM      6  N   UNL     1       9.449  13.622  18.542  0.00  0.00    +0.000 N 
ATOM      7  C   UNL     1       9.673  12.687  17.441  0.00  0.00    +0.000 C 
ATOM      8  C   UNL     1      10.275  11.391  17.977  0.00  0.00    +0.000 C 
ATOM      9  C   UNL     1      11.527  11.658  18.801  0.00  0.00    +0.000 C 
ATOM     10  C   UNL     1      11.316  12.741  19.854  0.00  0.00    +0.000 C 
ATOM     11  C   UNL     1      10.393  12.344  21.012  0.00  0.00    +0.000 C 
ATOM     12  N   UNL     1      10.052  13.615  21.681  0.00  0.00    +0.000 NA
ATOM     13  C   UNL     1      10.371  14.684  20.704  0.00  0.00    +0.000 C 
ATOM     14  C   UNL     1      10.632  14.017  19.335  0.00  0.00    +0.000 C 
ATOM     15  N   UNL     1       8.405  15.694  18.940  0.00  0.00    +0.000 NA
ATOM     16  C   UNL     1       7.246  16.373  19.042  0.00  0.00    +0.000 A 
ENDROOT
BRANCH  12  17
ATOM     17  C   UNL     1       8.619  13.634  22.061  0.00  0.00    +0.000 C 
BRANCH  17  18
ATOM     18  C   UNL     1       8.401  13.978  23.548  0.00  0.00    +0.000 C 
ATOM     19  O   UNL     1       8.458  15.153  23.920  0.00  0.00    +0.000 OA
ATOM     20  N   UNL     1       8.100  12.949  24.439  0.00  0.00    +0.000 N 
ATOM     21  C   UNL     1       7.960  11.548  24.077  0.00  0.00    +0.000 C 
ATOM     22  C   UNL     1       8.001  13.250  25.857  0.00  0.00    +0.000 C 
ENDBRANCH  17  18
ENDBRANCH  12  17
TORSDOF 2
ENDMDL
MODEL 6
REMARK VINA RESULT:      -5.6      1.487      1.888
REMARK  Name = 
REMARK  5 active torsions:
REMARK  status: ('A' for Active; 'I' for Inactive)
REMARK    1  A    between atoms: C_1  and  C_2
REMARK    2  A    between atoms: N_12  and  C_13
REMARK    3  A    between atoms: C_13  and  C_14
REMARK    4  A    between atoms: N_16  and  C_17
REMARK    5  A    between atoms: N_16  and  C_18
REMARK                            x       y       z     vdW  Elec       q    Type
REMARK                         _______ _______ _______ _____ _____    ______ ____
ROOT
ATOM      1  C   UNL     1       7.364   5.181  15.254  0.00  0.00    +0.000 C 
ATOM      2  C   UNL     1       6.369   4.581  16.181  0.00  0.00    +0.000 A 
ATOM      3  C   UNL     1       5.380   3.722  15.776  0.00  0.00    +0.000 A 
ATOM      4  N   UNL     1       4.414   3.253  16.587  0.00  0.00    +0.000 NA
ATOM      5  C   UNL     1       4.425   3.647  17.873  0.00  0.00    +0.000 A 
ATOM      6  N   UNL     1       3.293   3.411  18.635  0.00  0.00    +0.000 N 
ATOM      7  C   UNL     1       2.604   2.154  18.350  0.00  0.00    +0.000 C 
ATOM      8  C   UNL     1       1.108   2.313  18.611  0.00  0.00    +0.000 C 
ATOM      9  C   UNL     1       0.842   2.838  20.015  0.00  0.00    +0.000 C 
ATOM     10  C   UNL     1       1.677   4.069  20.349  0.00  0.00    +0.000 C 
ATOM     11  C   UNL     1       1.290   5.339  19.582  0.00  0.00    +0.000 C 
ATOM     12  N   UNL     1       2.423   6.265  19.781  0.00  0.00    +0.000 NA
ATOM     13  C   UNL     1       3.559   5.423  20.227  0.00  0.00    +0.000 C 
ATOM     14  C   UNL     1       3.172   3.943  20.008  0.00  0.00    +0.000 C 
ATOM     15  N   UNL     1       5.424   4.378  18.376  0.00  0.00    +0.000 NA
ATOM     16  C   UNL     1       6.346   4.867  17.524  0.00  0.00    +0.000 A 
ENDROOT
BRANCH  12  17
ATOM     17  C   UNL     1       2.736   6.982  18.522  0.00  0.00    +0.000 C 
BRANCH  17  18
ATOM     18  C   UNL     1       1.980   8.318  18.393  0.00  0.00    +0.000 C 
ATOM     19  O   UNL     1       1.807   8.820  17.279  0.00  0.00    +0.000 OA
ATOM     20  N   UNL     1       1.466   8.916  19.543  0.00  0.00    +0.000 N 
ATOM     21  C   UNL     1       1.576   8.367  20.885  0.00  0.00    +0.000 C 
ATOM     22  C   UNL     1       0.849  10.226  19.443  0.00  0.00    +0.000 C 
ENDBRANCH  17  18
ENDBRANCH  12  17
TORSDOF 2
ENDMDL
MODEL 7
REMARK VINA RESULT:      -5.5      1.757      2.161
REMARK  Name = 
REMARK  5 active torsions:
REMARK  status: ('A' for Active; 'I' for Inactive)
REMARK    1  A    between atoms: C_1  and  C_2
REMARK    2  A    between atoms: N_12  and  C_13
REMARK    3  A    between atoms: C_13  and  C_14
REMARK    4  A    between atoms: N_16  and  C_17
REMARK    5  A    between atoms: N_16  and  C_18
REMARK                            x       y       z     vdW  Elec       q    Type
REMARK                         _______ _______ _______ _____ _____    ______ ____
ROOT
ATOM      1  C   UNL     1       6.786   5.177  14.648  0.00  0.00    +0.000 C 
ATOM      2  C   UNL     1       6.049   4.632  15.819  0.00  0.00    +0.000 A 
ATOM      3  C   UNL     1       5.262   3.510  15.761  0.00  0.00    +0.000 A 
ATOM      4  N   UNL     1       4.513   3.066  16.785  0.00  0.00    +0.000 NA
ATOM      5  C   UNL     1       4.543   3.760  17.936  0.00  0.00    +0.000 A 
ATOM      6  N   UNL     1       3.573   3.490  18.887  0.00  0.00    +0.000 N 
ATOM      7  C   UNL     1       3.181   2.085  18.990  0.00  0.00    +0.000 C 
ATOM      8  C   UNL     1       1.720   1.985  19.421  0.00  0.00    +0.000 C 
ATOM      9  C   UNL     1       1.462   2.775  20.696  0.00  0.00    +0.000 C 
ATOM     10  C   UNL     1       2.005   4.197  20.625  0.00  0.00    +0.000 C 
ATOM     11  C   UNL     1       1.259   5.126  19.659  0.00  0.00    +0.000 C 
ATOM     12  N   UNL     1       2.151   6.289  19.482  0.00  0.00    +0.000 NA
ATOM     13  C   UNL     1       3.490   5.843  19.936  0.00  0.00    +0.000 C 
ATOM     14  C   UNL     1       3.450   4.309  20.109  0.00  0.00    +0.000 C 
ATOM     15  N   UNL     1       5.379   4.787  18.115  0.00  0.00    +0.000 NA
ATOM     16  C   UNL     1       6.078   5.231  17.053  0.00  0.00    +0.000 A 
ENDROOT
BRANCH  12  17
ATOM     17  C   UNL     1       2.170   6.719  18.064  0.00  0.00    +0.000 C 
BRANCH  17  18
ATOM     18  C   UNL     1       2.748   8.135  17.877  0.00  0.00    +0.000 C 
ATOM     19  O   UNL     1       3.947   8.280  17.625  0.00  0.00    +0.000 OA
ATOM     20  N   UNL     1       1.888   9.229  17.957  0.00  0.00    +0.000 N 
ATOM     21  C   UNL     1       0.455   9.145  18.195  0.00  0.00    +0.000 C 
ATOM     22  C   UNL     1       2.441  10.570  17.891  0.00  0.00    +0.000 C 
ENDBRANCH  17  18
ENDBRANCH  12  17
TORSDOF 2
ENDMDL
MODEL 8
REMARK VINA RESULT:      -5.5      6.347      9.771
REMARK  Name = 
REMARK  5 active torsions:
REMARK  status: ('A' for Active; 'I' for Inactive)
REMARK    1  A    between atoms: C_1  and  C_2
REMARK    2  A    between atoms: N_12  and  C_13
REMARK    3  A    between atoms: C_13  and  C_14
REMARK    4  A    between atoms: N_16  and  C_17
REMARK    5  A    between atoms: N_16  and  C_18
REMARK                            x       y       z     vdW  Elec       q    Type
REMARK                         _______ _______ _______ _____ _____    ______ ____
ROOT
ATOM      1  C   UNL     1       1.460   8.401  21.072  0.00  0.00    +0.000 C 
ATOM      2  C   UNL     1       0.599   9.504  21.574  0.00  0.00    +0.000 A 
ATOM      3  C   UNL     1      -0.267   9.367  22.630  0.00  0.00    +0.000 A 
ATOM      4  N   UNL     1      -1.122  10.325  23.028  0.00  0.00    +0.000 NA
ATOM      5  C   UNL     1      -1.123  11.489  22.355  0.00  0.00    +0.000 A 
ATOM      6  N   UNL     1      -2.178  12.361  22.562  0.00  0.00    +0.000 N 
ATOM      7  C   UNL     1      -2.685  12.406  23.933  0.00  0.00    +0.000 C 
ATOM      8  C   UNL     1      -4.177  12.728  23.923  0.00  0.00    +0.000 C 
ATOM      9  C   UNL     1      -4.466  13.998  23.134  0.00  0.00    +0.000 C 
ATOM     10  C   UNL     1      -3.810  13.996  21.758  0.00  0.00    +0.000 C 
ATOM     11  C   UNL     1      -4.408  12.997  20.759  0.00  0.00    +0.000 C 
ATOM     12  N   UNL     1      -3.417  12.910  19.668  0.00  0.00    +0.000 NA
ATOM     13  C   UNL     1      -2.154  13.450  20.225  0.00  0.00    +0.000 C 
ATOM     14  C   UNL     1      -2.326  13.588  21.754  0.00  0.00    +0.000 C 
ATOM     15  N   UNL     1      -0.224  11.749  21.401  0.00  0.00    +0.000 NA
ATOM     16  C   UNL     1       0.583  10.749  20.998  0.00  0.00    +0.000 A 
ENDROOT
BRANCH  12  17
ATOM     17  C   UNL     1      -3.260  11.506  19.220  0.00  0.00    +0.000 C 
BRANCH  17  18
ATOM     18  C   UNL     1      -3.471  11.336  17.703  0.00  0.00    +0.000 C 
ATOM     19  O   UNL     1      -4.471  11.819  17.165  0.00  0.00    +0.000 OA
ATOM     20  N   UNL     1      -2.499  10.672  16.958  0.00  0.00    +0.000 N 
ATOM     21  C   UNL     1      -1.266  10.121  17.500  0.00  0.00    +0.000 C 
ATOM     22  C   UNL     1      -2.742  10.413  15.550  0.00  0.00    +0.000 C 
ENDBRANCH  17  18
ENDBRANCH  12  17
TORSDOF 2
ENDMDL
MODEL 9
REMARK VINA RESULT:      -5.5      5.423      9.134
REMARK  Name = 
REMARK  5 active torsions:
REMARK  status: ('A' for Active; 'I' for Inactive)
REMARK    1  A    between atoms: C_1  and  C_2
REMARK    2  A    between atoms: N_12  and  C_13
REMARK    3  A    between atoms: C_13  and  C_14
REMARK    4  A    between atoms: N_16  and  C_17
REMARK    5  A    between atoms: N_16  and  C_18
REMARK                            x       y       z     vdW  Elec       q    Type
REMARK                         _______ _______ _______ _____ _____    ______ ____
ROOT
ATOM      1  C   UNL     1       1.453   7.284  20.801  0.00  0.00    +0.000 C 
ATOM      2  C   UNL     1       0.883   8.608  21.165  0.00  0.00    +0.000 A 
ATOM      3  C   UNL     1       0.145   8.827  22.300  0.00  0.00    +0.000 A 
ATOM      4  N   UNL     1      -0.459   9.994  22.589  0.00  0.00    +0.000 NA
ATOM      5  C   UNL     1      -0.325  11.006  21.714  0.00  0.00    +0.000 A 
ATOM      6  N   UNL     1      -1.164  12.099  21.849  0.00  0.00    +0.000 N 
ATOM      7  C   UNL     1      -1.478  12.473  23.227  0.00  0.00    +0.000 C 
ATOM      8  C   UNL     1      -2.873  13.091  23.291  0.00  0.00    +0.000 C 
ATOM      9  C   UNL     1      -3.015  14.245  22.309  0.00  0.00    +0.000 C 
ATOM     10  C   UNL     1      -2.548  13.882  20.904  0.00  0.00    +0.000 C 
ATOM     11  C   UNL     1      -3.442  12.878  20.166  0.00  0.00    +0.000 C 
ATOM     12  N   UNL     1      -2.629  12.410  19.026  0.00  0.00    +0.000 NA
ATOM     13  C   UNL     1      -1.227  12.761  19.357  0.00  0.00    +0.000 C 
ATOM     14  C   UNL     1      -1.179  13.181  20.843  0.00  0.00    +0.000 C 
ATOM     15  N   UNL     1       0.480  10.915  20.651  0.00  0.00    +0.000 NA
ATOM     16  C   UNL     1       1.030   9.718  20.371  0.00  0.00    +0.000 A 
ENDROOT
BRANCH  12  17
ATOM     17  C   UNL     1      -2.795  10.949  18.834  0.00  0.00    +0.000 C 
BRANCH  17  18
ATOM     18  C   UNL     1      -2.412  10.486  17.415  0.00  0.00    +0.000 C 
ATOM     19  O   UNL     1      -1.341   9.900  17.229  0.00  0.00    +0.000 OA
ATOM     20  N   UNL     1      -3.308  10.704  16.370  0.00  0.00    +0.000 N 
ATOM     21  C   UNL     1      -4.611  11.336  16.510  0.00  0.00    +0.000 C 
ATOM     22  C   UNL     1      -2.909  10.369  15.015  0.00  0.00    +0.000 C 
ENDBRANCH  17  18
ENDBRANCH  12  17
TORSDOF 2
ENDMDL
