MODEL 1
REMARK VINA RESULT:      -7.5      0.000      0.000
REMARK  Name = 
REMARK  2 active torsions:
REMARK  status: ('A' for Active; 'I' for Inactive)
REMARK    1  A    between atoms: C_2  and  C_3
REMARK    2  A    between atoms: C_3  and  C_4
REMARK                            x       y       z     vdW  Elec       q    Type
REMARK                         _______ _______ _______ _____ _____    ______ ____
ROOT
ATOM      1  O   UNL     1       2.037   9.586  17.371  0.00  0.00    +0.000 OA
ATOM      2  C   UNL     1       1.761   9.234  18.521  0.00  0.00    +0.000 C 
ATOM      3  N   UNL     1       2.115   7.981  18.998  0.00  0.00    +0.000 N 
ATOM      4  C   UNL     1       1.835   7.446  20.340  0.00  0.00    +0.000 C 
ATOM      5  C   UNL     1       1.414   5.958  20.312  0.00  0.00    +0.000 C 
ATOM      6  N   UNL     1       2.338   5.175  19.492  0.00  0.00    +0.000 N 
ATOM      7  C   UNL     1       2.991   4.067  19.923  0.00  0.00    +0.000 A 
ATOM      8  N   UNL     1       4.141   3.667  19.421  0.00  0.00    +0.000 NA
ATOM      9  C   UNL     1       4.575   2.507  20.028  0.00  0.00    +0.000 A 
ATOM     10  C   UNL     1       3.728   1.985  20.976  0.00  0.00    +0.000 A 
ATOM     11  S   UNL     1       2.372   3.010  21.154  0.00  0.00    +0.000 S 
ATOM     12  C   UNL     1       2.587   5.687  18.141  0.00  0.00    +0.000 C 
ATOM     13  C   UNL     1       3.033   7.154  18.197  0.00  0.00    +0.000 C 
ENDROOT
BRANCH   2  14
ATOM     14  C   UNL     1       1.015  10.196  19.435  0.00  0.00    +0.000 C 
BRANCH  14  15
ATOM     15  C   UNL     1      -0.383  10.572  18.994  0.00  0.00    +0.000 A 
ATOM     16  C   UNL     1      -1.059  11.612  19.677  0.00  0.00    +0.000 A 
ATOM     17  C   UNL     1      -2.331  12.037  19.281  0.00  0.00    +0.000 A 
ATOM     18  C   UNL     1      -2.900  11.431  18.183  0.00  0.00    +0.000 A 
ATOM     19  C   UNL     1      -2.248  10.430  17.483  0.00  0.00    +0.000 A 
ATOM     20  C   UNL     1      -0.991   9.989  17.868  0.00  0.00    +0.000 A 
ATOM     21  C   UNL     1      -3.125   9.950  16.392  0.00  0.00    +0.000 C 
ATOM     22  C   UNL     1      -4.157  11.080  16.396  0.00  0.00    +0.000 C 
ATOM     23  O   UNL     1      -4.138  11.739  17.684  0.00  0.00    +0.000 OA
ENDBRANCH  14  15
ENDBRANCH   2  14
TORSDOF 2
ENDMDL
MODEL 2
REMARK VINA RESULT:      -7.4      3.792      8.501
REMARK  Name = 
REMARK  2 active torsions:
REMARK  status: ('A' for Active; 'I' for Inactive)
REMARK    1  A    between atoms: C_2  and  C_3
REMARK    2  A    between atoms: C_3  and  C_4
REMARK                            x       y       z     vdW  Elec       q    Type
REMARK                         _______ _______ _______ _____ _____    ______ ____
ROOT
ATOM      1  O   UNL     1       2.594   8.412  17.292  0.00  0.00    +0.000 OA
ATOM      2  C   UNL     1       2.262   8.131  18.448  0.00  0.00    +0.000 C 
ATOM      3  N   UNL     1       1.379   8.929  19.159  0.00  0.00    +0.000 N 
ATOM      4  C   UNL     1       0.918   8.704  20.539  0.00  0.00    +0.000 C 
ATOM      5  C   UNL     1       0.832  10.014  21.358  0.00  0.00    +0.000 C 
ATOM      6  N   UNL     1       0.121  11.048  20.607  0.00  0.00    +0.000 N 
ATOM      7  C   UNL     1      -0.957  11.725  21.072  0.00  0.00    +0.000 A 
ATOM      8  N   UNL     1      -1.872  12.254  20.285  0.00  0.00    +0.000 NA
ATOM      9  C   UNL     1      -2.847  12.899  21.016  0.00  0.00    +0.000 A 
ATOM     10  C   UNL     1      -2.658  12.906  22.378  0.00  0.00    +0.000 A 
ATOM     11  S   UNL     1      -1.242  12.026  22.759  0.00  0.00    +0.000 S 
ATOM     12  C   UNL     1       0.606  11.298  19.245  0.00  0.00    +0.000 C 
ATOM     13  C   UNL     1       0.652   9.990  18.444  0.00  0.00    +0.000 C 
ENDROOT
BRANCH   2  14
ATOM     14  C   UNL     1       2.837   6.884  19.105  0.00  0.00    +0.000 C 
BRANCH  14  15
ATOM     15  C   UNL     1       3.668   5.991  18.208  0.00  0.00    +0.000 A 
ATOM     16  C   UNL     1       3.101   4.785  17.731  0.00  0.00    +0.000 A 
ATOM     17  C   UNL     1       3.802   3.946  16.859  0.00  0.00    +0.000 A 
ATOM     18  C   UNL     1       5.056   4.343  16.453  0.00  0.00    +0.000 A 
ATOM     19  C   UNL     1       5.621   5.531  16.885  0.00  0.00    +0.000 A 
ATOM     20  C   UNL     1       4.945   6.369  17.759  0.00  0.00    +0.000 A 
ATOM     21  C   UNL     1       6.982   5.656  16.318  0.00  0.00    +0.000 C 
ATOM     22  C   UNL     1       6.902   4.562  15.251  0.00  0.00    +0.000 C 
ATOM     23  O   UNL     1       5.860   3.624  15.607  0.00  0.00    +0.000 OA
ENDBRANCH  14  15
ENDBRANCH   2  14
TORSDOF 2
ENDMDL
MODEL 3
REMARK VINA RESULT:      -7.4      4.046      8.583
REMARK  Name = 
REMARK  2 active torsions:
REMARK  status: ('A' for Active; 'I' for Inactive)
REMARK    1  A    between atoms: C_2  and  C_3
REMARK    2  A    between atoms: C_3  and  C_4
REMARK                            x       y       z     vdW  Elec       q    Type
REMARK                         _______ _______ _______ _____ _____    ______ ____
ROOT
ATOM      1  O   UNL     1       2.225   6.908  20.415  0.00  0.00    +0.000 OA
ATOM      2  C   UNL     1       1.888   7.814  19.648  0.00  0.00    +0.000 C 
ATOM      3  N   UNL     1       1.214   8.936  20.106  0.00  0.00    +0.000 N 
ATOM      4  C   UNL     1       0.755  10.072  19.292  0.00  0.00    +0.000 C 
ATOM      5  C   UNL     1      -0.646  10.577  19.711  0.00  0.00    +0.000 C 
ATOM      6  N   UNL     1      -0.718  10.760  21.160  0.00  0.00    +0.000 N 
ATOM      7  C   UNL     1      -1.091  11.914  21.767  0.00  0.00    +0.000 A 
ATOM      8  N   UNL     1      -0.696  12.253  22.977  0.00  0.00    +0.000 NA
ATOM      9  C   UNL     1      -1.237  13.463  23.358  0.00  0.00    +0.000 A 
ATOM     10  C   UNL     1      -2.091  14.041  22.449  0.00  0.00    +0.000 A 
ATOM     11  S   UNL     1      -2.177  13.064  21.049  0.00  0.00    +0.000 S 
ATOM     12  C   UNL     1      -0.295   9.614  21.972  0.00  0.00    +0.000 C 
ATOM     13  C   UNL     1       1.108   9.152  21.558  0.00  0.00    +0.000 C 
ENDROOT
BRANCH   2  14
ATOM     14  C   UNL     1       2.219   7.697  18.166  0.00  0.00    +0.000 C 
BRANCH  14  15
ATOM     15  C   UNL     1       3.233   6.634  17.801  0.00  0.00    +0.000 A 
ATOM     16  C   UNL     1       2.811   5.284  17.724  0.00  0.00    +0.000 A 
ATOM     17  C   UNL     1       3.691   4.268  17.341  0.00  0.00    +0.000 A 
ATOM     18  C   UNL     1       4.981   4.622  17.012  0.00  0.00    +0.000 A 
ATOM     19  C   UNL     1       5.409   5.938  17.053  0.00  0.00    +0.000 A 
ATOM     20  C   UNL     1       4.553   6.957  17.442  0.00  0.00    +0.000 A 
ATOM     21  C   UNL     1       6.843   5.994  16.692  0.00  0.00    +0.000 C 
ATOM     22  C   UNL     1       7.001   4.588  16.107  0.00  0.00    +0.000 C 
ATOM     23  O   UNL     1       5.952   3.736  16.624  0.00  0.00    +0.000 OA
ENDBRANCH  14  15
ENDBRANCH   2  14
TORSDOF 2
ENDMDL
MODEL 4
REMARK VINA RESULT:      -7.3      3.661      8.003
REMARK  Name = 
REMARK  2 active torsions:
REMARK  status: ('A' for Active; 'I' for Inactive)
REMARK    1  A    between atoms: C_2  and  C_3
REMARK    2  A    between atoms: C_3  and  C_4
REMARK                            x       y       z     vdW  Elec       q    Type
REMARK                         _______ _______ _______ _____ _____    ______ ____
ROOT
ATOM      1  O   UNL     1       2.109   8.982  17.220  0.00  0.00    +0.000 OA
ATOM      2  C   UNL     1       1.979   8.771  18.429  0.00  0.00    +0.000 C 
ATOM      3  N   UNL     1       1.055   9.472  19.190  0.00  0.00    +0.000 N 
ATOM      4  C   UNL     1       0.816   9.317  20.633  0.00  0.00    +0.000 C 
ATOM      5  C   UNL     1       0.586  10.670  21.347  0.00  0.00    +0.000 C 
ATOM      6  N   UNL     1      -0.392  11.479  20.621  0.00  0.00    +0.000 N 
ATOM      7  C   UNL     1      -1.514  12.002  21.175  0.00  0.00    +0.000 A 
ATOM      8  N   UNL     1      -2.600  12.276  20.482  0.00  0.00    +0.000 NA
ATOM      9  C   UNL     1      -3.583  12.814  21.286  0.00  0.00    +0.000 A 
ATOM     10  C   UNL     1      -3.233  12.997  22.603  0.00  0.00    +0.000 A 
ATOM     11  S   UNL     1      -1.642  12.424  22.854  0.00  0.00    +0.000 S 
ATOM     12  C   UNL     1      -0.132  11.664  19.189  0.00  0.00    +0.000 C 
ATOM     13  C   UNL     1       0.061  10.308  18.498  0.00  0.00    +0.000 C 
ENDROOT
BRANCH   2  14
ATOM     14  C   UNL     1       2.853   7.721  19.100  0.00  0.00    +0.000 C 
BRANCH  14  15
ATOM     15  C   UNL     1       2.328   6.301  19.055  0.00  0.00    +0.000 A 
ATOM     16  C   UNL     1       2.160   5.674  17.796  0.00  0.00    +0.000 A 
ATOM     17  C   UNL     1       1.728   4.348  17.696  0.00  0.00    +0.000 A 
ATOM     18  C   UNL     1       1.495   3.656  18.863  0.00  0.00    +0.000 A 
ATOM     19  C   UNL     1       1.678   4.239  20.106  0.00  0.00    +0.000 A 
ATOM     20  C   UNL     1       2.095   5.556  20.224  0.00  0.00    +0.000 A 
ATOM     21  C   UNL     1       1.307   3.267  21.158  0.00  0.00    +0.000 C 
ATOM     22  C   UNL     1       1.260   1.995  20.308  0.00  0.00    +0.000 C 
ATOM     23  O   UNL     1       1.065   2.357  18.920  0.00  0.00    +0.000 OA
ENDBRANCH  14  15
ENDBRANCH   2  14
TORSDOF 2
ENDMDL
MODEL 5
REMARK VINA RESULT:      -7.3      4.109      8.462
REMARK  Name = 
REMARK  2 active torsions:
REMARK  status: ('A' for Active; 'I' for Inactive)
REMARK    1  A    between atoms: C_2  and  C_3
REMARK    2  A    between atoms: C_3  and  C_4
REMARK                            x       y       z     vdW  Elec       q    Type
REMARK                         _______ _______ _______ _____ _____    ______ ____
ROOT
ATOM      1  O   UNL     1       1.772   5.598  21.144  0.00  0.00    +0.000 OA
ATOM      2  C   UNL     1       1.905   6.186  20.067  0.00  0.00    +0.000 C 
ATOM      3  N   UNL     1       1.792   7.565  19.978  0.00  0.00    +0.000 N 
ATOM      4  C   UNL     1       1.921   8.374  18.756  0.00  0.00    +0.000 C 
ATOM      5  C   UNL     1       0.884   9.520  18.688  0.00  0.00    +0.000 C 
ATOM      6  N   UNL     1       0.852  10.264  19.947  0.00  0.00    +0.000 N 
ATOM      7  C   UNL     1       1.017  11.606  20.045  0.00  0.00    +0.000 A 
ATOM      8  N   UNL     1       1.480  12.199  21.126  0.00  0.00    +0.000 NA
ATOM      9  C   UNL     1       1.529  13.568  20.963  0.00  0.00    +0.000 A 
ATOM     10  C   UNL     1       1.057  14.036  19.760  0.00  0.00    +0.000 A 
ATOM     11  S   UNL     1       0.590  12.716  18.779  0.00  0.00    +0.000 S 
ATOM     12  C   UNL     1       0.686   9.460  21.162  0.00  0.00    +0.000 C 
ATOM     13  C   UNL     1       1.745   8.351  21.221  0.00  0.00    +0.000 C 
ENDROOT
BRANCH   2  14
ATOM     14  C   UNL     1       2.198   5.379  18.810  0.00  0.00    +0.000 C 
BRANCH  14  15
ATOM     15  C   UNL     1       3.649   5.338  18.378  0.00  0.00    +0.000 A 
ATOM     16  C   UNL     1       4.656   5.273  19.370  0.00  0.00    +0.000 A 
ATOM     17  C   UNL     1       6.009   5.180  19.029  0.00  0.00    +0.000 A 
ATOM     18  C   UNL     1       6.334   5.126  17.692  0.00  0.00    +0.000 A 
ATOM     19  C   UNL     1       5.365   5.162  16.704  0.00  0.00    +0.000 A 
ATOM     20  C   UNL     1       4.020   5.265  17.023  0.00  0.00    +0.000 A 
ATOM     21  C   UNL     1       6.022   5.133  15.378  0.00  0.00    +0.000 C 
ATOM     22  C   UNL     1       7.428   4.711  15.813  0.00  0.00    +0.000 C 
ATOM     23  O   UNL     1       7.613   5.040  17.209  0.00  0.00    +0.000 OA
ENDBRANCH  14  15
ENDBRANCH   2  14
TORSDOF 2
ENDMDL
MODEL 6
REMARK VINA RESULT:      -7.2      1.650      1.988
REMARK  Name = 
REMARK  2 active torsions:
REMARK  status: ('A' for Active; 'I' for Inactive)
REMARK    1  A    between atoms: C_2  and  C_3
REMARK    2  A    between atoms: C_3  and  C_4
REMARK                            x       y       z     vdW  Elec       q    Type
REMARK                         _______ _______ _______ _____ _____    ______ ____
ROOT
ATOM      1  O   UNL     1       0.782   9.009  21.687  0.00  0.00    +0.000 OA
ATOM      2  C   UNL     1       1.132   8.913  20.507  0.00  0.00    +0.000 C 
ATOM      3  N   UNL     1       1.559   7.705  19.977  0.00  0.00    +0.000 N 
ATOM      4  C   UNL     1       2.008   7.469  18.595  0.00  0.00    +0.000 C 
ATOM      5  C   UNL     1       3.231   6.524  18.520  0.00  0.00    +0.000 C 
ATOM      6  N   UNL     1       3.012   5.329  19.334  0.00  0.00    +0.000 N 
ATOM      7  C   UNL     1       3.115   4.059  18.870  0.00  0.00    +0.000 A 
ATOM      8  N   UNL     1       2.465   3.043  19.399  0.00  0.00    +0.000 NA
ATOM      9  C   UNL     1       2.765   1.865  18.747  0.00  0.00    +0.000 A 
ATOM     10  C   UNL     1       3.688   1.969  17.734  0.00  0.00    +0.000 A 
ATOM     11  S   UNL     1       4.154   3.603  17.555  0.00  0.00    +0.000 S 
ATOM     12  C   UNL     1       2.601   5.566  20.722  0.00  0.00    +0.000 C 
ATOM     13  C   UNL     1       1.370   6.479  20.769  0.00  0.00    +0.000 C 
ENDROOT
BRANCH   2  14
ATOM     14  C   UNL     1       1.096  10.147  19.617  0.00  0.00    +0.000 C 
BRANCH  14  15
ATOM     15  C   UNL     1      -0.259  10.506  19.045  0.00  0.00    +0.000 A 
ATOM     16  C   UNL     1      -1.034  11.499  19.694  0.00  0.00    +0.000 A 
ATOM     17  C   UNL     1      -2.269  11.907  19.182  0.00  0.00    +0.000 A 
ATOM     18  C   UNL     1      -2.701  11.334  18.007  0.00  0.00    +0.000 A 
ATOM     19  C   UNL     1      -1.949  10.381  17.340  0.00  0.00    +0.000 A 
ATOM     20  C   UNL     1      -0.728   9.956  17.839  0.00  0.00    +0.000 A 
ATOM     21  C   UNL     1      -2.692   9.926  16.144  0.00  0.00    +0.000 C 
ATOM     22  C   UNL     1      -3.753  11.027  16.084  0.00  0.00    +0.000 C 
ATOM     23  O   UNL     1      -3.889  11.631  17.392  0.00  0.00    +0.000 OA
ENDBRANCH  14  15
ENDBRANCH   2  14
TORSDOF 2
ENDMDL
MODEL 7
REMARK VINA RESULT:      -7.2      3.725      8.328
REMARK  Name = 
REMARK  2 active torsions:
REMARK  status: ('A' for Active; 'I' for Inactive)
REMARK    1  A    between atoms: C_2  and  C_3
REMARK    2  A    between atoms: C_3  and  C_4
REMARK                            x       y       z     vdW  Elec       q    Type
REMARK                         _______ _______ _______ _____ _____    ______ ____
ROOT
ATOM      1  O   UNL     1       1.756   9.248  17.366  0.00  0.00    +0.000 OA
ATOM      2  C   UNL     1       1.464   9.072  18.552  0.00  0.00    +0.000 C 
ATOM      3  N   UNL     1       0.420   9.763  19.149  0.00  0.00    +0.000 N 
ATOM      4  C   UNL     1      -0.015   9.647  20.550  0.00  0.00    +0.000 C 
ATOM      5  C   UNL     1      -0.387  11.013  21.173  0.00  0.00    +0.000 C 
ATOM      6  N   UNL     1      -1.278  11.760  20.287  0.00  0.00    +0.000 N 
ATOM      7  C   UNL     1      -2.484  12.259  20.658  0.00  0.00    +0.000 A 
ATOM      8  N   UNL     1      -3.470  12.469  19.811  0.00  0.00    +0.000 NA
ATOM      9  C   UNL     1      -4.573  12.996  20.449  0.00  0.00    +0.000 A 
ATOM     10  C   UNL     1      -4.419  13.235  21.794  0.00  0.00    +0.000 A 
ATOM     11  S   UNL     1      -2.861  12.731  22.286  0.00  0.00    +0.000 S 
ATOM     12  C   UNL     1      -0.826  11.908  18.899  0.00  0.00    +0.000 C 
ATOM     13  C   UNL     1      -0.494  10.538  18.294  0.00  0.00    +0.000 C 
ENDROOT
BRANCH   2  14
ATOM     14  C   UNL     1       2.269   8.078  19.378  0.00  0.00    +0.000 C 
BRANCH  14  15
ATOM     15  C   UNL     1       2.579   6.760  18.701  0.00  0.00    +0.000 A 
ATOM     16  C   UNL     1       3.739   6.662  17.894  0.00  0.00    +0.000 A 
ATOM     17  C   UNL     1       4.103   5.456  17.287  0.00  0.00    +0.000 A 
ATOM     18  C   UNL     1       3.312   4.353  17.520  0.00  0.00    +0.000 A 
ATOM     19  C   UNL     1       2.188   4.418  18.326  0.00  0.00    +0.000 A 
ATOM     20  C   UNL     1       1.806   5.607  18.926  0.00  0.00    +0.000 A 
ATOM     21  C   UNL     1       1.528   3.093  18.345  0.00  0.00    +0.000 C 
ATOM     22  C   UNL     1       2.655   2.251  17.743  0.00  0.00    +0.000 C 
ATOM     23  O   UNL     1       3.542   3.111  16.989  0.00  0.00    +0.000 OA
ENDBRANCH  14  15
ENDBRANCH   2  14
TORSDOF 2
ENDMDL
MODEL 8
REMARK VINA RESULT:      -7.2      2.220      2.599
REMARK  Name = 
REMARK  2 active torsions:
REMARK  status: ('A' for Active; 'I' for Inactive)
REMARK    1  A    between atoms: C_2  and  C_3
REMARK    2  A    between atoms: C_3  and  C_4
REMARK                            x       y       z     vdW  Elec       q    Type
REMARK                         _______ _______ _______ _____ _____    ______ ____
ROOT
ATOM      1  O   UNL     1       0.735   8.777  21.245  0.00  0.00    +0.000 OA
ATOM      2  C   UNL     1       1.133   9.093  20.121  0.00  0.00    +0.000 C 
ATOM      3  N   UNL     1       1.838   8.201  19.327  0.00  0.00    +0.000 N 
ATOM      4  C   UNL     1       2.370   8.463  17.980  0.00  0.00    +0.000 C 
ATOM      5  C   UNL     1       3.776   7.855  17.767  0.00  0.00    +0.000 C 
ATOM      6  N   UNL     1       3.809   6.461  18.206  0.00  0.00    +0.000 N 
ATOM      7  C   UNL     1       4.211   5.424  17.430  0.00  0.00    +0.000 A 
ATOM      8  N   UNL     1       3.792   4.188  17.604  0.00  0.00    +0.000 NA
ATOM      9  C   UNL     1       4.369   3.331  16.690  0.00  0.00    +0.000 A 
ATOM     10  C   UNL     1       5.275   3.907  15.832  0.00  0.00    +0.000 A 
ATOM     11  S   UNL     1       5.365   5.585  16.142  0.00  0.00    +0.000 S 
ATOM     12  C   UNL     1       3.314   6.205  19.563  0.00  0.00    +0.000 C 
ATOM     13  C   UNL     1       1.907   6.790  19.740  0.00  0.00    +0.000 C 
ENDROOT
BRANCH   2  14
ATOM     14  C   UNL     1       0.846  10.493  19.595  0.00  0.00    +0.000 C 
BRANCH  14  15
ATOM     15  C   UNL     1      -0.520  10.694  18.973  0.00  0.00    +0.000 A 
ATOM     16  C   UNL     1      -1.421  11.602  19.581  0.00  0.00    +0.000 A 
ATOM     17  C   UNL     1      -2.675  11.867  19.023  0.00  0.00    +0.000 A 
ATOM     18  C   UNL     1      -3.000  11.237  17.842  0.00  0.00    +0.000 A 
ATOM     19  C   UNL     1      -2.126  10.365  17.215  0.00  0.00    +0.000 A 
ATOM     20  C   UNL     1      -0.883  10.082  17.761  0.00  0.00    +0.000 A 
ATOM     21  C   UNL     1      -2.773   9.818  16.002  0.00  0.00    +0.000 C 
ATOM     22  C   UNL     1      -3.945  10.795  15.890  0.00  0.00    +0.000 C 
ATOM     23  O   UNL     1      -4.191  11.395  17.183  0.00  0.00    +0.000 OA
ENDBRANCH  14  15
ENDBRANCH   2  14
TORSDOF 2
ENDMDL
MODEL 9
REMARK VINA RESULT:      -7.1      3.962      8.437
REMARK  Name = 
REMARK  2 active torsions:
REMARK  status: ('A' for Active; 'I' for Inactive)
REMARK    1  A    between atoms: C_2  and  C_3
REMARK    2  A    between atoms: C_3  and  C_4
REMARK                            x       y       z     vdW  Elec       q    Type
REMARK                         _______ _______ _______ _____ _____    ______ ____
ROOT
ATOM      1  O   UNL     1       1.421   9.298  18.580  0.00  0.00    +0.000 OA
ATOM      2  C   UNL     1       1.119   9.083  19.757  0.00  0.00    +0.000 C 
ATOM      3  N   UNL     1       0.099   9.787  20.381  0.00  0.00    +0.000 N 
ATOM      4  C   UNL     1      -0.346   9.627  21.774  0.00  0.00    +0.000 C 
ATOM      5  C   UNL     1      -0.668  10.979  22.455  0.00  0.00    +0.000 C 
ATOM      6  N   UNL     1      -1.526  11.797  21.600  0.00  0.00    +0.000 N 
ATOM      7  C   UNL     1      -2.713  12.325  21.990  0.00  0.00    +0.000 A 
ATOM      8  N   UNL     1      -3.687  12.609  21.150  0.00  0.00    +0.000 NA
ATOM      9  C   UNL     1      -4.772  13.150  21.808  0.00  0.00    +0.000 A 
ATOM     10  C   UNL     1      -4.614  13.325  23.162  0.00  0.00    +0.000 A 
ATOM     11  S   UNL     1      -3.079  12.741  23.636  0.00  0.00    +0.000 S 
ATOM     12  C   UNL     1      -1.063  11.987  20.221  0.00  0.00    +0.000 C 
ATOM     13  C   UNL     1      -0.781  10.633  19.558  0.00  0.00    +0.000 C 
ENDROOT
BRANCH   2  14
ATOM     14  C   UNL     1       1.881   8.024  20.541  0.00  0.00    +0.000 C 
BRANCH  14  15
ATOM     15  C   UNL     1       1.913   6.643  19.921  0.00  0.00    +0.000 A 
ATOM     16  C   UNL     1       2.519   6.477  18.652  0.00  0.00    +0.000 A 
ATOM     17  C   UNL     1       2.623   5.217  18.056  0.00  0.00    +0.000 A 
ATOM     18  C   UNL     1       2.142   4.131  18.753  0.00  0.00    +0.000 A 
ATOM     19  C   UNL     1       1.569   4.265  20.006  0.00  0.00    +0.000 A 
ATOM     20  C   UNL     1       1.447   5.508  20.608  0.00  0.00    +0.000 A 
ATOM     21  C   UNL     1       1.111   2.939  20.475  0.00  0.00    +0.000 C 
ATOM     22  C   UNL     1       1.848   2.056  19.465  0.00  0.00    +0.000 C 
ATOM     23  O   UNL     1       2.171   2.841  18.293  0.00  0.00    +0.000 OA
ENDBRANCH  14  15
ENDBRANCH   2  14
TORSDOF 2
ENDMDL
