MODEL 1
REMARK VINA RESULT:     -10.3      0.000      0.000
REMARK  Name = 
REMARK  4 active torsions:
REMARK  status: ('A' for Active; 'I' for Inactive)
REMARK    1  A    between atoms: C_4  and  C_5
REMARK    2  A    between atoms: C_5  and  N_6
REMARK    3  A    between atoms: N_8  and  C_9
REMARK    4  A    between atoms: C_9  and  N_10
REMARK                            x       y       z     vdW  Elec       q    Type
REMARK                         _______ _______ _______ _____ _____    ______ ____
ROOT
ATOM      1  N   UNL     1       3.175   6.135  17.894  0.00  0.00    +0.000 N 
ATOM      2  C   UNL     1       3.952   5.912  19.015  0.00  0.00    +0.000 A 
ATOM      3  N   UNL     1       4.537   4.740  18.696  0.00  0.00    +0.000 N 
ATOM      4  C   UNL     1       3.401   3.921  18.809  0.00  0.00    +0.000 A 
ATOM      5  C   UNL     1       3.270   2.713  19.516  0.00  0.00    +0.000 A 
ATOM      6  C   UNL     1       2.100   1.988  19.406  0.00  0.00    +0.000 A 
ATOM      7  C   UNL     1       1.088   2.515  18.595  0.00  0.00    +0.000 A 
ATOM      8  C   UNL     1       1.141   3.852  17.934  0.00  0.00    +0.000 A 
ATOM      9  C   UNL     1       2.366   4.651  18.123  0.00  0.00    +0.000 A 
ENDROOT
BRANCH   1  10
ATOM     10  C   UNL     1       3.054   7.834  17.789  0.00  0.00    +0.000 C 
BRANCH  10  14
ATOM     11  C   UNL     1      -0.395  10.198  19.922  0.00  0.00    +0.000 A 
ATOM     12  C   UNL     1      -0.183  10.278  18.559  0.00  0.00    +0.000 A 
ATOM     13  C   UNL     1       0.887   9.522  17.922  0.00  0.00    +0.000 A 
ATOM     14  C   UNL     1       1.848   8.683  18.608  0.00  0.00    +0.000 A 
ATOM     15  C   UNL     1       1.489   8.558  19.960  0.00  0.00    +0.000 A 
ATOM     16  C   UNL     1       0.421   9.305  20.603  0.00  0.00    +0.000 A 
ENDBRANCH  10  14
ENDBRANCH   1  10
BRANCH   3  17
ATOM     17  C   UNL     1       5.938   4.369  18.022  0.00  0.00    +0.000 C 
BRANCH  17  18
ATOM     18  N   UNL     1       6.296   4.502  16.511  0.00  0.00    +0.000 N 
ATOM     19  N   UNL     1       7.606   4.767  16.534  0.00  0.00    +0.000 NA
ATOM     20  N   UNL     1       7.811   5.419  15.457  0.00  0.00    +0.000 NA
ATOM     21  C   UNL     1       6.978   4.866  14.563  0.00  0.00    +0.000 A 
ATOM     22  C   UNL     1       7.352   5.091  13.186  0.00  0.00    +0.000 A 
ATOM     23  C   UNL     1       6.981   4.337  12.115  0.00  0.00    +0.000 A 
ATOM     24  C   UNL     1       6.030   3.432  12.439  0.00  0.00    +0.000 A 
ATOM     25  C   UNL     1       5.507   3.356  13.832  0.00  0.00    +0.000 A 
ATOM     26  C   UNL     1       5.888   3.921  15.210  0.00  0.00    +0.000 A 
ENDBRANCH  17  18
ENDBRANCH   3  17
TORSDOF 4
ENDMDL
MODEL 2
REMARK VINA RESULT:     -10.0      1.075      1.188
REMARK  Name = 
REMARK  4 active torsions:
REMARK  status: ('A' for Active; 'I' for Inactive)
REMARK    1  A    between atoms: C_4  and  C_5
REMARK    2  A    between atoms: C_5  and  N_6
REMARK    3  A    between atoms: N_8  and  C_9
REMARK    4  A    between atoms: C_9  and  N_10
REMARK                            x       y       z     vdW  Elec       q    Type
REMARK                         _______ _______ _______ _____ _____    ______ ____
ROOT
ATOM      1  N   UNL     1       2.643   5.906  18.424  0.00  0.00    +0.000 N 
ATOM      2  C   UNL     1       3.966   5.657  18.731  0.00  0.00    +0.000 A 
ATOM      3  N   UNL     1       4.052   4.339  18.460  0.00  0.00    +0.000 N 
ATOM      4  C   UNL     1       3.280   3.869  19.537  0.00  0.00    +0.000 A 
ATOM      5  C   UNL     1       3.601   2.856  20.456  0.00  0.00    +0.000 A 
ATOM      6  C   UNL     1       2.653   2.453  21.376  0.00  0.00    +0.000 A 
ATOM      7  C   UNL     1       1.412   3.099  21.350  0.00  0.00    +0.000 A 
ATOM      8  C   UNL     1       1.081   4.263  20.477  0.00  0.00    +0.000 A 
ATOM      9  C   UNL     1       2.128   4.734  19.553  0.00  0.00    +0.000 A 
ENDROOT
BRANCH   1  10
ATOM     10  C   UNL     1       2.616   7.542  17.942  0.00  0.00    +0.000 C 
BRANCH  10  14
ATOM     11  C   UNL     1      -0.122  10.727  20.039  0.00  0.00    +0.000 A 
ATOM     12  C   UNL     1       0.041  10.687  18.667  0.00  0.00    +0.000 A 
ATOM     13  C   UNL     1       0.887   9.678  18.043  0.00  0.00    +0.000 A 
ATOM     14  C   UNL     1       1.667   8.682  18.747  0.00  0.00    +0.000 A 
ATOM     15  C   UNL     1       1.350   8.710  20.115  0.00  0.00    +0.000 A 
ATOM     16  C   UNL     1       0.504   9.710  20.745  0.00  0.00    +0.000 A 
ENDBRANCH  10  14
ENDBRANCH   1  10
BRANCH   3  17
ATOM     17  C   UNL     1       4.512   3.520  17.166  0.00  0.00    +0.000 C 
BRANCH  17  18
ATOM     18  N   UNL     1       5.445   4.040  16.032  0.00  0.00    +0.000 N 
ATOM     19  N   UNL     1       6.609   4.229  16.662  0.00  0.00    +0.000 NA
ATOM     20  N   UNL     1       7.189   5.138  15.981  0.00  0.00    +0.000 NA
ATOM     21  C   UNL     1       6.836   4.887  14.711  0.00  0.00    +0.000 A 
ATOM     22  C   UNL     1       7.722   5.459  13.725  0.00  0.00    +0.000 A 
ATOM     23  C   UNL     1       7.876   5.041  12.439  0.00  0.00    +0.000 A 
ATOM     24  C   UNL     1       6.943   4.128  12.089  0.00  0.00    +0.000 A 
ATOM     25  C   UNL     1       5.903   3.701  13.068  0.00  0.00    +0.000 A 
ATOM     26  C   UNL     1       5.647   3.854  14.576  0.00  0.00    +0.000 A 
ENDBRANCH  17  18
ENDBRANCH   3  17
TORSDOF 4
ENDMDL
MODEL 3
REMARK VINA RESULT:      -9.6      3.302      8.127
REMARK  Name = 
REMARK  4 active torsions:
REMARK  status: ('A' for Active; 'I' for Inactive)
REMARK    1  A    between atoms: C_4  and  C_5
REMARK    2  A    between atoms: C_5  and  N_6
REMARK    3  A    between atoms: N_8  and  C_9
REMARK    4  A    between atoms: C_9  and  N_10
REMARK                            x       y       z     vdW  Elec       q    Type
REMARK                         _______ _______ _______ _____ _____    ______ ____
ROOT
ATOM      1  N   UNL     1       6.681   5.260  14.852  0.00  0.00    +0.000 N 
ATOM      2  C   UNL     1       6.681   3.980  15.373  0.00  0.00    +0.000 A 
ATOM      3  N   UNL     1       5.738   4.090  16.330  0.00  0.00    +0.000 N 
ATOM      4  C   UNL     1       6.461   4.901  17.222  0.00  0.00    +0.000 A 
ATOM      5  C   UNL     1       6.657   4.712  18.600  0.00  0.00    +0.000 A 
ATOM      6  C   UNL     1       7.302   5.691  19.332  0.00  0.00    +0.000 A 
ATOM      7  C   UNL     1       7.743   6.826  18.643  0.00  0.00    +0.000 A 
ATOM      8  C   UNL     1       7.667   7.003  17.163  0.00  0.00    +0.000 A 
ATOM      9  C   UNL     1       7.047   5.916  16.384  0.00  0.00    +0.000 A 
ENDROOT
BRANCH   1  10
ATOM     10  C   UNL     1       7.158   5.059  13.226  0.00  0.00    +0.000 C 
BRANCH  10  14
ATOM     11  C   UNL     1       5.892   1.284  10.741  0.00  0.00    +0.000 A 
ATOM     12  C   UNL     1       7.216   1.590  10.989  0.00  0.00    +0.000 A 
ATOM     13  C   UNL     1       7.579   2.761  11.775  0.00  0.00    +0.000 A 
ATOM     14  C   UNL     1       6.651   3.732  12.316  0.00  0.00    +0.000 A 
ATOM     15  C   UNL     1       5.333   3.285  12.129  0.00  0.00    +0.000 A 
ATOM     16  C   UNL     1       4.962   2.115  11.350  0.00  0.00    +0.000 A 
ENDBRANCH  10  14
ENDBRANCH   1  10
BRANCH   3  17
ATOM     17  C   UNL     1       4.170   3.776  16.357  0.00  0.00    +0.000 C 
BRANCH  17  18
ATOM     18  N   UNL     1       3.281   3.638  17.629  0.00  0.00    +0.000 N 
ATOM     19  N   UNL     1       2.084   3.318  17.127  0.00  0.00    +0.000 NA
ATOM     20  N   UNL     1       1.256   3.744  17.998  0.00  0.00    +0.000 NA
ATOM     21  C   UNL     1       1.869   3.540  19.175  0.00  0.00    +0.000 A 
ATOM     22  C   UNL     1       0.974   3.488  20.307  0.00  0.00    +0.000 A 
ATOM     23  C   UNL     1       1.224   2.894  21.506  0.00  0.00    +0.000 A 
ATOM     24  C   UNL     1       2.514   2.507  21.620  0.00  0.00    +0.000 A 
ATOM     25  C   UNL     1       3.476   2.759  20.510  0.00  0.00    +0.000 A 
ATOM     26  C   UNL     1       3.407   3.201  19.039  0.00  0.00    +0.000 A 
ENDBRANCH  17  18
ENDBRANCH   3  17
TORSDOF 4
ENDMDL
MODEL 4
REMARK VINA RESULT:      -9.2      1.050      1.255
REMARK  Name = 
REMARK  4 active torsions:
REMARK  status: ('A' for Active; 'I' for Inactive)
REMARK    1  A    between atoms: C_4  and  C_5
REMARK    2  A    between atoms: C_5  and  N_6
REMARK    3  A    between atoms: N_8  and  C_9
REMARK    4  A    between atoms: C_9  and  N_10
REMARK                            x       y       z     vdW  Elec       q    Type
REMARK                         _______ _______ _______ _____ _____    ______ ____
ROOT
ATOM      1  N   UNL     1       2.797   6.807  17.759  0.00  0.00    +0.000 N 
ATOM      2  C   UNL     1       3.767   6.712  18.738  0.00  0.00    +0.000 A 
ATOM      3  N   UNL     1       4.652   5.884  18.148  0.00  0.00    +0.000 N 
ATOM      4  C   UNL     1       3.886   4.708  18.206  0.00  0.00    +0.000 A 
ATOM      5  C   UNL     1       4.276   3.443  18.677  0.00  0.00    +0.000 A 
ATOM      6  C   UNL     1       3.411   2.374  18.540  0.00  0.00    +0.000 A 
ATOM      7  C   UNL     1       2.169   2.621  17.944  0.00  0.00    +0.000 A 
ATOM      8  C   UNL     1       1.671   3.971  17.549  0.00  0.00    +0.000 A 
ATOM      9  C   UNL     1       2.574   5.115  17.773  0.00  0.00    +0.000 A 
ENDROOT
BRANCH   1  10
ATOM     10  C   UNL     1       2.102   8.347  17.994  0.00  0.00    +0.000 C 
BRANCH  10  14
ATOM     11  C   UNL     1       0.156   9.691  22.048  0.00  0.00    +0.000 A 
ATOM     12  C   UNL     1      -0.024  10.401  20.876  0.00  0.00    +0.000 A 
ATOM     13  C   UNL     1       0.581   9.952  19.629  0.00  0.00    +0.000 A 
ATOM     14  C   UNL     1       1.449   8.802  19.482  0.00  0.00    +0.000 A 
ATOM     15  C   UNL     1       1.479   8.072  20.681  0.00  0.00    +0.000 A 
ATOM     16  C   UNL     1       0.874   8.510  21.928  0.00  0.00    +0.000 A 
ENDBRANCH  10  14
ENDBRANCH   1  10
BRANCH   3  17
ATOM     17  C   UNL     1       5.975   6.139  17.286  0.00  0.00    +0.000 C 
BRANCH  17  18
ATOM     18  N   UNL     1       6.264   5.584  15.859  0.00  0.00    +0.000 N 
ATOM     19  N   UNL     1       7.595   5.455  15.851  0.00  0.00    +0.000 NA
ATOM     20  N   UNL     1       7.912   5.565  14.620  0.00  0.00    +0.000 NA
ATOM     21  C   UNL     1       6.904   4.976  13.957  0.00  0.00    +0.000 A 
ATOM     22  C   UNL     1       7.243   4.549  12.620  0.00  0.00    +0.000 A 
ATOM     23  C   UNL     1       6.610   3.586  11.896  0.00  0.00    +0.000 A 
ATOM     24  C   UNL     1       5.464   3.181  12.485  0.00  0.00    +0.000 A 
ATOM     25  C   UNL     1       5.025   3.789  13.773  0.00  0.00    +0.000 A 
ATOM     26  C   UNL     1       5.632   4.698  14.854  0.00  0.00    +0.000 A 
ENDBRANCH  17  18
ENDBRANCH   3  17
TORSDOF 4
ENDMDL
MODEL 5
REMARK VINA RESULT:      -9.2      0.972      1.413
REMARK  Name = 
REMARK  4 active torsions:
REMARK  status: ('A' for Active; 'I' for Inactive)
REMARK    1  A    between atoms: C_4  and  C_5
REMARK    2  A    between atoms: C_5  and  N_6
REMARK    3  A    between atoms: N_8  and  C_9
REMARK    4  A    between atoms: C_9  and  N_10
REMARK                            x       y       z     vdW  Elec       q    Type
REMARK                         _______ _______ _______ _____ _____    ______ ____
ROOT
ATOM      1  N   UNL     1       2.683   6.330  18.415  0.00  0.00    +0.000 N 
ATOM      2  C   UNL     1       3.363   6.399  19.615  0.00  0.00    +0.000 A 
ATOM      3  N   UNL     1       4.069   5.251  19.581  0.00  0.00    +0.000 N 
ATOM      4  C   UNL     1       2.997   4.360  19.761  0.00  0.00    +0.000 A 
ATOM      5  C   UNL     1       2.896   3.300  20.678  0.00  0.00    +0.000 A 
ATOM      6  C   UNL     1       1.804   2.456  20.619  0.00  0.00    +0.000 A 
ATOM      7  C   UNL     1       0.837   2.720  19.642  0.00  0.00    +0.000 A 
ATOM      8  C   UNL     1       0.846   3.907  18.739  0.00  0.00    +0.000 A 
ATOM      9  C   UNL     1       1.978   4.843  18.865  0.00  0.00    +0.000 A 
ENDROOT
BRANCH   1  10
ATOM     10  C   UNL     1       2.437   7.958  17.969  0.00  0.00    +0.000 C 
BRANCH  10  14
ATOM     11  C   UNL     1      -0.857  10.571  20.057  0.00  0.00    +0.000 A 
ATOM     12  C   UNL     1       0.095   9.876  20.777  0.00  0.00    +0.000 A 
ATOM     13  C   UNL     1       1.114   9.084  20.102  0.00  0.00    +0.000 A 
ATOM     14  C   UNL     1       1.215   8.888  18.670  0.00  0.00    +0.000 A 
ATOM     15  C   UNL     1       0.297   9.720  18.011  0.00  0.00    +0.000 A 
ATOM     16  C   UNL     1      -0.720  10.517  18.677  0.00  0.00    +0.000 A 
ENDBRANCH  10  14
ENDBRANCH   1  10
BRANCH   3  17
ATOM     17  C   UNL     1       5.555   4.898  19.106  0.00  0.00    +0.000 C 
BRANCH  17  18
ATOM     18  N   UNL     1       6.049   4.796  17.632  0.00  0.00    +0.000 N 
ATOM     19  N   UNL     1       7.278   4.283  17.761  0.00  0.00    +0.000 NA
ATOM     20  N   UNL     1       7.900   4.700  16.729  0.00  0.00    +0.000 NA
ATOM     21  C   UNL     1       6.978   4.701  15.755  0.00  0.00    +0.000 A 
ATOM     22  C   UNL     1       7.527   4.667  14.419  0.00  0.00    +0.000 A 
ATOM     23  C   UNL     1       6.888   4.241  13.295  0.00  0.00    +0.000 A 
ATOM     24  C   UNL     1       5.571   4.026  13.512  0.00  0.00    +0.000 A 
ATOM     25  C   UNL     1       4.981   4.268  14.859  0.00  0.00    +0.000 A 
ATOM     26  C   UNL     1       5.497   4.533  16.282  0.00  0.00    +0.000 A 
ENDBRANCH  17  18
ENDBRANCH   3  17
TORSDOF 4
ENDMDL
MODEL 6
REMARK VINA RESULT:      -9.1      1.095      1.393
REMARK  Name = 
REMARK  4 active torsions:
REMARK  status: ('A' for Active; 'I' for Inactive)
REMARK    1  A    between atoms: C_4  and  C_5
REMARK    2  A    between atoms: C_5  and  N_6
REMARK    3  A    between atoms: N_8  and  C_9
REMARK    4  A    between atoms: C_9  and  N_10
REMARK                            x       y       z     vdW  Elec       q    Type
REMARK                         _______ _______ _______ _____ _____    ______ ____
ROOT
ATOM      1  N   UNL     1       2.347   5.975  19.412  0.00  0.00    +0.000 N 
ATOM      2  C   UNL     1       3.686   5.775  19.682  0.00  0.00    +0.000 A 
ATOM      3  N   UNL     1       4.156   5.472  18.456  0.00  0.00    +0.000 N 
ATOM      4  C   UNL     1       3.564   4.204  18.330  0.00  0.00    +0.000 A 
ATOM      5  C   UNL     1       4.175   2.996  17.954  0.00  0.00    +0.000 A 
ATOM      6  C   UNL     1       3.394   1.871  17.770  0.00  0.00    +0.000 A 
ATOM      7  C   UNL     1       2.017   1.999  17.987  0.00  0.00    +0.000 A 
ATOM      8  C   UNL     1       1.352   3.228  18.508  0.00  0.00    +0.000 A 
ATOM      9  C   UNL     1       2.208   4.399  18.776  0.00  0.00    +0.000 A 
ENDROOT
BRANCH   1  10
ATOM     10  C   UNL     1       1.835   7.096  20.593  0.00  0.00    +0.000 C 
BRANCH  10  14
ATOM     11  C   UNL     1       0.213  11.287  19.239  0.00  0.00    +0.000 A 
ATOM     12  C   UNL     1       1.006  10.507  18.420  0.00  0.00    +0.000 A 
ATOM     13  C   UNL     1       1.483   9.203  18.861  0.00  0.00    +0.000 A 
ATOM     14  C   UNL     1       1.250   8.620  20.166  0.00  0.00    +0.000 A 
ATOM     15  C   UNL     1       0.341   9.413  20.885  0.00  0.00    +0.000 A 
ATOM     16  C   UNL     1      -0.144  10.712  20.450  0.00  0.00    +0.000 A 
ENDBRANCH  10  14
ENDBRANCH   1  10
BRANCH   3  17
ATOM     17  C   UNL     1       4.830   6.348  17.299  0.00  0.00    +0.000 C 
BRANCH  17  18
ATOM     18  N   UNL     1       5.563   5.799  16.038  0.00  0.00    +0.000 N 
ATOM     19  N   UNL     1       6.823   5.655  16.462  0.00  0.00    +0.000 NA
ATOM     20  N   UNL     1       7.524   5.770  15.402  0.00  0.00    +0.000 NA
ATOM     21  C   UNL     1       6.781   5.196  14.443  0.00  0.00    +0.000 A 
ATOM     22  C   UNL     1       7.534   4.774  13.285  0.00  0.00    +0.000 A 
ATOM     23  C   UNL     1       7.163   3.822  12.385  0.00  0.00    +0.000 A 
ATOM     24  C   UNL     1       5.884   3.425  12.566  0.00  0.00    +0.000 A 
ATOM     25  C   UNL     1       5.055   4.029  13.647  0.00  0.00    +0.000 A 
ATOM     26  C   UNL     1       5.285   4.926  14.874  0.00  0.00    +0.000 A 
ENDBRANCH  17  18
ENDBRANCH   3  17
TORSDOF 4
ENDMDL
MODEL 7
REMARK VINA RESULT:      -8.9      0.677      1.298
REMARK  Name = 
REMARK  4 active torsions:
REMARK  status: ('A' for Active; 'I' for Inactive)
REMARK    1  A    between atoms: C_4  and  C_5
REMARK    2  A    between atoms: C_5  and  N_6
REMARK    3  A    between atoms: N_8  and  C_9
REMARK    4  A    between atoms: C_9  and  N_10
REMARK                            x       y       z     vdW  Elec       q    Type
REMARK                         _______ _______ _______ _____ _____    ______ ____
ROOT
ATOM      1  N   UNL     1       3.201   6.244  17.888  0.00  0.00    +0.000 N 
ATOM      2  C   UNL     1       4.058   6.059  18.956  0.00  0.00    +0.000 A 
ATOM      3  N   UNL     1       4.676   4.916  18.598  0.00  0.00    +0.000 N 
ATOM      4  C   UNL     1       3.590   4.043  18.780  0.00  0.00    +0.000 A 
ATOM      5  C   UNL     1       3.563   2.831  19.490  0.00  0.00    +0.000 A 
ATOM      6  C   UNL     1       2.424   2.051  19.454  0.00  0.00    +0.000 A 
ATOM      7  C   UNL     1       1.338   2.529  18.711  0.00  0.00    +0.000 A 
ATOM      8  C   UNL     1       1.285   3.866  18.052  0.00  0.00    +0.000 A 
ATOM      9  C   UNL     1       2.480   4.723  18.164  0.00  0.00    +0.000 A 
ENDROOT
BRANCH   1  10
ATOM     10  C   UNL     1       2.992   7.935  17.795  0.00  0.00    +0.000 C 
BRANCH  10  14
ATOM     11  C   UNL     1      -0.434  10.140  20.127  0.00  0.00    +0.000 A 
ATOM     12  C   UNL     1      -0.252  10.297  18.766  0.00  0.00    +0.000 A 
ATOM     13  C   UNL     1       0.812   9.589  18.066  0.00  0.00    +0.000 A 
ATOM     14  C   UNL     1       1.796   8.725  18.685  0.00  0.00    +0.000 A 
ATOM     15  C   UNL     1       1.467   8.522  20.035  0.00  0.00    +0.000 A 
ATOM     16  C   UNL     1       0.405   9.220  20.740  0.00  0.00    +0.000 A 
ENDBRANCH  10  14
ENDBRANCH   1  10
BRANCH   3  17
ATOM     17  C   UNL     1       6.048   4.613  17.833  0.00  0.00    +0.000 C 
BRANCH  17  18
ATOM     18  N   UNL     1       6.218   4.398  16.299  0.00  0.00    +0.000 N 
ATOM     19  N   UNL     1       4.975   4.117  15.895  0.00  0.00    +0.000 NA
ATOM     20  N   UNL     1       5.140   3.408  14.848  0.00  0.00    +0.000 NA
ATOM     21  C   UNL     1       6.229   3.925  14.257  0.00  0.00    +0.000 A 
ATOM     22  C   UNL     1       6.338   3.624  12.849  0.00  0.00    +0.000 A 
ATOM     23  C   UNL     1       7.051   4.327  11.927  0.00  0.00    +0.000 A 
ATOM     24  C   UNL     1       7.843   5.259  12.503  0.00  0.00    +0.000 A 
ATOM     25  C   UNL     1       7.868   5.413  13.985  0.00  0.00    +0.000 A 
ATOM     26  C   UNL     1       7.043   4.915  15.182  0.00  0.00    +0.000 A 
ENDBRANCH  17  18
ENDBRANCH   3  17
TORSDOF 4
ENDMDL
MODEL 8
REMARK VINA RESULT:      -8.8      1.381      7.621
REMARK  Name = 
REMARK  4 active torsions:
REMARK  status: ('A' for Active; 'I' for Inactive)
REMARK    1  A    between atoms: C_4  and  C_5
REMARK    2  A    between atoms: C_5  and  N_6
REMARK    3  A    between atoms: N_8  and  C_9
REMARK    4  A    between atoms: C_9  and  N_10
REMARK                            x       y       z     vdW  Elec       q    Type
REMARK                         _______ _______ _______ _____ _____    ______ ____
ROOT
ATOM      1  N   UNL     1       5.067   4.826  17.499  0.00  0.00    +0.000 N 
ATOM      2  C   UNL     1       4.040   5.595  16.987  0.00  0.00    +0.000 A 
ATOM      3  N   UNL     1       3.240   5.710  18.066  0.00  0.00    +0.000 N 
ATOM      4  C   UNL     1       2.783   4.383  18.111  0.00  0.00    +0.000 A 
ATOM      5  C   UNL     1       1.458   3.926  18.210  0.00  0.00    +0.000 A 
ATOM      6  C   UNL     1       1.218   2.574  18.363  0.00  0.00    +0.000 A 
ATOM      7  C   UNL     1       2.327   1.722  18.395  0.00  0.00    +0.000 A 
ATOM      8  C   UNL     1       3.736   2.154  18.164  0.00  0.00    +0.000 A 
ATOM      9  C   UNL     1       3.971   3.590  17.925  0.00  0.00    +0.000 A 
ENDROOT
BRANCH   1  10
ATOM     10  C   UNL     1       6.435   5.277  16.584  0.00  0.00    +0.000 C 
BRANCH  10  14
ATOM     11  C   UNL     1       6.770   3.919  12.103  0.00  0.00    +0.000 A 
ATOM     12  C   UNL     1       5.767   3.463  12.937  0.00  0.00    +0.000 A 
ATOM     13  C   UNL     1       5.680   3.912  14.320  0.00  0.00    +0.000 A 
ATOM     14  C   UNL     1       6.617   4.800  14.976  0.00  0.00    +0.000 A 
ATOM     15  C   UNL     1       7.525   5.311  14.035  0.00  0.00    +0.000 A 
ATOM     16  C   UNL     1       7.616   4.872  12.653  0.00  0.00    +0.000 A 
ENDBRANCH  10  14
ENDBRANCH   1  10
BRANCH   3  17
ATOM     17  C   UNL     1       3.102   6.824  19.206  0.00  0.00    +0.000 C 
BRANCH  17  18
ATOM     18  N   UNL     1       2.250   8.126  19.122  0.00  0.00    +0.000 N 
ATOM     19  N   UNL     1       2.014   8.246  17.811  0.00  0.00    +0.000 NA
ATOM     20  N   UNL     1       1.849   9.499  17.637  0.00  0.00    +0.000 NA
ATOM     21  C   UNL     1       1.223   9.915  18.750  0.00  0.00    +0.000 A 
ATOM     22  C   UNL     1       0.511  11.162  18.597  0.00  0.00    +0.000 A 
ATOM     23  C   UNL     1      -0.524  11.599  19.367  0.00  0.00    +0.000 A 
ATOM     24  C   UNL     1      -0.708  10.821  20.457  0.00  0.00    +0.000 A 
ATOM     25  C   UNL     1       0.180   9.650  20.703  0.00  0.00    +0.000 A 
ATOM     26  C   UNL     1       1.235   8.852  19.920  0.00  0.00    +0.000 A 
ENDBRANCH  17  18
ENDBRANCH   3  17
TORSDOF 4
ENDMDL
MODEL 9
REMARK VINA RESULT:      -8.6      1.445      7.666
REMARK  Name = 
REMARK  4 active torsions:
REMARK  status: ('A' for Active; 'I' for Inactive)
REMARK    1  A    between atoms: C_4  and  C_5
REMARK    2  A    between atoms: C_5  and  N_6
REMARK    3  A    between atoms: N_8  and  C_9
REMARK    4  A    between atoms: C_9  and  N_10
REMARK                            x       y       z     vdW  Elec       q    Type
REMARK                         _______ _______ _______ _____ _____    ______ ____
ROOT
ATOM      1  N   UNL     1       5.535   4.718  17.409  0.00  0.00    +0.000 N 
ATOM      2  C   UNL     1       4.654   5.194  16.457  0.00  0.00    +0.000 A 
ATOM      3  N   UNL     1       3.826   5.937  17.217  0.00  0.00    +0.000 N 
ATOM      4  C   UNL     1       3.183   4.884  17.889  0.00  0.00    +0.000 A 
ATOM      5  C   UNL     1       1.803   4.676  18.054  0.00  0.00    +0.000 A 
ATOM      6  C   UNL     1       1.366   3.639  18.855  0.00  0.00    +0.000 A 
ATOM      7  C   UNL     1       2.340   2.831  19.453  0.00  0.00    +0.000 A 
ATOM      8  C   UNL     1       3.806   2.942  19.200  0.00  0.00    +0.000 A 
ATOM      9  C   UNL     1       4.254   4.004  18.281  0.00  0.00    +0.000 A 
ENDROOT
BRANCH   1  10
ATOM     10  C   UNL     1       6.997   4.486  16.561  0.00  0.00    +0.000 C 
BRANCH  10  14
ATOM     11  C   UNL     1       6.949   4.273  11.872  0.00  0.00    +0.000 A 
ATOM     12  C   UNL     1       6.155   3.455  12.653  0.00  0.00    +0.000 A 
ATOM     13  C   UNL     1       6.180   3.553  14.106  0.00  0.00    +0.000 A 
ATOM     14  C   UNL     1       7.039   4.430  14.875  0.00  0.00    +0.000 A 
ATOM     15  C   UNL     1       7.716   5.307  14.012  0.00  0.00    +0.000 A 
ATOM     16  C   UNL     1       7.693   5.219  12.562  0.00  0.00    +0.000 A 
ENDBRANCH  10  14
ENDBRANCH   1  10
BRANCH   3  17
ATOM     17  C   UNL     1       3.790   7.492  17.591  0.00  0.00    +0.000 C 
BRANCH  17  18
ATOM     18  N   UNL     1       2.687   8.213  18.422  0.00  0.00    +0.000 N 
ATOM     19  N   UNL     1       1.902   8.746  17.480  0.00  0.00    +0.000 NA
ATOM     20  N   UNL     1       1.373   9.757  18.051  0.00  0.00    +0.000 NA
ATOM     21  C   UNL     1       1.189   9.369  19.323  0.00  0.00    +0.000 A 
ATOM     22  C   UNL     1       0.192  10.133  20.036  0.00  0.00    +0.000 A 
ATOM     23  C   UNL     1      -0.497   9.729  21.138  0.00  0.00    +0.000 A 
ATOM     24  C   UNL     1      -0.007   8.576  21.647  0.00  0.00    +0.000 A 
ATOM     25  C   UNL     1       1.163   7.909  21.009  0.00  0.00    +0.000 A 
ATOM     26  C   UNL     1       1.954   8.038  19.698  0.00  0.00    +0.000 A 
ENDBRANCH  17  18
ENDBRANCH   3  17
TORSDOF 4
ENDMDL
