MODEL 1
REMARK VINA RESULT:      -7.9      0.000      0.000
REMARK  Name = 
REMARK  11 active torsions:
REMARK  status: ('A' for Active; 'I' for Inactive)
REMARK    1  A    between atoms: C_1  and  C_2
REMARK    2  A    between atoms: C_4  and  N_5
REMARK    3  A    between atoms: C_7  and  C_8
REMARK    4  A    between atoms: C_8  and  C_9
REMARK    5  A    between atoms: C_13  and  O_14
REMARK    6  A    between atoms: O_14  and  C_15
REMARK    7  A    between atoms: C_15  and  C_16
REMARK    8  A    between atoms: C_16  and  N_17
REMARK    9  A    between atoms: N_17  and  C_18
REMARK   10  A    between atoms: C_18  and  C_19
REMARK   11  A    between atoms: C_19  and  C_22
REMARK                            x       y       z     vdW  Elec       q    Type
REMARK                         _______ _______ _______ _____ _____    ______ ____
ROOT
ATOM      1  C   UNL     1       1.770   4.777  20.872  0.00  0.00    +0.000 C 
ATOM      2  C   UNL     1       2.876   4.018  21.600  0.00  0.00    +0.000 C 
ATOM      3  N   UNL     1       2.213   2.859  22.208  0.00  0.00    +0.000 NA
ATOM      4  C   UNL     1       1.218   2.438  21.218  0.00  0.00    +0.000 C 
ATOM      5  C   UNL     1       0.793   3.676  20.406  0.00  0.00    +0.000 C 
ATOM      6  H   UNL     1       1.736   3.163  23.055  0.00  0.00    +0.000 HD
ENDROOT
BRANCH   1   7
ATOM      7  C   UNL     1       2.319   5.717  19.793  0.00  0.00    +0.000 C 
BRANCH   7  13
ATOM      8  C   UNL     1       1.709  10.289  17.798  0.00  0.00    +0.000 C 
ATOM      9  C   UNL     1       1.607   9.358  18.967  0.00  0.00    +0.000 A 
ATOM     10  C   UNL     1       0.937   9.736  20.133  0.00  0.00    +0.000 A 
ATOM     11  C   UNL     1       0.800   8.811  21.157  0.00  0.00    +0.000 A 
ATOM     12  N   UNL     1       1.260   7.549  21.077  0.00  0.00    +0.000 NA
ATOM     13  C   UNL     1       1.914   7.175  19.948  0.00  0.00    +0.000 A 
ATOM     14  C   UNL     1       2.110   8.057  18.884  0.00  0.00    +0.000 A 
BRANCH  11  15
ATOM     15  N   UNL     1       0.092   9.148  22.309  0.00  0.00    +0.000 N 
ATOM     16  H   UNL     1      -0.907   9.049  22.183  0.00  0.00    +0.000 HD
ATOM     17  H   UNL     1       0.360  10.095  22.559  0.00  0.00    +0.000 HD
ENDBRANCH  11  15
ENDBRANCH   7  13
ENDBRANCH   1   7
BRANCH   5  18
ATOM     18  O   UNL     1       0.816   3.426  18.992  0.00  0.00    +0.000 OA
BRANCH  18  19
ATOM     19  C   UNL     1       1.441   2.164  18.690  0.00  0.00    +0.000 C 
BRANCH  19  20
ATOM     20  C   UNL     1       2.577   2.328  17.665  0.00  0.00    +0.000 C 
BRANCH  20  21
ATOM     21  N   UNL     1       3.875   2.009  18.279  0.00  0.00    +0.000 NA
ATOM     22  H   UNL     1       4.435   1.448  17.633  0.00  0.00    +0.000 HD
BRANCH  21  23
ATOM     23  C   UNL     1       4.643   3.235  18.612  0.00  0.00    +0.000 C 
BRANCH  23  24
ATOM     24  C   UNL     1       4.925   4.184  17.405  0.00  0.00    +0.000 C 
ATOM     25  F   UNL     1       5.301   3.381  16.351  0.00  0.00    +0.000 F 
ATOM     26  F   UNL     1       3.731   4.711  16.998  0.00  0.00    +0.000 F 
BRANCH  24  27
ATOM     27  C   UNL     1       5.971   5.238  17.702  0.00  0.00    +0.000 A 
ATOM     28  C   UNL     1       6.803   5.070  18.827  0.00  0.00    +0.000 A 
ATOM     29  C   UNL     1       7.793   6.000  19.145  0.00  0.00    +0.000 A 
ATOM     30  C   UNL     1       7.977   7.118  18.341  0.00  0.00    +0.000 A 
ATOM     31  C   UNL     1       7.160   7.310  17.229  0.00  0.00    +0.000 A 
ATOM     32  C   UNL     1       6.155   6.384  16.913  0.00  0.00    +0.000 A 
ATOM     33 CL   UNL     1       5.165   6.737  15.542  0.00  0.00    +0.000 Cl
ENDBRANCH  24  27
ENDBRANCH  23  24
ENDBRANCH  21  23
ENDBRANCH  20  21
ENDBRANCH  19  20
ENDBRANCH  18  19
ENDBRANCH   5  18
TORSDOF 10
ENDMDL
MODEL 2
REMARK VINA RESULT:      -7.6      3.740      7.143
REMARK  Name = 
REMARK  11 active torsions:
REMARK  status: ('A' for Active; 'I' for Inactive)
REMARK    1  A    between atoms: C_1  and  C_2
REMARK    2  A    between atoms: C_4  and  N_5
REMARK    3  A    between atoms: C_7  and  C_8
REMARK    4  A    between atoms: C_8  and  C_9
REMARK    5  A    between atoms: C_13  and  O_14
REMARK    6  A    between atoms: O_14  and  C_15
REMARK    7  A    between atoms: C_15  and  C_16
REMARK    8  A    between atoms: C_16  and  N_17
REMARK    9  A    between atoms: N_17  and  C_18
REMARK   10  A    between atoms: C_18  and  C_19
REMARK   11  A    between atoms: C_19  and  C_22
REMARK                            x       y       z     vdW  Elec       q    Type
REMARK                         _______ _______ _______ _____ _____    ______ ____
ROOT
ATOM      1  C   UNL     1       5.800   5.630  17.056  0.00  0.00    +0.000 C 
ATOM      2  C   UNL     1       6.766   4.532  17.494  0.00  0.00    +0.000 C 
ATOM      3  N   UNL     1       7.045   4.804  18.908  0.00  0.00    +0.000 NA
ATOM      4  C   UNL     1       5.767   5.268  19.456  0.00  0.00    +0.000 C 
ATOM      5  C   UNL     1       4.970   5.936  18.320  0.00  0.00    +0.000 C 
ATOM      6  H   UNL     1       7.728   5.558  18.966  0.00  0.00    +0.000 HD
ENDROOT
BRANCH   1   7
ATOM      7  C   UNL     1       5.022   5.253  15.791  0.00  0.00    +0.000 C 
BRANCH   7  13
ATOM      8  C   UNL     1       5.614   2.512  11.620  0.00  0.00    +0.000 C 
ATOM      9  C   UNL     1       6.141   3.514  12.602  0.00  0.00    +0.000 A 
ATOM     10  C   UNL     1       7.309   4.233  12.340  0.00  0.00    +0.000 A 
ATOM     11  C   UNL     1       7.712   5.206  13.241  0.00  0.00    +0.000 A 
ATOM     12  N   UNL     1       7.018   5.517  14.352  0.00  0.00    +0.000 NA
ATOM     13  C   UNL     1       5.882   4.821  14.613  0.00  0.00    +0.000 A 
ATOM     14  C   UNL     1       5.425   3.812  13.765  0.00  0.00    +0.000 A 
BRANCH  11  15
ATOM     15  N   UNL     1       8.847   5.972  12.978  0.00  0.00    +0.000 N 
ATOM     16  H   UNL     1       8.613   6.878  12.592  0.00  0.00    +0.000 HD
ATOM     17  H   UNL     1       9.438   5.427  12.358  0.00  0.00    +0.000 HD
ENDBRANCH  11  15
ENDBRANCH   7  13
ENDBRANCH   1   7
BRANCH   5  18
ATOM     18  O   UNL     1       3.615   5.465  18.265  0.00  0.00    +0.000 OA
BRANCH  18  19
ATOM     19  C   UNL     1       2.679   6.511  18.590  0.00  0.00    +0.000 C 
BRANCH  19  20
ATOM     20  C   UNL     1       2.442   6.605  20.107  0.00  0.00    +0.000 C 
BRANCH  20  21
ATOM     21  N   UNL     1       1.528   5.542  20.553  0.00  0.00    +0.000 NA
ATOM     22  H   UNL     1       1.194   5.011  19.745  0.00  0.00    +0.000 HD
BRANCH  21  23
ATOM     23  C   UNL     1       2.193   4.598  21.484  0.00  0.00    +0.000 C 
BRANCH  23  24
ATOM     24  C   UNL     1       1.986   3.087  21.150  0.00  0.00    +0.000 C 
ATOM     25  F   UNL     1       2.696   2.375  22.089  0.00  0.00    +0.000 F 
ATOM     26  F   UNL     1       0.684   2.771  21.422  0.00  0.00    +0.000 F 
BRANCH  24  27
ATOM     27  C   UNL     1       2.405   2.721  19.740  0.00  0.00    +0.000 A 
ATOM     28  C   UNL     1       1.480   2.895  18.691  0.00  0.00    +0.000 A 
ATOM     29  C   UNL     1       1.812   2.588  17.371  0.00  0.00    +0.000 A 
ATOM     30  C   UNL     1       3.079   2.105  17.070  0.00  0.00    +0.000 A 
ATOM     31  C   UNL     1       4.006   1.916  18.092  0.00  0.00    +0.000 A 
ATOM     32  C   UNL     1       3.673   2.211  19.422  0.00  0.00    +0.000 A 
ATOM     33 CL   UNL     1       4.876   1.898  20.621  0.00  0.00    +0.000 Cl
ENDBRANCH  24  27
ENDBRANCH  23  24
ENDBRANCH  21  23
ENDBRANCH  20  21
ENDBRANCH  19  20
ENDBRANCH  18  19
ENDBRANCH   5  18
TORSDOF 10
ENDMDL
MODEL 3
REMARK VINA RESULT:      -7.6      3.847      7.233
REMARK  Name = 
REMARK  11 active torsions:
REMARK  status: ('A' for Active; 'I' for Inactive)
REMARK    1  A    between atoms: C_1  and  C_2
REMARK    2  A    between atoms: C_4  and  N_5
REMARK    3  A    between atoms: C_7  and  C_8
REMARK    4  A    between atoms: C_8  and  C_9
REMARK    5  A    between atoms: C_13  and  O_14
REMARK    6  A    between atoms: O_14  and  C_15
REMARK    7  A    between atoms: C_15  and  C_16
REMARK    8  A    between atoms: C_16  and  N_17
REMARK    9  A    between atoms: N_17  and  C_18
REMARK   10  A    between atoms: C_18  and  C_19
REMARK   11  A    between atoms: C_19  and  C_22
REMARK                            x       y       z     vdW  Elec       q    Type
REMARK                         _______ _______ _______ _____ _____    ______ ____
ROOT
ATOM      1  C   UNL     1       6.438   5.538  17.103  0.00  0.00    +0.000 C 
ATOM      2  C   UNL     1       7.353   4.434  17.626  0.00  0.00    +0.000 C 
ATOM      3  N   UNL     1       7.786   4.887  18.952  0.00  0.00    +0.000 NA
ATOM      4  C   UNL     1       6.608   5.543  19.525  0.00  0.00    +0.000 C 
ATOM      5  C   UNL     1       5.759   6.103  18.369  0.00  0.00    +0.000 C 
ATOM      6  H   UNL     1       8.528   5.575  18.834  0.00  0.00    +0.000 HD
ENDROOT
BRANCH   1   7
ATOM      7  C   UNL     1       5.514   5.049  15.982  0.00  0.00    +0.000 C 
BRANCH   7  13
ATOM      8  C   UNL     1       5.611   2.548  11.623  0.00  0.00    +0.000 C 
ATOM      9  C   UNL     1       6.235   3.521  12.577  0.00  0.00    +0.000 A 
ATOM     10  C   UNL     1       7.328   4.301  12.196  0.00  0.00    +0.000 A 
ATOM     11  C   UNL     1       7.820   5.245  13.086  0.00  0.00    +0.000 A 
ATOM     12  N   UNL     1       7.278   5.469  14.298  0.00  0.00    +0.000 NA
ATOM     13  C   UNL     1       6.216   4.713  14.674  0.00  0.00    +0.000 A 
ATOM     14  C   UNL     1       5.679   3.729  13.843  0.00  0.00    +0.000 A 
BRANCH  11  15
ATOM     15  N   UNL     1       8.878   6.071  12.712  0.00  0.00    +0.000 N 
ATOM     16  H   UNL     1       9.689   5.941  13.303  0.00  0.00    +0.000 HD
ATOM     17  H   UNL     1       8.533   7.026  12.730  0.00  0.00    +0.000 HD
ENDBRANCH  11  15
ENDBRANCH   7  13
ENDBRANCH   1   7
BRANCH   5  18
ATOM     18  O   UNL     1       4.372   5.755  18.500  0.00  0.00    +0.000 OA
BRANCH  18  19
ATOM     19  C   UNL     1       3.522   6.908  18.345  0.00  0.00    +0.000 C 
BRANCH  19  20
ATOM     20  C   UNL     1       2.447   6.968  19.444  0.00  0.00    +0.000 C 
BRANCH  20  21
ATOM     21  N   UNL     1       1.806   5.655  19.611  0.00  0.00    +0.000 NA
ATOM     22  H   UNL     1       2.255   4.969  18.999  0.00  0.00    +0.000 HD
BRANCH  21  23
ATOM     23  C   UNL     1       1.908   5.166  21.007  0.00  0.00    +0.000 C 
BRANCH  23  24
ATOM     24  C   UNL     1       1.922   3.612  21.162  0.00  0.00    +0.000 C 
ATOM     25  F   UNL     1       2.523   3.342  22.371  0.00  0.00    +0.000 F 
ATOM     26  F   UNL     1       0.632   3.197  21.343  0.00  0.00    +0.000 F 
BRANCH  24  27
ATOM     27  C   UNL     1       2.623   2.902  20.022  0.00  0.00    +0.000 A 
ATOM     28  C   UNL     1       4.019   2.722  20.090  0.00  0.00    +0.000 A 
ATOM     29  C   UNL     1       4.717   2.064  19.077  0.00  0.00    +0.000 A 
ATOM     30  C   UNL     1       4.034   1.567  17.975  0.00  0.00    +0.000 A 
ATOM     31  C   UNL     1       2.655   1.741  17.881  0.00  0.00    +0.000 A 
ATOM     32  C   UNL     1       1.951   2.413  18.891  0.00  0.00    +0.000 A 
ATOM     33 CL   UNL     1       0.251   2.619  18.659  0.00  0.00    +0.000 Cl
ENDBRANCH  24  27
ENDBRANCH  23  24
ENDBRANCH  21  23
ENDBRANCH  20  21
ENDBRANCH  19  20
ENDBRANCH  18  19
ENDBRANCH   5  18
TORSDOF 10
ENDMDL
MODEL 4
REMARK VINA RESULT:      -7.5      6.031      8.814
REMARK  Name = 
REMARK  11 active torsions:
REMARK  status: ('A' for Active; 'I' for Inactive)
REMARK    1  A    between atoms: C_1  and  C_2
REMARK    2  A    between atoms: C_4  and  N_5
REMARK    3  A    between atoms: C_7  and  C_8
REMARK    4  A    between atoms: C_8  and  C_9
REMARK    5  A    between atoms: C_13  and  O_14
REMARK    6  A    between atoms: O_14  and  C_15
REMARK    7  A    between atoms: C_15  and  C_16
REMARK    8  A    between atoms: C_16  and  N_17
REMARK    9  A    between atoms: N_17  and  C_18
REMARK   10  A    between atoms: C_18  and  C_19
REMARK   11  A    between atoms: C_19  and  C_22
REMARK                            x       y       z     vdW  Elec       q    Type
REMARK                         _______ _______ _______ _____ _____    ______ ____
ROOT
ATOM      1  C   UNL     1       6.576   4.829  17.371  0.00  0.00    +0.000 C 
ATOM      2  C   UNL     1       5.779   4.709  18.667  0.00  0.00    +0.000 C 
ATOM      3  N   UNL     1       6.748   4.955  19.741  0.00  0.00    +0.000 NA
ATOM      4  C   UNL     1       7.624   6.007  19.217  0.00  0.00    +0.000 C 
ATOM      5  C   UNL     1       7.655   5.888  17.682  0.00  0.00    +0.000 C 
ATOM      6  H   UNL     1       7.294   4.107  19.888  0.00  0.00    +0.000 HD
ENDROOT
BRANCH   1   7
ATOM      7  C   UNL     1       5.679   5.091  16.156  0.00  0.00    +0.000 C 
BRANCH   7  13
ATOM      8  C   UNL     1       5.442   2.723  11.729  0.00  0.00    +0.000 C 
ATOM      9  C   UNL     1       6.164   3.625  12.683  0.00  0.00    +0.000 A 
ATOM     10  C   UNL     1       7.291   4.345  12.280  0.00  0.00    +0.000 A 
ATOM     11  C   UNL     1       7.877   5.227  13.175  0.00  0.00    +0.000 A 
ATOM     12  N   UNL     1       7.399   5.448  14.414  0.00  0.00    +0.000 NA
ATOM     13  C   UNL     1       6.305   4.751  14.812  0.00  0.00    +0.000 A 
ATOM     14  C   UNL     1       5.674   3.829  13.976  0.00  0.00    +0.000 A 
BRANCH  11  15
ATOM     15  N   UNL     1       8.972   5.995  12.781  0.00  0.00    +0.000 N 
ATOM     16  H   UNL     1       9.122   6.786  13.393  0.00  0.00    +0.000 HD
ATOM     17  H   UNL     1       8.809   6.275  11.818  0.00  0.00    +0.000 HD
ENDBRANCH  11  15
ENDBRANCH   7  13
ENDBRANCH   1   7
BRANCH   5  18
ATOM     18  O   UNL     1       7.442   7.154  17.039  0.00  0.00    +0.000 OA
BRANCH  18  19
ATOM     19  C   UNL     1       7.233   8.205  18.002  0.00  0.00    +0.000 C 
BRANCH  19  20
ATOM     20  C   UNL     1       8.299   9.307  17.875  0.00  0.00    +0.000 C 
BRANCH  20  21
ATOM     21  N   UNL     1       9.147   9.345  19.077  0.00  0.00    +0.000 NA
ATOM     22  H   UNL     1      10.076   8.978  18.857  0.00  0.00    +0.000 HD
BRANCH  21  23
ATOM     23  C   UNL     1       9.306  10.726  19.595  0.00  0.00    +0.000 C 
BRANCH  23  24
ATOM     24  C   UNL     1      10.453  11.551  18.931  0.00  0.00    +0.000 C 
ATOM     25  F   UNL     1      11.622  11.168  19.549  0.00  0.00    +0.000 F 
ATOM     26  F   UNL     1      10.605  11.103  17.649  0.00  0.00    +0.000 F 
BRANCH  24  27
ATOM     27  C   UNL     1      10.243  13.049  19.018  0.00  0.00    +0.000 A 
ATOM     28  C   UNL     1      11.106  13.809  19.833  0.00  0.00    +0.000 A 
ATOM     29  C   UNL     1      10.970  15.193  19.943  0.00  0.00    +0.000 A 
ATOM     30  C   UNL     1       9.970  15.850  19.236  0.00  0.00    +0.000 A 
ATOM     31  C   UNL     1       9.100  15.118  18.432  0.00  0.00    +0.000 A 
ATOM     32  C   UNL     1       9.224  13.724  18.329  0.00  0.00    +0.000 A 
ATOM     33 CL   UNL     1       8.066  12.903  17.344  0.00  0.00    +0.000 Cl
ENDBRANCH  24  27
ENDBRANCH  23  24
ENDBRANCH  21  23
ENDBRANCH  20  21
ENDBRANCH  19  20
ENDBRANCH  18  19
ENDBRANCH   5  18
TORSDOF 10
ENDMDL
MODEL 5
REMARK VINA RESULT:      -7.5      3.909      7.672
REMARK  Name = 
REMARK  11 active torsions:
REMARK  status: ('A' for Active; 'I' for Inactive)
REMARK    1  A    between atoms: C_1  and  C_2
REMARK    2  A    between atoms: C_4  and  N_5
REMARK    3  A    between atoms: C_7  and  C_8
REMARK    4  A    between atoms: C_8  and  C_9
REMARK    5  A    between atoms: C_13  and  O_14
REMARK    6  A    between atoms: O_14  and  C_15
REMARK    7  A    between atoms: C_15  and  C_16
REMARK    8  A    between atoms: C_16  and  N_17
REMARK    9  A    between atoms: N_17  and  C_18
REMARK   10  A    between atoms: C_18  and  C_19
REMARK   11  A    between atoms: C_19  and  C_22
REMARK                            x       y       z     vdW  Elec       q    Type
REMARK                         _______ _______ _______ _____ _____    ______ ____
ROOT
ATOM      1  C   UNL     1       2.770   3.470  18.932  0.00  0.00    +0.000 C 
ATOM      2  C   UNL     1       1.564   2.565  19.162  0.00  0.00    +0.000 C 
ATOM      3  N   UNL     1       1.018   2.971  20.462  0.00  0.00    +0.000 NA
ATOM      4  C   UNL     1       1.176   4.427  20.493  0.00  0.00    +0.000 C 
ATOM      5  C   UNL     1       2.388   4.799  19.618  0.00  0.00    +0.000 C 
ATOM      6  H   UNL     1       1.588   2.557  21.198  0.00  0.00    +0.000 HD
ENDROOT
BRANCH   1   7
ATOM      7  C   UNL     1       3.172   3.545  17.455  0.00  0.00    +0.000 C 
BRANCH   7  13
ATOM      8  C   UNL     1       6.816   4.880  14.262  0.00  0.00    +0.000 C 
ATOM      9  C   UNL     1       6.350   4.602  15.658  0.00  0.00    +0.000 A 
ATOM     10  C   UNL     1       7.148   4.918  16.760  0.00  0.00    +0.000 A 
ATOM     11  C   UNL     1       6.641   4.716  18.034  0.00  0.00    +0.000 A 
ATOM     12  N   UNL     1       5.399   4.252  18.269  0.00  0.00    +0.000 NA
ATOM     13  C   UNL     1       4.619   3.941  17.203  0.00  0.00    +0.000 A 
ATOM     14  C   UNL     1       5.068   4.096  15.891  0.00  0.00    +0.000 A 
BRANCH  11  15
ATOM     15  N   UNL     1       7.397   5.071  19.149  0.00  0.00    +0.000 N 
ATOM     16  H   UNL     1       7.441   6.074  19.276  0.00  0.00    +0.000 HD
ATOM     17  H   UNL     1       8.316   4.654  19.032  0.00  0.00    +0.000 HD
ENDBRANCH  11  15
ENDBRANCH   7  13
ENDBRANCH   1   7
BRANCH   5  18
ATOM     18  O   UNL     1       2.087   5.868  18.708  0.00  0.00    +0.000 OA
BRANCH  18  19
ATOM     19  C   UNL     1       3.089   6.902  18.760  0.00  0.00    +0.000 C 
BRANCH  19  20
ATOM     20  C   UNL     1       2.603   8.194  18.081  0.00  0.00    +0.000 C 
BRANCH  20  21
ATOM     21  N   UNL     1       1.423   8.730  18.778  0.00  0.00    +0.000 NA
ATOM     22  H   UNL     1       1.607   8.779  19.783  0.00  0.00    +0.000 HD
BRANCH  21  23
ATOM     23  C   UNL     1       1.075  10.092  18.304  0.00  0.00    +0.000 C 
BRANCH  23  24
ATOM     24  C   UNL     1      -0.097  10.778  19.073  0.00  0.00    +0.000 C 
ATOM     25  F   UNL     1      -0.208  10.130  20.283  0.00  0.00    +0.000 F 
ATOM     26  F   UNL     1       0.308  12.038  19.419  0.00  0.00    +0.000 F 
BRANCH  24  27
ATOM     27  C   UNL     1      -1.407  10.761  18.311  0.00  0.00    +0.000 A 
ATOM     28  C   UNL     1      -1.501   9.980  17.142  0.00  0.00    +0.000 A 
ATOM     29  C   UNL     1      -2.683   9.914  16.405  0.00  0.00    +0.000 A 
ATOM     30  C   UNL     1      -3.801  10.625  16.824  0.00  0.00    +0.000 A 
ATOM     31  C   UNL     1      -3.728  11.412  17.971  0.00  0.00    +0.000 A 
ATOM     32  C   UNL     1      -2.537  11.491  18.708  0.00  0.00    +0.000 A 
ATOM     33 CL   UNL     1      -2.535  12.531  20.088  0.00  0.00    +0.000 Cl
ENDBRANCH  24  27
ENDBRANCH  23  24
ENDBRANCH  21  23
ENDBRANCH  20  21
ENDBRANCH  19  20
ENDBRANCH  18  19
ENDBRANCH   5  18
TORSDOF 10
ENDMDL
MODEL 6
REMARK VINA RESULT:      -7.5      1.402      1.907
REMARK  Name = 
REMARK  11 active torsions:
REMARK  status: ('A' for Active; 'I' for Inactive)
REMARK    1  A    between atoms: C_1  and  C_2
REMARK    2  A    between atoms: C_4  and  N_5
REMARK    3  A    between atoms: C_7  and  C_8
REMARK    4  A    between atoms: C_8  and  C_9
REMARK    5  A    between atoms: C_13  and  O_14
REMARK    6  A    between atoms: O_14  and  C_15
REMARK    7  A    between atoms: C_15  and  C_16
REMARK    8  A    between atoms: C_16  and  N_17
REMARK    9  A    between atoms: N_17  and  C_18
REMARK   10  A    between atoms: C_18  and  C_19
REMARK   11  A    between atoms: C_19  and  C_22
REMARK                            x       y       z     vdW  Elec       q    Type
REMARK                         _______ _______ _______ _____ _____    ______ ____
ROOT
ATOM      1  C   UNL     1       1.731   4.920  20.755  0.00  0.00    +0.000 C 
ATOM      2  C   UNL     1       2.653   4.071  21.626  0.00  0.00    +0.000 C 
ATOM      3  N   UNL     1       1.892   2.853  21.922  0.00  0.00    +0.000 NA
ATOM      4  C   UNL     1       1.162   2.561  20.685  0.00  0.00    +0.000 C 
ATOM      5  C   UNL     1       0.912   3.890  19.948  0.00  0.00    +0.000 C 
ATOM      6  H   UNL     1       1.224   3.058  22.664  0.00  0.00    +0.000 HD
ENDROOT
BRANCH   1   7
ATOM      7  C   UNL     1       2.496   5.977  19.951  0.00  0.00    +0.000 C 
BRANCH   7  13
ATOM      8  C   UNL     1       0.154   9.734  22.330  0.00  0.00    +0.000 C 
ATOM      9  C   UNL     1       0.740   9.153  21.080  0.00  0.00    +0.000 A 
ATOM     10  C   UNL     1       0.908   9.934  19.934  0.00  0.00    +0.000 A 
ATOM     11  C   UNL     1       1.529   9.375  18.827  0.00  0.00    +0.000 A 
ATOM     12  N   UNL     1       2.006   8.116  18.807  0.00  0.00    +0.000 NA
ATOM     13  C   UNL     1       1.844   7.351  19.917  0.00  0.00    +0.000 A 
ATOM     14  C   UNL     1       1.210   7.837  21.061  0.00  0.00    +0.000 A 
BRANCH  11  15
ATOM     15  N   UNL     1       1.754  10.148  17.690  0.00  0.00    +0.000 N 
ATOM     16  H   UNL     1       2.334   9.668  17.014  0.00  0.00    +0.000 HD
ATOM     17  H   UNL     1       2.163  11.024  18.000  0.00  0.00    +0.000 HD
ENDBRANCH  11  15
ENDBRANCH   7  13
ENDBRANCH   1   7
BRANCH   5  18
ATOM     18  O   UNL     1       1.267   3.810  18.559  0.00  0.00    +0.000 OA
BRANCH  18  19
ATOM     19  C   UNL     1       1.860   2.536  18.239  0.00  0.00    +0.000 C 
BRANCH  19  20
ATOM     20  C   UNL     1       3.395   2.626  18.183  0.00  0.00    +0.000 C 
BRANCH  20  21
ATOM     21  N   UNL     1       3.817   3.617  17.182  0.00  0.00    +0.000 NA
ATOM     22  H   UNL     1       4.222   4.432  17.650  0.00  0.00    +0.000 HD
BRANCH  21  23
ATOM     23  C   UNL     1       4.835   3.064  16.255  0.00  0.00    +0.000 C 
BRANCH  23  24
ATOM     24  C   UNL     1       5.761   4.126  15.583  0.00  0.00    +0.000 C 
ATOM     25  F   UNL     1       6.700   3.428  14.858  0.00  0.00    +0.000 F 
ATOM     26  F   UNL     1       5.031   4.774  14.626  0.00  0.00    +0.000 F 
BRANCH  24  27
ATOM     27  C   UNL     1       6.412   5.068  16.576  0.00  0.00    +0.000 A 
ATOM     28  C   UNL     1       7.375   4.554  17.467  0.00  0.00    +0.000 A 
ATOM     29  C   UNL     1       8.018   5.375  18.394  0.00  0.00    +0.000 A 
ATOM     30  C   UNL     1       7.716   6.730  18.447  0.00  0.00    +0.000 A 
ATOM     31  C   UNL     1       6.761   7.258  17.582  0.00  0.00    +0.000 A 
ATOM     32  C   UNL     1       6.102   6.434  16.657  0.00  0.00    +0.000 A 
ATOM     33 CL   UNL     1       4.900   7.176  15.662  0.00  0.00    +0.000 Cl
ENDBRANCH  24  27
ENDBRANCH  23  24
ENDBRANCH  21  23
ENDBRANCH  20  21
ENDBRANCH  19  20
ENDBRANCH  18  19
ENDBRANCH   5  18
TORSDOF 10
ENDMDL
MODEL 7
REMARK VINA RESULT:      -7.4      3.411      6.730
REMARK  Name = 
REMARK  11 active torsions:
REMARK  status: ('A' for Active; 'I' for Inactive)
REMARK    1  A    between atoms: C_1  and  C_2
REMARK    2  A    between atoms: C_4  and  N_5
REMARK    3  A    between atoms: C_7  and  C_8
REMARK    4  A    between atoms: C_8  and  C_9
REMARK    5  A    between atoms: C_13  and  O_14
REMARK    6  A    between atoms: O_14  and  C_15
REMARK    7  A    between atoms: C_15  and  C_16
REMARK    8  A    between atoms: C_16  and  N_17
REMARK    9  A    between atoms: N_17  and  C_18
REMARK   10  A    between atoms: C_18  and  C_19
REMARK   11  A    between atoms: C_19  and  C_22
REMARK                            x       y       z     vdW  Elec       q    Type
REMARK                         _______ _______ _______ _____ _____    ______ ____
ROOT
ATOM      1  C   UNL     1       3.898   2.390  18.932  0.00  0.00    +0.000 C 
ATOM      2  C   UNL     1       3.168   2.627  17.613  0.00  0.00    +0.000 C 
ATOM      3  N   UNL     1       1.878   1.944  17.758  0.00  0.00    +0.000 NA
ATOM      4  C   UNL     1       1.491   2.173  19.152  0.00  0.00    +0.000 C 
ATOM      5  C   UNL     1       2.774   2.338  19.988  0.00  0.00    +0.000 C 
ATOM      6  H   UNL     1       2.019   0.946  17.609  0.00  0.00    +0.000 HD
ENDROOT
BRANCH   1   7
ATOM      7  C   UNL     1       5.022   3.406  19.167  0.00  0.00    +0.000 C 
BRANCH   7  13
ATOM      8  C   UNL     1       3.354   7.832  17.470  0.00  0.00    +0.000 C 
ATOM      9  C   UNL     1       4.292   6.669  17.361  0.00  0.00    +0.000 A 
ATOM     10  C   UNL     1       5.380   6.701  16.485  0.00  0.00    +0.000 A 
ATOM     11  C   UNL     1       6.266   5.634  16.478  0.00  0.00    +0.000 A 
ATOM     12  N   UNL     1       6.147   4.571  17.296  0.00  0.00    +0.000 NA
ATOM     13  C   UNL     1       5.091   4.533  18.149  0.00  0.00    +0.000 A 
ATOM     14  C   UNL     1       4.146   5.559  18.197  0.00  0.00    +0.000 A 
BRANCH  11  15
ATOM     15  N   UNL     1       7.386   5.664  15.651  0.00  0.00    +0.000 N 
ATOM     16  H   UNL     1       7.277   6.318  14.886  0.00  0.00    +0.000 HD
ATOM     17  H   UNL     1       7.546   4.714  15.328  0.00  0.00    +0.000 HD
ENDBRANCH  11  15
ENDBRANCH   7  13
ENDBRANCH   1   7
BRANCH   5  18
ATOM     18  O   UNL     1       2.714   3.489  20.844  0.00  0.00    +0.000 OA
BRANCH  18  19
ATOM     19  C   UNL     1       1.416   4.112  20.800  0.00  0.00    +0.000 C 
BRANCH  19  20
ATOM     20  C   UNL     1       1.481   5.502  20.143  0.00  0.00    +0.000 C 
BRANCH  20  21
ATOM     21  N   UNL     1       1.843   6.525  21.136  0.00  0.00    +0.000 NA
ATOM     22  H   UNL     1       2.834   6.441  21.374  0.00  0.00    +0.000 HD
BRANCH  21  23
ATOM     23  C   UNL     1       1.605   7.897  20.624  0.00  0.00    +0.000 C 
BRANCH  23  24
ATOM     24  C   UNL     1       0.676   8.781  21.515  0.00  0.00    +0.000 C 
ATOM     25  F   UNL     1      -0.406   8.000  21.853  0.00  0.00    +0.000 F 
ATOM     26  F   UNL     1       1.310   8.987  22.708  0.00  0.00    +0.000 F 
BRANCH  24  27
ATOM     27  C   UNL     1       0.245  10.068  20.840  0.00  0.00    +0.000 A 
ATOM     28  C   UNL     1       0.698  10.332  19.532  0.00  0.00    +0.000 A 
ATOM     29  C   UNL     1       0.324  11.493  18.855  0.00  0.00    +0.000 A 
ATOM     30  C   UNL     1      -0.516  12.414  19.469  0.00  0.00    +0.000 A 
ATOM     31  C   UNL     1      -0.968  12.178  20.765  0.00  0.00    +0.000 A 
ATOM     32  C   UNL     1      -0.585  11.018  21.454  0.00  0.00    +0.000 A 
ATOM     33 CL   UNL     1      -1.161  10.841  23.074  0.00  0.00    +0.000 Cl
ENDBRANCH  24  27
ENDBRANCH  23  24
ENDBRANCH  21  23
ENDBRANCH  20  21
ENDBRANCH  19  20
ENDBRANCH  18  19
ENDBRANCH   5  18
TORSDOF 10
ENDMDL
MODEL 8
REMARK VINA RESULT:      -7.3      1.488      2.101
REMARK  Name = 
REMARK  11 active torsions:
REMARK  status: ('A' for Active; 'I' for Inactive)
REMARK    1  A    between atoms: C_1  and  C_2
REMARK    2  A    between atoms: C_4  and  N_5
REMARK    3  A    between atoms: C_7  and  C_8
REMARK    4  A    between atoms: C_8  and  C_9
REMARK    5  A    between atoms: C_13  and  O_14
REMARK    6  A    between atoms: O_14  and  C_15
REMARK    7  A    between atoms: C_15  and  C_16
REMARK    8  A    between atoms: C_16  and  N_17
REMARK    9  A    between atoms: N_17  and  C_18
REMARK   10  A    between atoms: C_18  and  C_19
REMARK   11  A    between atoms: C_19  and  C_22
REMARK                            x       y       z     vdW  Elec       q    Type
REMARK                         _______ _______ _______ _____ _____    ______ ____
ROOT
ATOM      1  C   UNL     1       1.531   4.743  20.393  0.00  0.00    +0.000 C 
ATOM      2  C   UNL     1       2.198   3.907  21.482  0.00  0.00    +0.000 C 
ATOM      3  N   UNL     1       1.450   2.646  21.515  0.00  0.00    +0.000 NA
ATOM      4  C   UNL     1       1.134   2.364  20.112  0.00  0.00    +0.000 C 
ATOM      5  C   UNL     1       1.043   3.706  19.360  0.00  0.00    +0.000 C 
ATOM      6  H   UNL     1       0.583   2.795  22.029  0.00  0.00    +0.000 HD
ENDROOT
BRANCH   1   7
ATOM      7  C   UNL     1       2.442   5.861  19.875  0.00  0.00    +0.000 C 
BRANCH   7  13
ATOM      8  C   UNL     1       0.277   9.656  22.358  0.00  0.00    +0.000 C 
ATOM      9  C   UNL     1       0.797   9.068  21.082  0.00  0.00    +0.000 A 
ATOM     10  C   UNL     1       0.932   9.848  19.932  0.00  0.00    +0.000 A 
ATOM     11  C   UNL     1       1.493   9.279  18.799  0.00  0.00    +0.000 A 
ATOM     12  N   UNL     1       1.945   8.012  18.756  0.00  0.00    +0.000 NA
ATOM     13  C   UNL     1       1.816   7.248  19.870  0.00  0.00    +0.000 A 
ATOM     14  C   UNL     1       1.241   7.743  21.041  0.00  0.00    +0.000 A 
BRANCH  11  15
ATOM     15  N   UNL     1       1.685  10.051  17.654  0.00  0.00    +0.000 N 
ATOM     16  H   UNL     1       1.981   9.492  16.864  0.00  0.00    +0.000 HD
ATOM     17  H   UNL     1       2.356  10.775  17.890  0.00  0.00    +0.000 HD
ENDBRANCH  11  15
ENDBRANCH   7  13
ENDBRANCH   1   7
BRANCH   5  18
ATOM     18  O   UNL     1       1.797   3.690  18.138  0.00  0.00    +0.000 OA
BRANCH  18  19
ATOM     19  C   UNL     1       2.461   2.426  17.944  0.00  0.00    +0.000 C 
BRANCH  19  20
ATOM     20  C   UNL     1       3.982   2.552  18.142  0.00  0.00    +0.000 C 
BRANCH  20  21
ATOM     21  N   UNL     1       4.422   3.932  17.886  0.00  0.00    +0.000 NA
ATOM     22  H   UNL     1       3.710   4.590  18.213  0.00  0.00    +0.000 HD
BRANCH  21  23
ATOM     23  C   UNL     1       5.694   4.242  18.584  0.00  0.00    +0.000 C 
BRANCH  23  24
ATOM     24  C   UNL     1       6.859   4.709  17.655  0.00  0.00    +0.000 C 
ATOM     25  F   UNL     1       7.963   3.963  18.002  0.00  0.00    +0.000 F 
ATOM     26  F   UNL     1       6.575   4.292  16.384  0.00  0.00    +0.000 F 
BRANCH  24  27
ATOM     27  C   UNL     1       7.140   6.195  17.745  0.00  0.00    +0.000 A 
ATOM     28  C   UNL     1       8.188   6.637  18.578  0.00  0.00    +0.000 A 
ATOM     29  C   UNL     1       8.502   7.992  18.692  0.00  0.00    +0.000 A 
ATOM     30  C   UNL     1       7.780   8.934  17.972  0.00  0.00    +0.000 A 
ATOM     31  C   UNL     1       6.734   8.521  17.150  0.00  0.00    +0.000 A 
ATOM     32  C   UNL     1       6.405   7.161  17.042  0.00  0.00    +0.000 A 
ATOM     33 CL   UNL     1       5.062   6.756  16.034  0.00  0.00    +0.000 Cl
ENDBRANCH  24  27
ENDBRANCH  23  24
ENDBRANCH  21  23
ENDBRANCH  20  21
ENDBRANCH  19  20
ENDBRANCH  18  19
ENDBRANCH   5  18
TORSDOF 10
ENDMDL
MODEL 9
REMARK VINA RESULT:      -7.3      3.394      7.297
REMARK  Name = 
REMARK  11 active torsions:
REMARK  status: ('A' for Active; 'I' for Inactive)
REMARK    1  A    between atoms: C_1  and  C_2
REMARK    2  A    between atoms: C_4  and  N_5
REMARK    3  A    between atoms: C_7  and  C_8
REMARK    4  A    between atoms: C_8  and  C_9
REMARK    5  A    between atoms: C_13  and  O_14
REMARK    6  A    between atoms: O_14  and  C_15
REMARK    7  A    between atoms: C_15  and  C_16
REMARK    8  A    between atoms: C_16  and  N_17
REMARK    9  A    between atoms: N_17  and  C_18
REMARK   10  A    between atoms: C_18  and  C_19
REMARK   11  A    between atoms: C_19  and  C_22
REMARK                            x       y       z     vdW  Elec       q    Type
REMARK                         _______ _______ _______ _____ _____    ______ ____
ROOT
ATOM      1  C   UNL     1       2.888   3.598  18.965  0.00  0.00    +0.000 C 
ATOM      2  C   UNL     1       1.852   2.511  19.237  0.00  0.00    +0.000 C 
ATOM      3  N   UNL     1       1.464   2.690  20.641  0.00  0.00    +0.000 NA
ATOM      4  C   UNL     1       1.444   4.142  20.839  0.00  0.00    +0.000 C 
ATOM      5  C   UNL     1       2.454   4.775  19.863  0.00  0.00    +0.000 C 
ATOM      6  H   UNL     1       2.186   2.282  21.233  0.00  0.00    +0.000 HD
ENDROOT
BRANCH   1   7
ATOM      7  C   UNL     1       3.048   3.891  17.469  0.00  0.00    +0.000 C 
BRANCH   7  13
ATOM      8  C   UNL     1       7.685   5.458  18.614  0.00  0.00    +0.000 C 
ATOM      9  C   UNL     1       6.689   4.974  17.604  0.00  0.00    +0.000 A 
ATOM     10  C   UNL     1       7.088   4.617  16.314  0.00  0.00    +0.000 A 
ATOM     11  C   UNL     1       6.144   4.099  15.440  0.00  0.00    +0.000 A 
ATOM     12  N   UNL     1       4.858   3.895  15.781  0.00  0.00    +0.000 NA
ATOM     13  C   UNL     1       4.463   4.241  17.032  0.00  0.00    +0.000 A 
ATOM     14  C   UNL     1       5.350   4.789  17.959  0.00  0.00    +0.000 A 
BRANCH  11  15
ATOM     15  N   UNL     1       6.526   3.688  14.165  0.00  0.00    +0.000 N 
ATOM     16  H   UNL     1       7.496   3.903  13.971  0.00  0.00    +0.000 HD
ATOM     17  H   UNL     1       5.892   4.130  13.506  0.00  0.00    +0.000 HD
ENDBRANCH  11  15
ENDBRANCH   7  13
ENDBRANCH   1   7
BRANCH   5  18
ATOM     18  O   UNL     1       1.888   5.885  19.149  0.00  0.00    +0.000 OA
BRANCH  18  19
ATOM     19  C   UNL     1       2.708   7.064  19.272  0.00  0.00    +0.000 C 
BRANCH  19  20
ATOM     20  C   UNL     1       2.754   7.859  17.956  0.00  0.00    +0.000 C 
BRANCH  20  21
ATOM     21  N   UNL     1       1.536   8.669  17.802  0.00  0.00    +0.000 NA
ATOM     22  H   UNL     1       0.732   8.163  18.181  0.00  0.00    +0.000 HD
BRANCH  21  23
ATOM     23  C   UNL     1       1.644   9.967  18.514  0.00  0.00    +0.000 C 
BRANCH  23  24
ATOM     24  C   UNL     1       0.282  10.593  18.951  0.00  0.00    +0.000 C 
ATOM     25  F   UNL     1       0.322  11.919  18.584  0.00  0.00    +0.000 F 
ATOM     26  F   UNL     1      -0.697  10.068  18.155  0.00  0.00    +0.000 F 
BRANCH  24  27
ATOM     27  C   UNL     1      -0.004  10.434  20.431  0.00  0.00    +0.000 A 
ATOM     28  C   UNL     1       0.694   9.446  21.154  0.00  0.00    +0.000 A 
ATOM     29  C   UNL     1       0.483   9.261  22.520  0.00  0.00    +0.000 A 
ATOM     30  C   UNL     1      -0.427  10.064  23.196  0.00  0.00    +0.000 A 
ATOM     31  C   UNL     1      -1.135  11.041  22.500  0.00  0.00    +0.000 A 
ATOM     32  C   UNL     1      -0.936  11.222  21.123  0.00  0.00    +0.000 A 
ATOM     33 CL   UNL     1      -1.897  12.427  20.343  0.00  0.00    +0.000 Cl
ENDBRANCH  24  27
ENDBRANCH  23  24
ENDBRANCH  21  23
ENDBRANCH  20  21
ENDBRANCH  19  20
ENDBRANCH  18  19
ENDBRANCH   5  18
TORSDOF 10
ENDMDL
