MODEL 1
REMARK VINA RESULT:      -8.1      0.000      0.000
REMARK  Name = 
REMARK  9 active torsions:
REMARK  status: ('A' for Active; 'I' for Inactive)
REMARK    1  A    between atoms: C_1  and  O_2
REMARK    2  A    between atoms: O_2  and  C_3
REMARK    3  A    between atoms: C_6  and  N_7
REMARK    4  A    between atoms: C_8  and  C_10
REMARK    5  A    between atoms: C_10  and  C_11
REMARK    6  A    between atoms: C_11  and  N_12
REMARK    7  A    between atoms: C_15  and  C_16
REMARK    8  A    between atoms: N_19  and  C_20
REMARK    9  A    between atoms: C_24  and  C_25
REMARK                            x       y       z     vdW  Elec       q    Type
REMARK                         _______ _______ _______ _____ _____    ______ ____
ROOT
ATOM      1  C   UNL     1       2.376   3.668  21.335  0.00  0.00    +0.000 C 
ENDROOT
BRANCH   1   3
ATOM      2  N   UNL     1       2.267   6.055  20.894  0.00  0.00    +0.000 N 
ATOM      3  C   UNL     1       1.626   4.836  20.733  0.00  0.00    +0.000 C 
ATOM      4  O   UNL     1       0.527   4.656  20.212  0.00  0.00    +0.000 OA
ATOM      5  H   UNL     1       3.072   6.074  21.504  0.00  0.00    +0.000 HD
BRANCH   2   9
ATOM      6  C   UNL     1       0.991   9.764  19.288  0.00  0.00    +0.000 A 
ATOM      7  C   UNL     1       0.623   9.390  20.572  0.00  0.00    +0.000 A 
ATOM      8  C   UNL     1       1.045   8.165  21.094  0.00  0.00    +0.000 A 
ATOM      9  C   UNL     1       1.853   7.294  20.351  0.00  0.00    +0.000 A 
ATOM     10  C   UNL     1       2.216   7.658  19.039  0.00  0.00    +0.000 A 
ATOM     11  C   UNL     1       3.082   6.816  18.142  0.00  0.00    +0.000 C 
ATOM     12  C   UNL     1       1.752   8.885  18.518  0.00  0.00    +0.000 A 
BRANCH   6  14
ATOM     13  C   UNL     1      -0.265  11.750  19.429  0.00  0.00    +0.000 C 
ATOM     14  O   UNL     1       0.640  10.940  18.684  0.00  0.00    +0.000 OA
ENDBRANCH   6  14
ENDBRANCH   2   9
ENDBRANCH   1   3
BRANCH   1  15
ATOM     15  C   UNL     1       2.998   2.798  20.239  0.00  0.00    +0.000 C 
BRANCH  15  16
ATOM     16  N   UNL     1       3.563   3.562  19.109  0.00  0.00    +0.000 NA
ATOM     17  C   UNL     1       4.963   3.933  19.342  0.00  0.00    +0.000 C 
ATOM     18  C   UNL     1       5.748   4.281  18.116  0.00  0.00    +0.000 C 
ATOM     19  C   UNL     1       5.285   4.143  16.862  0.00  0.00    +0.000 C 
ATOM     20  C   UNL     1       3.894   3.613  16.638  0.00  0.00    +0.000 C 
ATOM     21  C   UNL     1       3.398   2.809  17.854  0.00  0.00    +0.000 C 
BRANCH  19  22
ATOM     22  C   UNL     1       6.056   4.403  15.690  0.00  0.00    +0.000 A 
ATOM     23  C   UNL     1       7.149   5.277  15.497  0.00  0.00    +0.000 A 
ATOM     24  N   UNL     1       7.598   5.261  14.238  0.00  0.00    +0.000 NA
ATOM     25  N   UNL     1       6.793   4.375  13.627  0.00  0.00    +0.000 N 
ATOM     26  C   UNL     1       6.966   4.075  12.226  0.00  0.00    +0.000 C 
ATOM     27  C   UNL     1       5.851   3.837  14.451  0.00  0.00    +0.000 A 
ENDBRANCH  19  22
ENDBRANCH  15  16
ENDBRANCH   1  15
TORSDOF 6
ENDMDL
MODEL 2
REMARK VINA RESULT:      -7.0      0.794      1.070
REMARK  Name = 
REMARK  9 active torsions:
REMARK  status: ('A' for Active; 'I' for Inactive)
REMARK    1  A    between atoms: C_1  and  O_2
REMARK    2  A    between atoms: O_2  and  C_3
REMARK    3  A    between atoms: C_6  and  N_7
REMARK    4  A    between atoms: C_8  and  C_10
REMARK    5  A    between atoms: C_10  and  C_11
REMARK    6  A    between atoms: C_11  and  N_12
REMARK    7  A    between atoms: C_15  and  C_16
REMARK    8  A    between atoms: N_19  and  C_20
REMARK    9  A    between atoms: C_24  and  C_25
REMARK                            x       y       z     vdW  Elec       q    Type
REMARK                         _______ _______ _______ _____ _____    ______ ____
ROOT
ATOM      1  C   UNL     1       2.413   3.267  20.785  0.00  0.00    +0.000 C 
ENDROOT
BRANCH   1   3
ATOM      2  N   UNL     1       2.350   5.693  20.673  0.00  0.00    +0.000 N 
ATOM      3  C   UNL     1       1.616   4.526  20.525  0.00  0.00    +0.000 C 
ATOM      4  O   UNL     1       0.417   4.450  20.263  0.00  0.00    +0.000 OA
ATOM      5  H   UNL     1       3.274   5.608  21.071  0.00  0.00    +0.000 HD
BRANCH   2   9
ATOM      6  C   UNL     1       0.958   9.615  19.867  0.00  0.00    +0.000 A 
ATOM      7  C   UNL     1       0.636   8.986  21.061  0.00  0.00    +0.000 A 
ATOM      8  C   UNL     1       1.096   7.693  21.319  0.00  0.00    +0.000 A 
ATOM      9  C   UNL     1       1.897   7.005  20.397  0.00  0.00    +0.000 A 
ATOM     10  C   UNL     1       2.213   7.630  19.174  0.00  0.00    +0.000 A 
ATOM     11  C   UNL     1       3.066   7.002  18.105  0.00  0.00    +0.000 C 
ATOM     12  C   UNL     1       1.711   8.924  18.918  0.00  0.00    +0.000 A 
BRANCH   6  14
ATOM     13  C   UNL     1       1.492  11.585  18.695  0.00  0.00    +0.000 C 
ATOM     14  O   UNL     1       0.567  10.878  19.517  0.00  0.00    +0.000 OA
ENDBRANCH   6  14
ENDBRANCH   2   9
ENDBRANCH   1   3
BRANCH   1  15
ATOM     15  C   UNL     1       3.904   3.504  20.525  0.00  0.00    +0.000 C 
BRANCH  15  16
ATOM     16  N   UNL     1       4.203   4.061  19.191  0.00  0.00    +0.000 NA
ATOM     17  C   UNL     1       5.579   4.561  19.100  0.00  0.00    +0.000 C 
ATOM     18  C   UNL     1       6.119   4.707  17.712  0.00  0.00    +0.000 C 
ATOM     19  C   UNL     1       5.476   4.291  16.607  0.00  0.00    +0.000 C 
ATOM     20  C   UNL     1       4.126   3.638  16.735  0.00  0.00    +0.000 C 
ATOM     21  C   UNL     1       3.913   3.063  18.147  0.00  0.00    +0.000 C 
BRANCH  19  22
ATOM     22  C   UNL     1       6.021   4.360  15.290  0.00  0.00    +0.000 A 
ATOM     23  C   UNL     1       5.689   3.626  14.130  0.00  0.00    +0.000 A 
ATOM     24  N   UNL     1       6.446   3.962  13.080  0.00  0.00    +0.000 NA
ATOM     25  N   UNL     1       7.260   4.913  13.569  0.00  0.00    +0.000 N 
ATOM     26  C   UNL     1       8.243   5.541  12.721  0.00  0.00    +0.000 C 
ATOM     27  C   UNL     1       7.049   5.184  14.888  0.00  0.00    +0.000 A 
ENDBRANCH  19  22
ENDBRANCH  15  16
ENDBRANCH   1  15
TORSDOF 6
ENDMDL
MODEL 3
REMARK VINA RESULT:      -7.0      6.411      8.234
REMARK  Name = 
REMARK  9 active torsions:
REMARK  status: ('A' for Active; 'I' for Inactive)
REMARK    1  A    between atoms: C_1  and  O_2
REMARK    2  A    between atoms: O_2  and  C_3
REMARK    3  A    between atoms: C_6  and  N_7
REMARK    4  A    between atoms: C_8  and  C_10
REMARK    5  A    between atoms: C_10  and  C_11
REMARK    6  A    between atoms: C_11  and  N_12
REMARK    7  A    between atoms: C_15  and  C_16
REMARK    8  A    between atoms: N_19  and  C_20
REMARK    9  A    between atoms: C_24  and  C_25
REMARK                            x       y       z     vdW  Elec       q    Type
REMARK                         _______ _______ _______ _____ _____    ______ ____
ROOT
ATOM      1  C   UNL     1       8.312   8.112  18.505  0.00  0.00    +0.000 C 
ENDROOT
BRANCH   1   3
ATOM      2  N   UNL     1       9.561   9.957  19.474  0.00  0.00    +0.000 N 
ATOM      3  C   UNL     1       8.667   9.583  18.482  0.00  0.00    +0.000 C 
ATOM      4  O   UNL     1       8.133  10.330  17.665  0.00  0.00    +0.000 OA
ATOM      5  H   UNL     1       9.771   9.273  20.186  0.00  0.00    +0.000 HD
BRANCH   2   9
ATOM      6  C   UNL     1      11.347  13.774  19.929  0.00  0.00    +0.000 A 
ATOM      7  C   UNL     1      11.719  12.944  18.881  0.00  0.00    +0.000 A 
ATOM      8  C   UNL     1      11.128  11.687  18.739  0.00  0.00    +0.000 A 
ATOM      9  C   UNL     1      10.145  11.236  19.631  0.00  0.00    +0.000 A 
ATOM     10  C   UNL     1       9.775  12.066  20.708  0.00  0.00    +0.000 A 
ATOM     11  C   UNL     1       8.732  11.702  21.730  0.00  0.00    +0.000 C 
ATOM     12  C   UNL     1      10.408  13.319  20.854  0.00  0.00    +0.000 A 
BRANCH   6  14
ATOM     13  C   UNL     1      11.003  16.097  19.765  0.00  0.00    +0.000 C 
ATOM     14  O   UNL     1      11.855  15.024  20.156  0.00  0.00    +0.000 OA
ENDBRANCH   6  14
ENDBRANCH   2   9
ENDBRANCH   1   3
BRANCH   1  15
ATOM     15  C   UNL     1       7.555   7.716  17.234  0.00  0.00    +0.000 C 
BRANCH  15  16
ATOM     16  N   UNL     1       6.717   6.511  17.381  0.00  0.00    +0.000 NA
ATOM     17  C   UNL     1       6.936   5.842  18.668  0.00  0.00    +0.000 C 
ATOM     18  C   UNL     1       5.843   4.918  19.107  0.00  0.00    +0.000 C 
ATOM     19  C   UNL     1       4.667   4.788  18.468  0.00  0.00    +0.000 C 
ATOM     20  C   UNL     1       4.400   5.601  17.230  0.00  0.00    +0.000 C 
ATOM     21  C   UNL     1       5.299   6.850  17.175  0.00  0.00    +0.000 C 
BRANCH  19  22
ATOM     22  C   UNL     1       3.594   3.965  18.926  0.00  0.00    +0.000 A 
ATOM     23  C   UNL     1       2.771   3.066  18.213  0.00  0.00    +0.000 A 
ATOM     24  N   UNL     1       1.851   2.490  18.993  0.00  0.00    +0.000 NA
ATOM     25  N   UNL     1       2.087   3.020  20.205  0.00  0.00    +0.000 N 
ATOM     26  C   UNL     1       1.284   2.637  21.340  0.00  0.00    +0.000 C 
ATOM     27  C   UNL     1       3.118   3.912  20.217  0.00  0.00    +0.000 A 
ENDBRANCH  19  22
ENDBRANCH  15  16
ENDBRANCH   1  15
TORSDOF 6
ENDMDL
MODEL 4
REMARK VINA RESULT:      -6.8      7.402      9.568
REMARK  Name = 
REMARK  9 active torsions:
REMARK  status: ('A' for Active; 'I' for Inactive)
REMARK    1  A    between atoms: C_1  and  O_2
REMARK    2  A    between atoms: O_2  and  C_3
REMARK    3  A    between atoms: C_6  and  N_7
REMARK    4  A    between atoms: C_8  and  C_10
REMARK    5  A    between atoms: C_10  and  C_11
REMARK    6  A    between atoms: C_11  and  N_12
REMARK    7  A    between atoms: C_15  and  C_16
REMARK    8  A    between atoms: N_19  and  C_20
REMARK    9  A    between atoms: C_24  and  C_25
REMARK                            x       y       z     vdW  Elec       q    Type
REMARK                         _______ _______ _______ _____ _____    ______ ____
ROOT
ATOM      1  C   UNL     1       8.012   8.720  17.570  0.00  0.00    +0.000 C 
ENDROOT
BRANCH   1   3
ATOM      2  N   UNL     1       6.251   7.048  17.482  0.00  0.00    +0.000 N 
ATOM      3  C   UNL     1       7.503   7.359  17.992  0.00  0.00    +0.000 C 
ATOM      4  O   UNL     1       8.167   6.667  18.761  0.00  0.00    +0.000 OA
ATOM      5  H   UNL     1       5.747   7.789  17.016  0.00  0.00    +0.000 HD
BRANCH   2   9
ATOM      6  C   UNL     1       4.244   3.343  17.945  0.00  0.00    +0.000 A 
ATOM      7  C   UNL     1       4.530   4.131  19.051  0.00  0.00    +0.000 A 
ATOM      8  C   UNL     1       5.194   5.350  18.891  0.00  0.00    +0.000 A 
ATOM      9  C   UNL     1       5.575   5.813  17.624  0.00  0.00    +0.000 A 
ATOM     10  C   UNL     1       5.305   5.010  16.498  0.00  0.00    +0.000 A 
ATOM     11  C   UNL     1       5.657   5.395  15.087  0.00  0.00    +0.000 C 
ATOM     12  C   UNL     1       4.663   3.767  16.684  0.00  0.00    +0.000 A 
BRANCH   6  14
ATOM     13  C   UNL     1       2.467   2.098  18.858  0.00  0.00    +0.000 C 
ATOM     14  O   UNL     1       3.595   2.140  17.987  0.00  0.00    +0.000 OA
ENDBRANCH   6  14
ENDBRANCH   2   9
ENDBRANCH   1   3
BRANCH   1  15
ATOM     15  C   UNL     1       8.750   9.405  18.724  0.00  0.00    +0.000 C 
BRANCH  15  16
ATOM     16  N   UNL     1       9.496  10.615  18.329  0.00  0.00    +0.000 NA
ATOM     17  C   UNL     1       8.624  11.627  17.724  0.00  0.00    +0.000 C 
ATOM     18  C   UNL     1       9.164  13.023  17.720  0.00  0.00    +0.000 C 
ATOM     19  C   UNL     1      10.299  13.391  18.340  0.00  0.00    +0.000 C 
ATOM     20  C   UNL     1      11.104  12.363  19.089  0.00  0.00    +0.000 C 
ATOM     21  C   UNL     1      10.239  11.152  19.482  0.00  0.00    +0.000 C 
BRANCH  19  22
ATOM     22  C   UNL     1      10.778  14.734  18.401  0.00  0.00    +0.000 A 
ATOM     23  C   UNL     1      11.840  15.287  19.151  0.00  0.00    +0.000 A 
ATOM     24  N   UNL     1      11.968  16.603  18.959  0.00  0.00    +0.000 NA
ATOM     25  N   UNL     1      10.989  16.892  18.084  0.00  0.00    +0.000 N 
ATOM     26  C   UNL     1      10.800  18.244  17.618  0.00  0.00    +0.000 C 
ATOM     27  C   UNL     1      10.246  15.808  17.722  0.00  0.00    +0.000 A 
ENDBRANCH  19  22
ENDBRANCH  15  16
ENDBRANCH   1  15
TORSDOF 6
ENDMDL
MODEL 5
REMARK VINA RESULT:      -6.7      6.523      8.307
REMARK  Name = 
REMARK  9 active torsions:
REMARK  status: ('A' for Active; 'I' for Inactive)
REMARK    1  A    between atoms: C_1  and  O_2
REMARK    2  A    between atoms: O_2  and  C_3
REMARK    3  A    between atoms: C_6  and  N_7
REMARK    4  A    between atoms: C_8  and  C_10
REMARK    5  A    between atoms: C_10  and  C_11
REMARK    6  A    between atoms: C_11  and  N_12
REMARK    7  A    between atoms: C_15  and  C_16
REMARK    8  A    between atoms: N_19  and  C_20
REMARK    9  A    between atoms: C_24  and  C_25
REMARK                            x       y       z     vdW  Elec       q    Type
REMARK                         _______ _______ _______ _____ _____    ______ ____
ROOT
ATOM      1  C   UNL     1       8.422   8.261  18.561  0.00  0.00    +0.000 C 
ENDROOT
BRANCH   1   3
ATOM      2  N   UNL     1       9.792  10.166  19.187  0.00  0.00    +0.000 N 
ATOM      3  C   UNL     1       8.719   9.737  18.421  0.00  0.00    +0.000 C 
ATOM      4  O   UNL     1       8.001  10.443  17.716  0.00  0.00    +0.000 OA
ATOM      5  H   UNL     1      10.170   9.512  19.858  0.00  0.00    +0.000 HD
BRANCH   2   9
ATOM      6  C   UNL     1      11.517  14.039  19.142  0.00  0.00    +0.000 A 
ATOM      7  C   UNL     1      11.734  13.160  18.090  0.00  0.00    +0.000 A 
ATOM      8  C   UNL     1      11.164  11.885  18.114  0.00  0.00    +0.000 A 
ATOM      9  C   UNL     1      10.357  11.464  19.179  0.00  0.00    +0.000 A 
ATOM     10  C   UNL     1      10.147  12.344  20.259  0.00  0.00    +0.000 A 
ATOM     11  C   UNL     1       9.299  12.016  21.458  0.00  0.00    +0.000 C 
ATOM     12  C   UNL     1      10.758  13.616  20.233  0.00  0.00    +0.000 A 
BRANCH   6  14
ATOM     13  C   UNL     1      12.333  15.905  17.962  0.00  0.00    +0.000 C 
ATOM     14  O   UNL     1      12.019  15.308  19.218  0.00  0.00    +0.000 OA
ENDBRANCH   6  14
ENDBRANCH   2   9
ENDBRANCH   1   3
BRANCH   1  15
ATOM     15  C   UNL     1       7.671   7.738  17.334  0.00  0.00    +0.000 C 
BRANCH  15  16
ATOM     16  N   UNL     1       6.403   7.052  17.649  0.00  0.00    +0.000 NA
ATOM     17  C   UNL     1       5.712   6.590  16.439  0.00  0.00    +0.000 C 
ATOM     18  C   UNL     1       4.698   5.510  16.651  0.00  0.00    +0.000 C 
ATOM     19  C   UNL     1       4.501   4.883  17.824  0.00  0.00    +0.000 C 
ATOM     20  C   UNL     1       5.330   5.267  19.020  0.00  0.00    +0.000 C 
ATOM     21  C   UNL     1       6.643   5.950  18.596  0.00  0.00    +0.000 C 
BRANCH  19  22
ATOM     22  C   UNL     1       3.588   3.802  18.010  0.00  0.00    +0.000 A 
ATOM     23  C   UNL     1       3.714   2.437  17.667  0.00  0.00    +0.000 A 
ATOM     24  N   UNL     1       2.624   1.730  17.985  0.00  0.00    +0.000 NA
ATOM     25  N   UNL     1       1.803   2.643  18.533  0.00  0.00    +0.000 N 
ATOM     26  C   UNL     1       0.499   2.258  19.013  0.00  0.00    +0.000 C 
ATOM     27  C   UNL     1       2.332   3.898  18.567  0.00  0.00    +0.000 A 
ENDBRANCH  19  22
ENDBRANCH  15  16
ENDBRANCH   1  15
TORSDOF 6
ENDMDL
MODEL 6
REMARK VINA RESULT:      -6.6      4.069      9.961
REMARK  Name = 
REMARK  9 active torsions:
REMARK  status: ('A' for Active; 'I' for Inactive)
REMARK    1  A    between atoms: C_1  and  O_2
REMARK    2  A    between atoms: O_2  and  C_3
REMARK    3  A    between atoms: C_6  and  N_7
REMARK    4  A    between atoms: C_8  and  C_10
REMARK    5  A    between atoms: C_10  and  C_11
REMARK    6  A    between atoms: C_11  and  N_12
REMARK    7  A    between atoms: C_15  and  C_16
REMARK    8  A    between atoms: N_19  and  C_20
REMARK    9  A    between atoms: C_24  and  C_25
REMARK                            x       y       z     vdW  Elec       q    Type
REMARK                         _______ _______ _______ _____ _____    ______ ____
ROOT
ATOM      1  C   UNL     1       1.153   7.692  20.989  0.00  0.00    +0.000 C 
ENDROOT
BRANCH   1   3
ATOM      2  N   UNL     1       2.700   6.105  19.993  0.00  0.00    +0.000 N 
ATOM      3  C   UNL     1       2.084   7.340  19.850  0.00  0.00    +0.000 C 
ATOM      4  O   UNL     1       2.273   8.145  18.940  0.00  0.00    +0.000 OA
ATOM      5  H   UNL     1       2.591   5.637  20.881  0.00  0.00    +0.000 HD
BRANCH   2   9
ATOM      6  C   UNL     1       5.234   4.249  17.147  0.00  0.00    +0.000 A 
ATOM      7  C   UNL     1       5.770   5.024  18.165  0.00  0.00    +0.000 A 
ATOM      8  C   UNL     1       4.929   5.634  19.098  0.00  0.00    +0.000 A 
ATOM      9  C   UNL     1       3.537   5.475  19.042  0.00  0.00    +0.000 A 
ATOM     10  C   UNL     1       2.984   4.704  18.000  0.00  0.00    +0.000 A 
ATOM     11  C   UNL     1       1.511   4.453  17.831  0.00  0.00    +0.000 C 
ATOM     12  C   UNL     1       3.849   4.123  17.048  0.00  0.00    +0.000 A 
BRANCH   6  14
ATOM     13  C   UNL     1       6.018   4.265  14.927  0.00  0.00    +0.000 C 
ATOM     14  O   UNL     1       5.965   3.602  16.188  0.00  0.00    +0.000 OA
ENDBRANCH   6  14
ENDBRANCH   2   9
ENDBRANCH   1   3
BRANCH   1  15
ATOM     15  C   UNL     1       1.792   8.733  21.911  0.00  0.00    +0.000 C 
BRANCH  15  16
ATOM     16  N   UNL     1       0.942   9.909  22.176  0.00  0.00    +0.000 NA
ATOM     17  C   UNL     1       0.691  10.692  20.961  0.00  0.00    +0.000 C 
ATOM     18  C   UNL     1      -0.497  11.601  21.015  0.00  0.00    +0.000 C 
ATOM     19  C   UNL     1      -1.379  11.626  22.030  0.00  0.00    +0.000 C 
ATOM     20  C   UNL     1      -1.188  10.702  23.202  0.00  0.00    +0.000 C 
ATOM     21  C   UNL     1      -0.313   9.493  22.827  0.00  0.00    +0.000 C 
BRANCH  19  22
ATOM     22  C   UNL     1      -2.553  12.437  22.050  0.00  0.00    +0.000 A 
ATOM     23  C   UNL     1      -3.217  13.100  20.994  0.00  0.00    +0.000 A 
ATOM     24  N   UNL     1      -4.282  13.788  21.415  0.00  0.00    +0.000 NA
ATOM     25  N   UNL     1      -4.301  13.563  22.740  0.00  0.00    +0.000 N 
ATOM     26  C   UNL     1      -5.328  14.148  23.567  0.00  0.00    +0.000 C 
ATOM     27  C   UNL     1      -3.284  12.764  23.170  0.00  0.00    +0.000 A 
ENDBRANCH  19  22
ENDBRANCH  15  16
ENDBRANCH   1  15
TORSDOF 6
ENDMDL
MODEL 7
REMARK VINA RESULT:      -6.6      0.975      1.600
REMARK  Name = 
REMARK  9 active torsions:
REMARK  status: ('A' for Active; 'I' for Inactive)
REMARK    1  A    between atoms: C_1  and  O_2
REMARK    2  A    between atoms: O_2  and  C_3
REMARK    3  A    between atoms: C_6  and  N_7
REMARK    4  A    between atoms: C_8  and  C_10
REMARK    5  A    between atoms: C_10  and  C_11
REMARK    6  A    between atoms: C_11  and  N_12
REMARK    7  A    between atoms: C_15  and  C_16
REMARK    8  A    between atoms: N_19  and  C_20
REMARK    9  A    between atoms: C_24  and  C_25
REMARK                            x       y       z     vdW  Elec       q    Type
REMARK                         _______ _______ _______ _____ _____    ______ ____
ROOT
ATOM      1  C   UNL     1       2.869   3.640  20.198  0.00  0.00    +0.000 C 
ENDROOT
BRANCH   1   3
ATOM      2  N   UNL     1       2.599   6.054  20.162  0.00  0.00    +0.000 N 
ATOM      3  C   UNL     1       1.942   4.835  20.241  0.00  0.00    +0.000 C 
ATOM      4  O   UNL     1       0.733   4.668  20.390  0.00  0.00    +0.000 OA
ATOM      5  H   UNL     1       3.606   6.039  20.230  0.00  0.00    +0.000 HD
BRANCH   2   9
ATOM      6  C   UNL     1       0.735   9.854  19.935  0.00  0.00    +0.000 A 
ATOM      7  C   UNL     1       0.637   9.091  21.089  0.00  0.00    +0.000 A 
ATOM      8  C   UNL     1       1.252   7.838  21.156  0.00  0.00    +0.000 A 
ATOM      9  C   UNL     1       1.987   7.327  20.078  0.00  0.00    +0.000 A 
ATOM     10  C   UNL     1       2.076   8.088  18.896  0.00  0.00    +0.000 A 
ATOM     11  C   UNL     1       2.837   7.655  17.672  0.00  0.00    +0.000 C 
ATOM     12  C   UNL     1       1.420   9.337  18.836  0.00  0.00    +0.000 A 
BRANCH   6  14
ATOM     13  C   UNL     1      -0.496  11.282  18.525  0.00  0.00    +0.000 C 
ATOM     14  O   UNL     1       0.180  11.093  19.765  0.00  0.00    +0.000 OA
ENDBRANCH   6  14
ENDBRANCH   2   9
ENDBRANCH   1   3
BRANCH   1  15
ATOM     15  C   UNL     1       4.333   4.088  20.157  0.00  0.00    +0.000 C 
BRANCH  15  16
ATOM     16  N   UNL     1       5.022   3.786  18.888  0.00  0.00    +0.000 NA
ATOM     17  C   UNL     1       4.077   3.499  17.803  0.00  0.00    +0.000 C 
ATOM     18  C   UNL     1       4.627   3.640  16.418  0.00  0.00    +0.000 C 
ATOM     19  C   UNL     1       5.849   4.126  16.140  0.00  0.00    +0.000 C 
ATOM     20  C   UNL     1       6.749   4.560  17.265  0.00  0.00    +0.000 C 
ATOM     21  C   UNL     1       5.943   4.880  18.537  0.00  0.00    +0.000 C 
BRANCH  19  22
ATOM     22  C   UNL     1       6.347   4.332  14.818  0.00  0.00    +0.000 A 
ATOM     23  C   UNL     1       6.032   3.663  13.615  0.00  0.00    +0.000 A 
ATOM     24  N   UNL     1       6.730   4.130  12.575  0.00  0.00    +0.000 NA
ATOM     25  N   UNL     1       7.490   5.100  13.114  0.00  0.00    +0.000 N 
ATOM     26  C   UNL     1       8.400   5.858  12.291  0.00  0.00    +0.000 C 
ATOM     27  C   UNL     1       7.301   5.256  14.454  0.00  0.00    +0.000 A 
ENDBRANCH  19  22
ENDBRANCH  15  16
ENDBRANCH   1  15
TORSDOF 6
ENDMDL
MODEL 8
REMARK VINA RESULT:      -6.6      6.905      8.653
REMARK  Name = 
REMARK  9 active torsions:
REMARK  status: ('A' for Active; 'I' for Inactive)
REMARK    1  A    between atoms: C_1  and  O_2
REMARK    2  A    between atoms: O_2  and  C_3
REMARK    3  A    between atoms: C_6  and  N_7
REMARK    4  A    between atoms: C_8  and  C_10
REMARK    5  A    between atoms: C_10  and  C_11
REMARK    6  A    between atoms: C_11  and  N_12
REMARK    7  A    between atoms: C_15  and  C_16
REMARK    8  A    between atoms: N_19  and  C_20
REMARK    9  A    between atoms: C_24  and  C_25
REMARK                            x       y       z     vdW  Elec       q    Type
REMARK                         _______ _______ _______ _____ _____    ______ ____
ROOT
ATOM      1  C   UNL     1       8.940   9.263  18.984  0.00  0.00    +0.000 C 
ENDROOT
BRANCH   1   3
ATOM      2  N   UNL     1       9.913  11.198  17.885  0.00  0.00    +0.000 N 
ATOM      3  C   UNL     1       9.583  10.627  19.105  0.00  0.00    +0.000 C 
ATOM      4  O   UNL     1       9.812  11.101  20.216  0.00  0.00    +0.000 OA
ATOM      5  H   UNL     1       9.834  10.613  17.066  0.00  0.00    +0.000 HD
BRANCH   2   9
ATOM      6  C   UNL     1      11.495  15.089  17.310  0.00  0.00    +0.000 A 
ATOM      7  C   UNL     1      12.331  13.981  17.298  0.00  0.00    +0.000 A 
ATOM      8  C   UNL     1      11.802  12.703  17.491  0.00  0.00    +0.000 A 
ATOM      9  C   UNL     1      10.429  12.501  17.687  0.00  0.00    +0.000 A 
ATOM     10  C   UNL     1       9.577  13.622  17.718  0.00  0.00    +0.000 A 
ATOM     11  C   UNL     1       8.087  13.541  17.915  0.00  0.00    +0.000 C 
ATOM     12  C   UNL     1      10.134  14.909  17.555  0.00  0.00    +0.000 A 
BRANCH   6  14
ATOM     13  C   UNL     1      11.348  17.322  18.038  0.00  0.00    +0.000 C 
ATOM     14  O   UNL     1      11.905  16.381  17.125  0.00  0.00    +0.000 OA
ENDBRANCH   6  14
ENDBRANCH   2   9
ENDBRANCH   1   3
BRANCH   1  15
ATOM     15  C   UNL     1       8.185   9.133  17.659  0.00  0.00    +0.000 C 
BRANCH  15  16
ATOM     16  N   UNL     1       7.579   7.806  17.435  0.00  0.00    +0.000 NA
ATOM     17  C   UNL     1       7.888   6.870  18.522  0.00  0.00    +0.000 C 
ATOM     18  C   UNL     1       6.974   5.691  18.635  0.00  0.00    +0.000 C 
ATOM     19  C   UNL     1       5.857   5.533  17.903  0.00  0.00    +0.000 C 
ATOM     20  C   UNL     1       5.474   6.584  16.896  0.00  0.00    +0.000 C 
ATOM     21  C   UNL     1       6.128   7.938  17.224  0.00  0.00    +0.000 C 
BRANCH  19  22
ATOM     22  C   UNL     1       4.944   4.447  18.060  0.00  0.00    +0.000 A 
ATOM     23  C   UNL     1       4.456   3.525  17.108  0.00  0.00    +0.000 A 
ATOM     24  N   UNL     1       3.588   2.658  17.637  0.00  0.00    +0.000 NA
ATOM     25  N   UNL     1       3.523   3.024  18.929  0.00  0.00    +0.000 N 
ATOM     26  C   UNL     1       2.672   2.310  19.850  0.00  0.00    +0.000 C 
ATOM     27  C   UNL     1       4.312   4.093  19.232  0.00  0.00    +0.000 A 
ENDBRANCH  19  22
ENDBRANCH  15  16
ENDBRANCH   1  15
TORSDOF 6
ENDMDL
MODEL 9
REMARK VINA RESULT:      -6.6      1.125      1.384
REMARK  Name = 
REMARK  9 active torsions:
REMARK  status: ('A' for Active; 'I' for Inactive)
REMARK    1  A    between atoms: C_1  and  O_2
REMARK    2  A    between atoms: O_2  and  C_3
REMARK    3  A    between atoms: C_6  and  N_7
REMARK    4  A    between atoms: C_8  and  C_10
REMARK    5  A    between atoms: C_10  and  C_11
REMARK    6  A    between atoms: C_11  and  N_12
REMARK    7  A    between atoms: C_15  and  C_16
REMARK    8  A    between atoms: N_19  and  C_20
REMARK    9  A    between atoms: C_24  and  C_25
REMARK                            x       y       z     vdW  Elec       q    Type
REMARK                         _______ _______ _______ _____ _____    ______ ____
ROOT
ATOM      1  C   UNL     1       3.387   3.825  20.041  0.00  0.00    +0.000 C 
ENDROOT
BRANCH   1   3
ATOM      2  N   UNL     1       2.830   6.188  20.131  0.00  0.00    +0.000 N 
ATOM      3  C   UNL     1       2.351   4.914  19.868  0.00  0.00    +0.000 C 
ATOM      4  O   UNL     1       1.195   4.619  19.573  0.00  0.00    +0.000 OA
ATOM      5  H   UNL     1       3.750   6.258  20.543  0.00  0.00    +0.000 HD
BRANCH   2   9
ATOM      6  C   UNL     1       0.673   9.802  19.628  0.00  0.00    +0.000 A 
ATOM      7  C   UNL     1       0.586   9.091  20.817  0.00  0.00    +0.000 A 
ATOM      8  C   UNL     1       1.298   7.900  20.974  0.00  0.00    +0.000 A 
ATOM      9  C   UNL     1       2.120   7.399  19.955  0.00  0.00    +0.000 A 
ATOM     10  C   UNL     1       2.199   8.106  18.739  0.00  0.00    +0.000 A 
ATOM     11  C   UNL     1       3.047   7.679  17.572  0.00  0.00    +0.000 C 
ATOM     12  C   UNL     1       1.446   9.291  18.587  0.00  0.00    +0.000 A 
BRANCH   6  14
ATOM     13  C   UNL     1       0.080  11.936  20.427  0.00  0.00    +0.000 C 
ATOM     14  O   UNL     1       0.026  10.980  19.371  0.00  0.00    +0.000 OA
ENDBRANCH   6  14
ENDBRANCH   2   9
ENDBRANCH   1   3
BRANCH   1  15
ATOM     15  C   UNL     1       4.799   4.382  19.838  0.00  0.00    +0.000 C 
BRANCH  15  16
ATOM     16  N   UNL     1       5.104   4.763  18.445  0.00  0.00    +0.000 NA
ATOM     17  C   UNL     1       6.547   4.878  18.210  0.00  0.00    +0.000 C 
ATOM     18  C   UNL     1       6.973   4.797  16.777  0.00  0.00    +0.000 C 
ATOM     19  C   UNL     1       6.143   4.501  15.761  0.00  0.00    +0.000 C 
ATOM     20  C   UNL     1       4.689   4.234  16.044  0.00  0.00    +0.000 C 
ATOM     21  C   UNL     1       4.471   3.818  17.510  0.00  0.00    +0.000 C 
BRANCH  19  22
ATOM     22  C   UNL     1       6.561   4.349  14.405  0.00  0.00    +0.000 A 
ATOM     23  C   UNL     1       7.426   5.149  13.626  0.00  0.00    +0.000 A 
ATOM     24  N   UNL     1       7.555   4.691  12.377  0.00  0.00    +0.000 NA
ATOM     25  N   UNL     1       6.775   3.597  12.358  0.00  0.00    +0.000 N 
ATOM     26  C   UNL     1       6.650   2.807  11.158  0.00  0.00    +0.000 C 
ATOM     27  C   UNL     1       6.154   3.352  13.547  0.00  0.00    +0.000 A 
ENDBRANCH  19  22
ENDBRANCH  15  16
ENDBRANCH   1  15
TORSDOF 6
ENDMDL
