MODEL 1
REMARK VINA RESULT:      -8.0      0.000      0.000
REMARK  Name = 
REMARK  13 active torsions:
REMARK  status: ('A' for Active; 'I' for Inactive)
REMARK    1  A    between atoms: C_1  and  C_2
REMARK    2  A    between atoms: C_2  and  C_3
REMARK    3  A    between atoms: C_5  and  C_6
REMARK    4  A    between atoms: C_8  and  O_9
REMARK    5  A    between atoms: O_9  and  C_10
REMARK    6  A    between atoms: C_10  and  C_11
REMARK    7  A    between atoms: C_15  and  O_16
REMARK    8  A    between atoms: O_16  and  C_17
REMARK    9  A    between atoms: C_17  and  C_18
REMARK   10  A    between atoms: C_25  and  O_26
REMARK   11  A    between atoms: O_26  and  C_27
REMARK   12  A    between atoms: C_27  and  C_28
REMARK   13  A    between atoms: C_28  and  O_29
REMARK                            x       y       z     vdW  Elec       q    Type
REMARK                         _______ _______ _______ _____ _____    ______ ____
ROOT
ATOM      1  C   UNL     1       2.471   4.949  20.573  0.00  0.00    +0.000 A 
ATOM      2  N   UNL     1       3.394   4.901  19.604  0.00  0.00    +0.000 NA
ATOM      3  C   UNL     1       3.517   5.975  18.804  0.00  0.00    +0.000 A 
ATOM      4  C   UNL     1       2.679   7.099  18.919  0.00  0.00    +0.000 A 
ATOM      5  C   UNL     1       2.669   8.221  18.053  0.00  0.00    +0.000 A 
ATOM      6  C   UNL     1       1.897   9.341  18.325  0.00  0.00    +0.000 A 
ATOM      7  C   UNL     1       1.047   9.333  19.419  0.00  0.00    +0.000 A 
ATOM      8  C   UNL     1       1.001   8.198  20.236  0.00  0.00    +0.000 A 
ATOM      9  C   UNL     1       1.790   7.070  20.002  0.00  0.00    +0.000 A 
ATOM     10  N   UNL     1       1.685   6.011  20.818  0.00  0.00    +0.000 NA
ENDROOT
BRANCH   3  11
ATOM     11  C   UNL     1       4.647   5.855  17.851  0.00  0.00    +0.000 A 
ATOM     12  C   UNL     1       5.665   6.816  17.842  0.00  0.00    +0.000 A 
ATOM     13  C   UNL     1       6.765   6.711  16.989  0.00  0.00    +0.000 A 
ATOM     14  C   UNL     1       6.839   5.645  16.090  0.00  0.00    +0.000 A 
ATOM     15  C   UNL     1       5.816   4.701  16.035  0.00  0.00    +0.000 A 
ATOM     16  C   UNL     1       4.724   4.830  16.895  0.00  0.00    +0.000 A 
BRANCH  13  17
ATOM     17  O   UNL     1       7.812   7.592  16.968  0.00  0.00    +0.000 OA
BRANCH  17  18
ATOM     18  C   UNL     1       7.635   8.752  17.784  0.00  0.00    +0.000 C 
BRANCH  18  19
ATOM     19  C   UNL     1       8.973   9.237  18.233  0.00  0.00    +0.000 C 
ATOM     20  C   UNL     1       9.380  10.677  18.060  0.00  0.00    +0.000 C 
ATOM     21  C   UNL     1       9.086  10.144  19.434  0.00  0.00    +0.000 C 
ENDBRANCH  18  19
ENDBRANCH  17  18
ENDBRANCH  13  17
BRANCH  15  22
ATOM     22  O   UNL     1       5.987   3.674  15.145  0.00  0.00    +0.000 OA
BRANCH  22  23
ATOM     23  C   UNL     1       6.070   4.046  13.767  0.00  0.00    +0.000 C 
BRANCH  23  24
ATOM     24  C   UNL     1       5.237   3.097  12.960  0.00  0.00    +0.000 C 
ATOM     25  C   UNL     1       4.702   3.505  11.612  0.00  0.00    +0.000 C 
ATOM     26  C   UNL     1       5.798   2.480  11.701  0.00  0.00    +0.000 C 
ENDBRANCH  23  24
ENDBRANCH  22  23
ENDBRANCH  15  22
ENDBRANCH   3  11
BRANCH   1  28
ATOM     27  C   UNL     1       1.253   2.845  21.075  0.00  0.00    +0.000 C 
ATOM     28  C   UNL     1       2.395   3.759  21.484  0.00  0.00    +0.000 C 
ENDBRANCH   1  28
BRANCH   7  29
ATOM     29  O   UNL     1       0.240  10.384  19.776  0.00  0.00    +0.000 OA
BRANCH  29  30
ATOM     30  C   UNL     1       0.854  11.343  20.653  0.00  0.00    +0.000 C 
BRANCH  30  31
ATOM     31  C   UNL     1      -0.128  11.696  21.766  0.00  0.00    +0.000 C 
BRANCH  31  32
ATOM     32  O   UNL     1      -0.031  10.753  22.828  0.00  0.00    +0.000 OA
ATOM     33  H   UNL     1      -0.365  11.207  23.625  0.00  0.00    +0.000 HD
ENDBRANCH  31  32
ENDBRANCH  30  31
ENDBRANCH  29  30
ENDBRANCH   7  29
TORSDOF 12
ENDMDL
MODEL 2
REMARK VINA RESULT:      -7.8      0.873      5.016
REMARK  Name = 
REMARK  13 active torsions:
REMARK  status: ('A' for Active; 'I' for Inactive)
REMARK    1  A    between atoms: C_1  and  C_2
REMARK    2  A    between atoms: C_2  and  C_3
REMARK    3  A    between atoms: C_5  and  C_6
REMARK    4  A    between atoms: C_8  and  O_9
REMARK    5  A    between atoms: O_9  and  C_10
REMARK    6  A    between atoms: C_10  and  C_11
REMARK    7  A    between atoms: C_15  and  O_16
REMARK    8  A    between atoms: O_16  and  C_17
REMARK    9  A    between atoms: C_17  and  C_18
REMARK   10  A    between atoms: C_25  and  O_26
REMARK   11  A    between atoms: O_26  and  C_27
REMARK   12  A    between atoms: C_27  and  C_28
REMARK   13  A    between atoms: C_28  and  O_29
REMARK                            x       y       z     vdW  Elec       q    Type
REMARK                         _______ _______ _______ _____ _____    ______ ____
ROOT
ATOM      1  C   UNL     1       2.832   4.104  20.401  0.00  0.00    +0.000 A 
ATOM      2  N   UNL     1       3.758   4.252  19.445  0.00  0.00    +0.000 NA
ATOM      3  C   UNL     1       3.829   5.444  18.825  0.00  0.00    +0.000 A 
ATOM      4  C   UNL     1       2.938   6.495  19.107  0.00  0.00    +0.000 A 
ATOM      5  C   UNL     1       2.875   7.738  18.428  0.00  0.00    +0.000 A 
ATOM      6  C   UNL     1       2.049   8.763  18.866  0.00  0.00    +0.000 A 
ATOM      7  C   UNL     1       1.199   8.542  19.938  0.00  0.00    +0.000 A 
ATOM      8  C   UNL     1       1.207   7.291  20.566  0.00  0.00    +0.000 A 
ATOM      9  C   UNL     1       2.050   6.254  20.165  0.00  0.00    +0.000 A 
ATOM     10  N   UNL     1       1.995   5.076  20.803  0.00  0.00    +0.000 NA
ENDROOT
BRANCH   3  11
ATOM     11  C   UNL     1       4.965   5.530  17.875  0.00  0.00    +0.000 A 
ATOM     12  C   UNL     1       5.142   4.544  16.898  0.00  0.00    +0.000 A 
ATOM     13  C   UNL     1       6.175   4.616  15.961  0.00  0.00    +0.000 A 
ATOM     14  C   UNL     1       7.082   5.675  16.018  0.00  0.00    +0.000 A 
ATOM     15  C   UNL     1       6.967   6.645  17.012  0.00  0.00    +0.000 A 
ATOM     16  C   UNL     1       5.930   6.549  17.940  0.00  0.00    +0.000 A 
BRANCH  13  17
ATOM     17  O   UNL     1       6.369   3.708  14.956  0.00  0.00    +0.000 OA
BRANCH  17  18
ATOM     18  C   UNL     1       5.525   3.885  13.817  0.00  0.00    +0.000 C 
BRANCH  18  19
ATOM     19  C   UNL     1       6.044   3.049  12.694  0.00  0.00    +0.000 C 
ATOM     20  C   UNL     1       5.452   3.143  11.312  0.00  0.00    +0.000 C 
ATOM     21  C   UNL     1       6.828   3.688  11.574  0.00  0.00    +0.000 C 
ENDBRANCH  18  19
ENDBRANCH  17  18
ENDBRANCH  13  17
BRANCH  15  22
ATOM     22  O   UNL     1       7.883   7.663  16.972  0.00  0.00    +0.000 OA
BRANCH  22  23
ATOM     23  C   UNL     1       7.646   8.754  17.865  0.00  0.00    +0.000 C 
BRANCH  23  24
ATOM     24  C   UNL     1       8.944   9.454  18.128  0.00  0.00    +0.000 C 
ATOM     25  C   UNL     1       9.011  10.959  18.156  0.00  0.00    +0.000 C 
ATOM     26  C   UNL     1       9.163  10.181  19.433  0.00  0.00    +0.000 C 
ENDBRANCH  23  24
ENDBRANCH  22  23
ENDBRANCH  15  22
ENDBRANCH   3  11
BRANCH   1  28
ATOM     27  C   UNL     1       1.486   2.580  21.825  0.00  0.00    +0.000 C 
ATOM     28  C   UNL     1       2.813   2.783  21.113  0.00  0.00    +0.000 C 
ENDBRANCH   1  28
BRANCH   7  29
ATOM     29  O   UNL     1       0.342   9.484  20.449  0.00  0.00    +0.000 OA
BRANCH  29  30
ATOM     30  C   UNL     1       0.741  10.038  21.714  0.00  0.00    +0.000 C 
BRANCH  30  31
ATOM     31  C   UNL     1      -0.455  10.024  22.660  0.00  0.00    +0.000 C 
BRANCH  31  32
ATOM     32  O   UNL     1      -0.091   9.441  23.907  0.00  0.00    +0.000 OA
ATOM     33  H   UNL     1      -0.349   8.501  23.853  0.00  0.00    +0.000 HD
ENDBRANCH  31  32
ENDBRANCH  30  31
ENDBRANCH  29  30
ENDBRANCH   7  29
TORSDOF 12
ENDMDL
MODEL 3
REMARK VINA RESULT:      -7.6      2.234      8.394
REMARK  Name = 
REMARK  13 active torsions:
REMARK  status: ('A' for Active; 'I' for Inactive)
REMARK    1  A    between atoms: C_1  and  C_2
REMARK    2  A    between atoms: C_2  and  C_3
REMARK    3  A    between atoms: C_5  and  C_6
REMARK    4  A    between atoms: C_8  and  O_9
REMARK    5  A    between atoms: O_9  and  C_10
REMARK    6  A    between atoms: C_10  and  C_11
REMARK    7  A    between atoms: C_15  and  O_16
REMARK    8  A    between atoms: O_16  and  C_17
REMARK    9  A    between atoms: C_17  and  C_18
REMARK   10  A    between atoms: C_25  and  O_26
REMARK   11  A    between atoms: O_26  and  C_27
REMARK   12  A    between atoms: C_27  and  C_28
REMARK   13  A    between atoms: C_28  and  O_29
REMARK                            x       y       z     vdW  Elec       q    Type
REMARK                         _______ _______ _______ _____ _____    ______ ____
ROOT
ATOM      1  C   UNL     1       2.387   4.030  19.432  0.00  0.00    +0.000 A 
ATOM      2  N   UNL     1       1.980   5.255  19.788  0.00  0.00    +0.000 NA
ATOM      3  C   UNL     1       2.532   6.305  19.153  0.00  0.00    +0.000 A 
ATOM      4  C   UNL     1       3.545   6.155  18.189  0.00  0.00    +0.000 A 
ATOM      5  C   UNL     1       4.252   7.207  17.554  0.00  0.00    +0.000 A 
ATOM      6  C   UNL     1       5.142   6.962  16.519  0.00  0.00    +0.000 A 
ATOM      7  C   UNL     1       5.417   5.654  16.152  0.00  0.00    +0.000 A 
ATOM      8  C   UNL     1       4.775   4.610  16.826  0.00  0.00    +0.000 A 
ATOM      9  C   UNL     1       3.852   4.830  17.850  0.00  0.00    +0.000 A 
ATOM     10  N   UNL     1       3.283   3.781  18.462  0.00  0.00    +0.000 NA
ENDROOT
BRANCH   3  11
ATOM     11  C   UNL     1       1.919   7.598  19.542  0.00  0.00    +0.000 A 
ATOM     12  C   UNL     1       1.618   7.859  20.884  0.00  0.00    +0.000 A 
ATOM     13  C   UNL     1       1.081   9.082  21.292  0.00  0.00    +0.000 A 
ATOM     14  C   UNL     1       0.796  10.059  20.337  0.00  0.00    +0.000 A 
ATOM     15  C   UNL     1       1.033   9.812  18.986  0.00  0.00    +0.000 A 
ATOM     16  C   UNL     1       1.565   8.580  18.603  0.00  0.00    +0.000 A 
BRANCH  13  17
ATOM     17  O   UNL     1       0.810   9.410  22.592  0.00  0.00    +0.000 OA
BRANCH  17  18
ATOM     18  C   UNL     1      -0.575   9.598  22.887  0.00  0.00    +0.000 C 
BRANCH  18  19
ATOM     19  C   UNL     1      -0.827  11.049  23.127  0.00  0.00    +0.000 C 
ATOM     20  C   UNL     1      -1.488  11.911  22.083  0.00  0.00    +0.000 C 
ATOM     21  C   UNL     1      -2.236  11.550  23.335  0.00  0.00    +0.000 C 
ENDBRANCH  18  19
ENDBRANCH  17  18
ENDBRANCH  13  17
BRANCH  15  22
ATOM     22  O   UNL     1       0.752  10.840  18.124  0.00  0.00    +0.000 OA
BRANCH  22  23
ATOM     23  C   UNL     1      -0.262  11.754  18.549  0.00  0.00    +0.000 C 
BRANCH  23  24
ATOM     24  C   UNL     1      -1.486  11.540  17.712  0.00  0.00    +0.000 C 
ATOM     25  C   UNL     1      -2.327  10.302  17.888  0.00  0.00    +0.000 C 
ATOM     26  C   UNL     1      -2.857  11.634  18.337  0.00  0.00    +0.000 C 
ENDBRANCH  23  24
ENDBRANCH  22  23
ENDBRANCH  15  22
ENDBRANCH   3  11
BRANCH   1  28
ATOM     27  C   UNL     1       2.075   2.849  21.594  0.00  0.00    +0.000 C 
ATOM     28  C   UNL     1       1.714   2.877  20.118  0.00  0.00    +0.000 C 
ENDBRANCH   1  28
BRANCH   7  29
ATOM     29  O   UNL     1       6.282   5.301  15.146  0.00  0.00    +0.000 OA
BRANCH  29  30
ATOM     30  C   UNL     1       6.118   3.960  14.656  0.00  0.00    +0.000 C 
BRANCH  30  31
ATOM     31  C   UNL     1       6.244   3.970  13.136  0.00  0.00    +0.000 C 
BRANCH  31  32
ATOM     32  O   UNL     1       6.251   2.638  12.633  0.00  0.00    +0.000 OA
ATOM     33  H   UNL     1       7.005   2.586  12.015  0.00  0.00    +0.000 HD
ENDBRANCH  31  32
ENDBRANCH  30  31
ENDBRANCH  29  30
ENDBRANCH   7  29
TORSDOF 12
ENDMDL
MODEL 4
REMARK VINA RESULT:      -7.5      1.059      1.232
REMARK  Name = 
REMARK  13 active torsions:
REMARK  status: ('A' for Active; 'I' for Inactive)
REMARK    1  A    between atoms: C_1  and  C_2
REMARK    2  A    between atoms: C_2  and  C_3
REMARK    3  A    between atoms: C_5  and  C_6
REMARK    4  A    between atoms: C_8  and  O_9
REMARK    5  A    between atoms: O_9  and  C_10
REMARK    6  A    between atoms: C_10  and  C_11
REMARK    7  A    between atoms: C_15  and  O_16
REMARK    8  A    between atoms: O_16  and  C_17
REMARK    9  A    between atoms: C_17  and  C_18
REMARK   10  A    between atoms: C_25  and  O_26
REMARK   11  A    between atoms: O_26  and  C_27
REMARK   12  A    between atoms: C_27  and  C_28
REMARK   13  A    between atoms: C_28  and  O_29
REMARK                            x       y       z     vdW  Elec       q    Type
REMARK                         _______ _______ _______ _____ _____    ______ ____
ROOT
ATOM      1  C   UNL     1       3.028   3.874  20.133  0.00  0.00    +0.000 A 
ATOM      2  N   UNL     1       3.881   4.098  19.125  0.00  0.00    +0.000 NA
ATOM      3  C   UNL     1       3.887   5.325  18.575  0.00  0.00    +0.000 A 
ATOM      4  C   UNL     1       3.001   6.338  18.981  0.00  0.00    +0.000 A 
ATOM      5  C   UNL     1       2.868   7.618  18.385  0.00  0.00    +0.000 A 
ATOM      6  C   UNL     1       2.059   8.597  18.941  0.00  0.00    +0.000 A 
ATOM      7  C   UNL     1       1.291   8.296  20.054  0.00  0.00    +0.000 A 
ATOM      8  C   UNL     1       1.365   7.011  20.603  0.00  0.00    +0.000 A 
ATOM      9  C   UNL     1       2.194   6.016  20.082  0.00  0.00    +0.000 A 
ATOM     10  N   UNL     1       2.205   4.802  20.650  0.00  0.00    +0.000 NA
ENDROOT
BRANCH   3  11
ATOM     11  C   UNL     1       4.951   5.491  17.554  0.00  0.00    +0.000 A 
ATOM     12  C   UNL     1       5.881   6.530  17.669  0.00  0.00    +0.000 A 
ATOM     13  C   UNL     1       6.921   6.689  16.751  0.00  0.00    +0.000 A 
ATOM     14  C   UNL     1       7.019   5.818  15.666  0.00  0.00    +0.000 A 
ATOM     15  C   UNL     1       6.078   4.805  15.491  0.00  0.00    +0.000 A 
ATOM     16  C   UNL     1       5.044   4.669  16.419  0.00  0.00    +0.000 A 
BRANCH  13  17
ATOM     17  O   UNL     1       7.886   7.656  16.838  0.00  0.00    +0.000 OA
BRANCH  17  18
ATOM     18  C   UNL     1       7.635   8.666  17.818  0.00  0.00    +0.000 C 
BRANCH  18  19
ATOM     19  C   UNL     1       8.912   9.378  18.116  0.00  0.00    +0.000 C 
ATOM     20  C   UNL     1       8.967  10.883  18.192  0.00  0.00    +0.000 C 
ATOM     21  C   UNL     1       9.103  10.066  19.447  0.00  0.00    +0.000 C 
ENDBRANCH  18  19
ENDBRANCH  17  18
ENDBRANCH  13  17
BRANCH  15  22
ATOM     22  O   UNL     1       6.270   3.979  14.415  0.00  0.00    +0.000 OA
BRANCH  22  23
ATOM     23  C   UNL     1       5.093   3.602  13.696  0.00  0.00    +0.000 C 
BRANCH  23  24
ATOM     24  C   UNL     1       5.421   3.532  12.236  0.00  0.00    +0.000 C 
ATOM     25  C   UNL     1       5.462   2.204  11.524  0.00  0.00    +0.000 C 
ATOM     26  C   UNL     1       4.350   3.173  11.235  0.00  0.00    +0.000 C 
ENDBRANCH  23  24
ENDBRANCH  22  23
ENDBRANCH  15  22
ENDBRANCH   3  11
BRANCH   1  28
ATOM     27  C   UNL     1       4.466   1.907  20.611  0.00  0.00    +0.000 C 
ATOM     28  C   UNL     1       3.081   2.513  20.764  0.00  0.00    +0.000 C 
ENDBRANCH   1  28
BRANCH   7  29
ATOM     29  O   UNL     1       0.456   9.188  20.679  0.00  0.00    +0.000 OA
BRANCH  29  30
ATOM     30  C   UNL     1       0.536   9.181  22.114  0.00  0.00    +0.000 C 
BRANCH  30  31
ATOM     31  C   UNL     1      -0.526  10.124  22.673  0.00  0.00    +0.000 C 
BRANCH  31  32
ATOM     32  O   UNL     1      -0.143  11.479  22.459  0.00  0.00    +0.000 OA
ATOM     33  H   UNL     1       0.163  11.814  23.323  0.00  0.00    +0.000 HD
ENDBRANCH  31  32
ENDBRANCH  30  31
ENDBRANCH  29  30
ENDBRANCH   7  29
TORSDOF 12
ENDMDL
MODEL 5
REMARK VINA RESULT:      -7.5      2.295      8.935
REMARK  Name = 
REMARK  13 active torsions:
REMARK  status: ('A' for Active; 'I' for Inactive)
REMARK    1  A    between atoms: C_1  and  C_2
REMARK    2  A    between atoms: C_2  and  C_3
REMARK    3  A    between atoms: C_5  and  C_6
REMARK    4  A    between atoms: C_8  and  O_9
REMARK    5  A    between atoms: O_9  and  C_10
REMARK    6  A    between atoms: C_10  and  C_11
REMARK    7  A    between atoms: C_15  and  O_16
REMARK    8  A    between atoms: O_16  and  C_17
REMARK    9  A    between atoms: C_17  and  C_18
REMARK   10  A    between atoms: C_25  and  O_26
REMARK   11  A    between atoms: O_26  and  C_27
REMARK   12  A    between atoms: C_27  and  C_28
REMARK   13  A    between atoms: C_28  and  O_29
REMARK                            x       y       z     vdW  Elec       q    Type
REMARK                         _______ _______ _______ _____ _____    ______ ____
ROOT
ATOM      1  C   UNL     1       2.439   4.424  20.597  0.00  0.00    +0.000 A 
ATOM      2  N   UNL     1       1.981   5.678  20.712  0.00  0.00    +0.000 NA
ATOM      3  C   UNL     1       2.450   6.595  19.846  0.00  0.00    +0.000 A 
ATOM      4  C   UNL     1       3.430   6.291  18.884  0.00  0.00    +0.000 A 
ATOM      5  C   UNL     1       4.054   7.217  18.010  0.00  0.00    +0.000 A 
ATOM      6  C   UNL     1       4.914   6.800  17.005  0.00  0.00    +0.000 A 
ATOM      7  C   UNL     1       5.244   5.458  16.903  0.00  0.00    +0.000 A 
ATOM      8  C   UNL     1       4.685   4.551  17.811  0.00  0.00    +0.000 A 
ATOM      9  C   UNL     1       3.794   4.939  18.812  0.00  0.00    +0.000 A 
ATOM     10  N   UNL     1       3.307   4.018  19.655  0.00  0.00    +0.000 NA
ENDROOT
BRANCH   3  11
ATOM     11  C   UNL     1       1.785   7.913  19.990  0.00  0.00    +0.000 A 
ATOM     12  C   UNL     1       1.409   8.640  18.855  0.00  0.00    +0.000 A 
ATOM     13  C   UNL     1       0.743   9.863  18.953  0.00  0.00    +0.000 A 
ATOM     14  C   UNL     1       0.478  10.401  20.214  0.00  0.00    +0.000 A 
ATOM     15  C   UNL     1       0.886   9.729  21.364  0.00  0.00    +0.000 A 
ATOM     16  C   UNL     1       1.555   8.511  21.240  0.00  0.00    +0.000 A 
BRANCH  13  17
ATOM     17  O   UNL     1       0.309  10.594  17.881  0.00  0.00    +0.000 OA
BRANCH  17  18
ATOM     18  C   UNL     1      -1.080  10.926  17.904  0.00  0.00    +0.000 C 
BRANCH  18  19
ATOM     19  C   UNL     1      -1.830   9.929  17.085  0.00  0.00    +0.000 C 
ATOM     20  C   UNL     1      -3.331   9.828  17.158  0.00  0.00    +0.000 C 
ATOM     21  C   UNL     1      -2.679  10.387  15.924  0.00  0.00    +0.000 C 
ENDBRANCH  18  19
ENDBRANCH  17  18
ENDBRANCH  13  17
BRANCH  15  22
ATOM     22  O   UNL     1       0.556  10.317  22.557  0.00  0.00    +0.000 OA
BRANCH  22  23
ATOM     23  C   UNL     1      -0.836  10.342  22.879  0.00  0.00    +0.000 C 
BRANCH  23  24
ATOM     24  C   UNL     1      -1.262  11.766  23.072  0.00  0.00    +0.000 C 
ATOM     25  C   UNL     1      -1.969  12.510  21.969  0.00  0.00    +0.000 C 
ATOM     26  C   UNL     1      -2.726  12.108  23.203  0.00  0.00    +0.000 C 
ENDBRANCH  23  24
ENDBRANCH  22  23
ENDBRANCH  15  22
ENDBRANCH   3  11
BRANCH   1  28
ATOM     27  C   UNL     1       1.515   2.129  20.801  0.00  0.00    +0.000 C 
ATOM     28  C   UNL     1       1.857   3.412  21.539  0.00  0.00    +0.000 C 
ENDBRANCH   1  28
BRANCH   7  29
ATOM     29  O   UNL     1       6.085   4.941  15.950  0.00  0.00    +0.000 OA
BRANCH  29  30
ATOM     30  C   UNL     1       5.462   4.668  14.684  0.00  0.00    +0.000 C 
BRANCH  30  31
ATOM     31  C   UNL     1       6.538   4.265  13.680  0.00  0.00    +0.000 C 
BRANCH  31  32
ATOM     32  O   UNL     1       7.493   5.311  13.534  0.00  0.00    +0.000 OA
ATOM     33  H   UNL     1       8.129   5.005  12.859  0.00  0.00    +0.000 HD
ENDBRANCH  31  32
ENDBRANCH  30  31
ENDBRANCH  29  30
ENDBRANCH   7  29
TORSDOF 12
ENDMDL
MODEL 6
REMARK VINA RESULT:      -7.4      0.935      4.834
REMARK  Name = 
REMARK  13 active torsions:
REMARK  status: ('A' for Active; 'I' for Inactive)
REMARK    1  A    between atoms: C_1  and  C_2
REMARK    2  A    between atoms: C_2  and  C_3
REMARK    3  A    between atoms: C_5  and  C_6
REMARK    4  A    between atoms: C_8  and  O_9
REMARK    5  A    between atoms: O_9  and  C_10
REMARK    6  A    between atoms: C_10  and  C_11
REMARK    7  A    between atoms: C_15  and  O_16
REMARK    8  A    between atoms: O_16  and  C_17
REMARK    9  A    between atoms: C_17  and  C_18
REMARK   10  A    between atoms: C_25  and  O_26
REMARK   11  A    between atoms: O_26  and  C_27
REMARK   12  A    between atoms: C_27  and  C_28
REMARK   13  A    between atoms: C_28  and  O_29
REMARK                            x       y       z     vdW  Elec       q    Type
REMARK                         _______ _______ _______ _____ _____    ______ ____
ROOT
ATOM      1  C   UNL     1       2.126   4.986  20.773  0.00  0.00    +0.000 A 
ATOM      2  N   UNL     1       2.992   4.941  19.752  0.00  0.00    +0.000 NA
ATOM      3  C   UNL     1       3.124   6.047  18.997  0.00  0.00    +0.000 A 
ATOM      4  C   UNL     1       2.351   7.202  19.210  0.00  0.00    +0.000 A 
ATOM      5  C   UNL     1       2.350   8.365  18.399  0.00  0.00    +0.000 A 
ATOM      6  C   UNL     1       1.651   9.505  18.767  0.00  0.00    +0.000 A 
ATOM      7  C   UNL     1       0.862   9.484  19.906  0.00  0.00    +0.000 A 
ATOM      8  C   UNL     1       0.804   8.313  20.670  0.00  0.00    +0.000 A 
ATOM      9  C   UNL     1       1.521   7.162  20.340  0.00  0.00    +0.000 A 
ATOM     10  N   UNL     1       1.408   6.071  21.111  0.00  0.00    +0.000 NA
ENDROOT
BRANCH   3  11
ATOM     11  C   UNL     1       4.193   5.921  17.977  0.00  0.00    +0.000 A 
ATOM     12  C   UNL     1       4.129   4.911  17.010  0.00  0.00    +0.000 A 
ATOM     13  C   UNL     1       5.095   4.790  16.009  0.00  0.00    +0.000 A 
ATOM     14  C   UNL     1       6.178   5.670  15.991  0.00  0.00    +0.000 A 
ATOM     15  C   UNL     1       6.302   6.653  16.970  0.00  0.00    +0.000 A 
ATOM     16  C   UNL     1       5.326   6.751  17.963  0.00  0.00    +0.000 A 
BRANCH  13  17
ATOM     17  O   UNL     1       5.060   3.854  15.012  0.00  0.00    +0.000 OA
BRANCH  17  18
ATOM     18  C   UNL     1       6.265   3.742  14.252  0.00  0.00    +0.000 C 
BRANCH  18  19
ATOM     19  C   UNL     1       5.936   3.867  12.802  0.00  0.00    +0.000 C 
ATOM     20  C   UNL     1       6.989   3.667  11.742  0.00  0.00    +0.000 C 
ATOM     21  C   UNL     1       5.907   2.639  11.923  0.00  0.00    +0.000 C 
ENDBRANCH  18  19
ENDBRANCH  17  18
ENDBRANCH  13  17
BRANCH  15  22
ATOM     22  O   UNL     1       7.380   7.491  16.855  0.00  0.00    +0.000 OA
BRANCH  22  23
ATOM     23  C   UNL     1       7.994   7.894  18.081  0.00  0.00    +0.000 C 
BRANCH  23  24
ATOM     24  C   UNL     1       8.717   9.187  17.857  0.00  0.00    +0.000 C 
ATOM     25  C   UNL     1       8.036  10.503  18.131  0.00  0.00    +0.000 C 
ATOM     26  C   UNL     1       9.141  10.032  19.034  0.00  0.00    +0.000 C 
ENDBRANCH  23  24
ENDBRANCH  22  23
ENDBRANCH  15  22
ENDBRANCH   3  11
BRANCH   1  28
ATOM     27  C   UNL     1       1.443   2.600  20.848  0.00  0.00    +0.000 C 
ATOM     28  C   UNL     1       2.040   3.758  21.631  0.00  0.00    +0.000 C 
ENDBRANCH   1  28
BRANCH   7  29
ATOM     29  O   UNL     1       0.129  10.553  20.356  0.00  0.00    +0.000 OA
BRANCH  29  30
ATOM     30  C   UNL     1       0.383  11.789  19.667  0.00  0.00    +0.000 C 
BRANCH  30  31
ATOM     31  C   UNL     1       0.669  12.878  20.696  0.00  0.00    +0.000 C 
BRANCH  31  32
ATOM     32  O   UNL     1       2.020  12.797  21.139  0.00  0.00    +0.000 OA
ATOM     33  H   UNL     1       1.985  12.458  22.054  0.00  0.00    +0.000 HD
ENDBRANCH  31  32
ENDBRANCH  30  31
ENDBRANCH  29  30
ENDBRANCH   7  29
TORSDOF 12
ENDMDL
MODEL 7
REMARK VINA RESULT:      -7.4      1.006      5.197
REMARK  Name = 
REMARK  13 active torsions:
REMARK  status: ('A' for Active; 'I' for Inactive)
REMARK    1  A    between atoms: C_1  and  C_2
REMARK    2  A    between atoms: C_2  and  C_3
REMARK    3  A    between atoms: C_5  and  C_6
REMARK    4  A    between atoms: C_8  and  O_9
REMARK    5  A    between atoms: O_9  and  C_10
REMARK    6  A    between atoms: C_10  and  C_11
REMARK    7  A    between atoms: C_15  and  O_16
REMARK    8  A    between atoms: O_16  and  C_17
REMARK    9  A    between atoms: C_17  and  C_18
REMARK   10  A    between atoms: C_25  and  O_26
REMARK   11  A    between atoms: O_26  and  C_27
REMARK   12  A    between atoms: C_27  and  C_28
REMARK   13  A    between atoms: C_28  and  O_29
REMARK                            x       y       z     vdW  Elec       q    Type
REMARK                         _______ _______ _______ _____ _____    ______ ____
ROOT
ATOM      1  C   UNL     1       2.577   4.735  20.322  0.00  0.00    +0.000 A 
ATOM      2  N   UNL     1       3.554   4.785  19.408  0.00  0.00    +0.000 NA
ATOM      3  C   UNL     1       3.681   5.917  18.692  0.00  0.00    +0.000 A 
ATOM      4  C   UNL     1       2.798   7.002  18.835  0.00  0.00    +0.000 A 
ATOM      5  C   UNL     1       2.795   8.183  18.050  0.00  0.00    +0.000 A 
ATOM      6  C   UNL     1       1.969   9.255  18.354  0.00  0.00    +0.000 A 
ATOM      7  C   UNL     1       1.060   9.141  19.394  0.00  0.00    +0.000 A 
ATOM      8  C   UNL     1       1.010   7.949  20.126  0.00  0.00    +0.000 A 
ATOM      9  C   UNL     1       1.852   6.867  19.861  0.00  0.00    +0.000 A 
ATOM     10  N   UNL     1       1.740   5.751  20.594  0.00  0.00    +0.000 NA
ENDROOT
BRANCH   3  11
ATOM     11  C   UNL     1       4.866   5.903  17.800  0.00  0.00    +0.000 A 
ATOM     12  C   UNL     1       4.989   4.923  16.809  0.00  0.00    +0.000 A 
ATOM     13  C   UNL     1       6.070   4.905  15.924  0.00  0.00    +0.000 A 
ATOM     14  C   UNL     1       7.077   5.862  16.052  0.00  0.00    +0.000 A 
ATOM     15  C   UNL     1       7.013   6.820  17.062  0.00  0.00    +0.000 A 
ATOM     16  C   UNL     1       5.926   6.814  17.937  0.00  0.00    +0.000 A 
BRANCH  13  17
ATOM     17  O   UNL     1       6.220   4.002  14.907  0.00  0.00    +0.000 OA
BRANCH  17  18
ATOM     18  C   UNL     1       5.078   3.859  14.060  0.00  0.00    +0.000 C 
BRANCH  18  19
ATOM     19  C   UNL     1       5.534   3.801  12.640  0.00  0.00    +0.000 C 
ATOM     20  C   UNL     1       5.823   2.485  11.965  0.00  0.00    +0.000 C 
ATOM     21  C   UNL     1       4.609   3.277  11.568  0.00  0.00    +0.000 C 
ENDBRANCH  18  19
ENDBRANCH  17  18
ENDBRANCH  13  17
BRANCH  15  22
ATOM     22  O   UNL     1       8.030   7.737  17.092  0.00  0.00    +0.000 OA
BRANCH  22  23
ATOM     23  C   UNL     1       7.745   8.967  17.763  0.00  0.00    +0.000 C 
BRANCH  23  24
ATOM     24  C   UNL     1       9.037   9.660  18.071  0.00  0.00    +0.000 C 
ATOM     25  C   UNL     1       9.080  11.155  18.252  0.00  0.00    +0.000 C 
ATOM     26  C   UNL     1       9.272  10.253  19.439  0.00  0.00    +0.000 C 
ENDBRANCH  23  24
ENDBRANCH  22  23
ENDBRANCH  15  22
ENDBRANCH   3  11
BRANCH   1  28
ATOM     27  C   UNL     1       3.450   2.428  20.608  0.00  0.00    +0.000 C 
ATOM     28  C   UNL     1       2.494   3.481  21.143  0.00  0.00    +0.000 C 
ENDBRANCH   1  28
BRANCH   7  29
ATOM     29  O   UNL     1       0.196  10.137  19.776  0.00  0.00    +0.000 OA
BRANCH  29  30
ATOM     30  C   UNL     1      -0.674  10.610  18.734  0.00  0.00    +0.000 C 
BRANCH  30  31
ATOM     31  C   UNL     1      -0.598  12.133  18.679  0.00  0.00    +0.000 C 
BRANCH  31  32
ATOM     32  O   UNL     1      -1.693  12.654  17.933  0.00  0.00    +0.000 OA
ATOM     33  H   UNL     1      -1.394  12.693  17.004  0.00  0.00    +0.000 HD
ENDBRANCH  31  32
ENDBRANCH  30  31
ENDBRANCH  29  30
ENDBRANCH   7  29
TORSDOF 12
ENDMDL
MODEL 8
REMARK VINA RESULT:      -7.4      2.318      8.352
REMARK  Name = 
REMARK  13 active torsions:
REMARK  status: ('A' for Active; 'I' for Inactive)
REMARK    1  A    between atoms: C_1  and  C_2
REMARK    2  A    between atoms: C_2  and  C_3
REMARK    3  A    between atoms: C_5  and  C_6
REMARK    4  A    between atoms: C_8  and  O_9
REMARK    5  A    between atoms: O_9  and  C_10
REMARK    6  A    between atoms: C_10  and  C_11
REMARK    7  A    between atoms: C_15  and  O_16
REMARK    8  A    between atoms: O_16  and  C_17
REMARK    9  A    between atoms: C_17  and  C_18
REMARK   10  A    between atoms: C_25  and  O_26
REMARK   11  A    between atoms: O_26  and  C_27
REMARK   12  A    between atoms: C_27  and  C_28
REMARK   13  A    between atoms: C_28  and  O_29
REMARK                            x       y       z     vdW  Elec       q    Type
REMARK                         _______ _______ _______ _____ _____    ______ ____
ROOT
ATOM      1  C   UNL     1       2.318   3.952  18.090  0.00  0.00    +0.000 A 
ATOM      2  N   UNL     1       1.958   5.134  18.607  0.00  0.00    +0.000 NA
ATOM      3  C   UNL     1       2.768   6.184  18.386  0.00  0.00    +0.000 A 
ATOM      4  C   UNL     1       3.985   6.064  17.692  0.00  0.00    +0.000 A 
ATOM      5  C   UNL     1       4.944   7.093  17.509  0.00  0.00    +0.000 A 
ATOM      6  C   UNL     1       6.054   6.914  16.696  0.00  0.00    +0.000 A 
ATOM      7  C   UNL     1       6.283   5.675  16.118  0.00  0.00    +0.000 A 
ATOM      8  C   UNL     1       5.375   4.637  16.355  0.00  0.00    +0.000 A 
ATOM      9  C   UNL     1       4.235   4.799  17.143  0.00  0.00    +0.000 A 
ATOM     10  N   UNL     1       3.416   3.756  17.340  0.00  0.00    +0.000 NA
ENDROOT
BRANCH   3  11
ATOM     11  C   UNL     1       2.209   7.458  18.899  0.00  0.00    +0.000 A 
ATOM     12  C   UNL     1       1.801   7.561  20.234  0.00  0.00    +0.000 A 
ATOM     13  C   UNL     1       1.310   8.757  20.762  0.00  0.00    +0.000 A 
ATOM     14  C   UNL     1       1.182   9.873  19.933  0.00  0.00    +0.000 A 
ATOM     15  C   UNL     1       1.529   9.790  18.585  0.00  0.00    +0.000 A 
ATOM     16  C   UNL     1       2.011   8.582  18.080  0.00  0.00    +0.000 A 
BRANCH  13  17
ATOM     17  O   UNL     1       0.941   8.930  22.068  0.00  0.00    +0.000 OA
BRANCH  17  18
ATOM     18  C   UNL     1      -0.459   9.129  22.274  0.00  0.00    +0.000 C 
BRANCH  18  19
ATOM     19  C   UNL     1      -0.658  10.368  23.082  0.00  0.00    +0.000 C 
ATOM     20  C   UNL     1      -0.271  11.722  22.545  0.00  0.00    +0.000 C 
ATOM     21  C   UNL     1      -1.723  11.364  22.692  0.00  0.00    +0.000 C 
ENDBRANCH  18  19
ENDBRANCH  17  18
ENDBRANCH  13  17
BRANCH  15  22
ATOM     22  O   UNL     1       1.399  10.942  17.855  0.00  0.00    +0.000 OA
BRANCH  22  23
ATOM     23  C   UNL     1       1.256  12.149  18.609  0.00  0.00    +0.000 C 
BRANCH  23  24
ATOM     24  C   UNL     1       2.497  12.972  18.442  0.00  0.00    +0.000 C 
ATOM     25  C   UNL     1       2.408  14.468  18.290  0.00  0.00    +0.000 C 
ATOM     26  C   UNL     1       2.960  13.878  19.557  0.00  0.00    +0.000 C 
ENDBRANCH  23  24
ENDBRANCH  22  23
ENDBRANCH  15  22
ENDBRANCH   3  11
BRANCH   1  28
ATOM     27  C   UNL     1       1.925   1.838  19.333  0.00  0.00    +0.000 C 
ATOM     28  C   UNL     1       1.368   2.810  18.306  0.00  0.00    +0.000 C 
ENDBRANCH   1  28
BRANCH   7  29
ATOM     29  O   UNL     1       7.349   5.391  15.302  0.00  0.00    +0.000 OA
BRANCH  29  30
ATOM     30  C   UNL     1       7.005   4.731  14.072  0.00  0.00    +0.000 C 
BRANCH  30  31
ATOM     31  C   UNL     1       7.794   5.367  12.932  0.00  0.00    +0.000 C 
BRANCH  31  32
ATOM     32  O   UNL     1       8.946   6.033  13.441  0.00  0.00    +0.000 OA
ATOM     33  H   UNL     1       8.614   6.721  14.049  0.00  0.00    +0.000 HD
ENDBRANCH  31  32
ENDBRANCH  30  31
ENDBRANCH  29  30
ENDBRANCH   7  29
TORSDOF 12
ENDMDL
MODEL 9
REMARK VINA RESULT:      -7.3      2.358      8.197
REMARK  Name = 
REMARK  13 active torsions:
REMARK  status: ('A' for Active; 'I' for Inactive)
REMARK    1  A    between atoms: C_1  and  C_2
REMARK    2  A    between atoms: C_2  and  C_3
REMARK    3  A    between atoms: C_5  and  C_6
REMARK    4  A    between atoms: C_8  and  O_9
REMARK    5  A    between atoms: O_9  and  C_10
REMARK    6  A    between atoms: C_10  and  C_11
REMARK    7  A    between atoms: C_15  and  O_16
REMARK    8  A    between atoms: O_16  and  C_17
REMARK    9  A    between atoms: C_17  and  C_18
REMARK   10  A    between atoms: C_25  and  O_26
REMARK   11  A    between atoms: O_26  and  C_27
REMARK   12  A    between atoms: C_27  and  C_28
REMARK   13  A    between atoms: C_28  and  O_29
REMARK                            x       y       z     vdW  Elec       q    Type
REMARK                         _______ _______ _______ _____ _____    ______ ____
ROOT
ATOM      1  C   UNL     1       2.508   3.523  18.223  0.00  0.00    +0.000 A 
ATOM      2  N   UNL     1       2.168   4.727  18.701  0.00  0.00    +0.000 NA
ATOM      3  C   UNL     1       2.948   5.772  18.371  0.00  0.00    +0.000 A 
ATOM      4  C   UNL     1       4.117   5.628  17.604  0.00  0.00    +0.000 A 
ATOM      5  C   UNL     1       5.048   6.654  17.303  0.00  0.00    +0.000 A 
ATOM      6  C   UNL     1       6.102   6.443  16.426  0.00  0.00    +0.000 A 
ATOM      7  C   UNL     1       6.308   5.178  15.899  0.00  0.00    +0.000 A 
ATOM      8  C   UNL     1       5.432   4.145  16.251  0.00  0.00    +0.000 A 
ATOM      9  C   UNL     1       4.345   4.337  17.105  0.00  0.00    +0.000 A 
ATOM     10  N   UNL     1       3.554   3.298  17.410  0.00  0.00    +0.000 NA
ENDROOT
BRANCH   3  11
ATOM     11  C   UNL     1       2.408   7.066  18.855  0.00  0.00    +0.000 A 
ATOM     12  C   UNL     1       2.436   8.195  18.028  0.00  0.00    +0.000 A 
ATOM     13  C   UNL     1       1.898   9.418  18.435  0.00  0.00    +0.000 A 
ATOM     14  C   UNL     1       1.352   9.536  19.714  0.00  0.00    +0.000 A 
ATOM     15  C   UNL     1       1.355   8.446  20.583  0.00  0.00    +0.000 A 
ATOM     16  C   UNL     1       1.904   7.237  20.155  0.00  0.00    +0.000 A 
BRANCH  13  17
ATOM     17  O   UNL     1       1.856  10.540  17.653  0.00  0.00    +0.000 OA
BRANCH  17  18
ATOM     18  C   UNL     1       1.437  11.726  18.331  0.00  0.00    +0.000 C 
BRANCH  18  19
ATOM     19  C   UNL     1       2.561  12.709  18.325  0.00  0.00    +0.000 C 
ATOM     20  C   UNL     1       2.303  14.190  18.218  0.00  0.00    +0.000 C 
ATOM     21  C   UNL     1       2.787  13.608  19.517  0.00  0.00    +0.000 C 
ENDBRANCH  18  19
ENDBRANCH  17  18
ENDBRANCH  13  17
BRANCH  15  22
ATOM     22  O   UNL     1       0.771   8.646  21.806  0.00  0.00    +0.000 OA
BRANCH  22  23
ATOM     23  C   UNL     1       0.673  10.005  22.239  0.00  0.00    +0.000 C 
BRANCH  23  24
ATOM     24  C   UNL     1      -0.772  10.402  22.257  0.00  0.00    +0.000 C 
ATOM     25  C   UNL     1      -1.208  11.670  22.946  0.00  0.00    +0.000 C 
ATOM     26  C   UNL     1      -1.242  11.586  21.446  0.00  0.00    +0.000 C 
ENDBRANCH  23  24
ENDBRANCH  22  23
ENDBRANCH  15  22
ENDBRANCH   3  11
BRANCH   1  28
ATOM     27  C   UNL     1       1.366   2.309  20.063  0.00  0.00    +0.000 C 
ATOM     28  C   UNL     1       1.589   2.386  18.562  0.00  0.00    +0.000 C 
ENDBRANCH   1  28
BRANCH   7  29
ATOM     29  O   UNL     1       7.320   4.861  15.028  0.00  0.00    +0.000 OA
BRANCH  29  30
ATOM     30  C   UNL     1       6.899   4.651  13.670  0.00  0.00    +0.000 C 
BRANCH  30  31
ATOM     31  C   UNL     1       7.990   5.158  12.730  0.00  0.00    +0.000 C 
BRANCH  31  32
ATOM     32  O   UNL     1       8.855   6.056  13.418  0.00  0.00    +0.000 OA
ATOM     33  H   UNL     1       8.342   6.876  13.552  0.00  0.00    +0.000 HD
ENDBRANCH  31  32
ENDBRANCH  30  31
ENDBRANCH  29  30
ENDBRANCH   7  29
TORSDOF 12
ENDMDL
