MODEL 1
REMARK VINA RESULT:      -6.9      0.000      0.000
REMARK  Name = 
REMARK  8 active torsions:
REMARK  status: ('A' for Active; 'I' for Inactive)
REMARK    1  A    between atoms: C_2  and  C_3
REMARK    2  A    between atoms: C_3  and  N_4
REMARK    3  A    between atoms: C_7  and  O_8
REMARK    4  A    between atoms: O_8  and  C_9
REMARK    5  A    between atoms: C_10  and  O_11
REMARK    6  A    between atoms: O_11  and  C_12
REMARK    7  A    between atoms: C_23  and  C_24
REMARK    8  A    between atoms: C_23  and  C_25
REMARK                            x       y       z     vdW  Elec       q    Type
REMARK                         _______ _______ _______ _____ _____    ______ ____
ROOT
ATOM      1  N   UNL     1       0.959  10.132  19.605  0.00  0.00    +0.000 N 
ATOM      2  C   UNL     1       1.505   8.872  19.522  0.00  0.00    +0.000 A 
ATOM      3  C   UNL     1       2.104   8.236  18.427  0.00  0.00    +0.000 A 
ATOM      4  C   UNL     1       2.569   6.924  18.556  0.00  0.00    +0.000 A 
ATOM      5  C   UNL     1       2.464   6.283  19.800  0.00  0.00    +0.000 A 
ATOM      6  C   UNL     1       1.838   6.939  20.891  0.00  0.00    +0.000 A 
ATOM      7  C   UNL     1       1.322   8.247  20.753  0.00  0.00    +0.000 A 
ATOM      8  C   UNL     1       0.569   9.159  21.577  0.00  0.00    +0.000 A 
ATOM      9  C   UNL     1      -0.041   9.105  22.857  0.00  0.00    +0.000 A 
ATOM     10  C   UNL     1      -0.823  10.191  23.316  0.00  0.00    +0.000 A 
ATOM     11  C   UNL     1      -0.867  11.377  22.598  0.00  0.00    +0.000 A 
ATOM     12  C   UNL     1      -0.064  11.513  21.461  0.00  0.00    +0.000 A 
ATOM     13  C   UNL     1       0.488  10.369  20.876  0.00  0.00    +0.000 A 
ATOM     14  C   UNL     1       0.407  12.844  21.099  0.00  0.00    +0.000 C 
ATOM     15  C   UNL     1      -0.305  13.853  21.606  0.00  0.00    +0.000 C 
ATOM     16  C   UNL     1      -1.690  13.568  22.140  0.00  0.00    +0.000 C 
ATOM     17  C   UNL     1      -2.649  13.321  20.947  0.00  0.00    +0.000 C 
ATOM     18  C   UNL     1      -2.219  14.791  22.900  0.00  0.00    +0.000 C 
ATOM     19  O   UNL     1      -1.649  12.428  23.047  0.00  0.00    +0.000 OA
ENDROOT
BRANCH   4  20
ATOM     20  O   UNL     1       3.124   6.255  17.490  0.00  0.00    +0.000 OA
ATOM     21  C   UNL     1       4.513   6.443  17.229  0.00  0.00    +0.000 C 
ENDBRANCH   4  20
BRANCH   5  22
ATOM     22  O   UNL     1       2.901   5.016  20.127  0.00  0.00    +0.000 OA
ATOM     23  C   UNL     1       2.135   4.247  21.044  0.00  0.00    +0.000 C 
ENDBRANCH   5  22
BRANCH   1  24
ATOM     24  C   UNL     1       0.677  10.975  18.442  0.00  0.00    +0.000 C 
BRANCH  24  26
ATOM     25  C   UNL     1      -1.445  10.052  17.490  0.00  0.00    +0.000 C 
ATOM     26  C   UNL     1      -0.789  11.027  18.105  0.00  0.00    +0.000 C 
ENDBRANCH  24  26
ENDBRANCH   1  24
TORSDOF 4
ENDMDL
MODEL 2
REMARK VINA RESULT:      -6.7      0.710      1.182
REMARK  Name = 
REMARK  8 active torsions:
REMARK  status: ('A' for Active; 'I' for Inactive)
REMARK    1  A    between atoms: C_2  and  C_3
REMARK    2  A    between atoms: C_3  and  N_4
REMARK    3  A    between atoms: C_7  and  O_8
REMARK    4  A    between atoms: O_8  and  C_9
REMARK    5  A    between atoms: C_10  and  O_11
REMARK    6  A    between atoms: O_11  and  C_12
REMARK    7  A    between atoms: C_23  and  C_24
REMARK    8  A    between atoms: C_23  and  C_25
REMARK                            x       y       z     vdW  Elec       q    Type
REMARK                         _______ _______ _______ _____ _____    ______ ____
ROOT
ATOM      1  N   UNL     1       1.061  10.344  19.684  0.00  0.00    +0.000 N 
ATOM      2  C   UNL     1       1.539   9.058  19.576  0.00  0.00    +0.000 A 
ATOM      3  C   UNL     1       2.185   8.441  18.498  0.00  0.00    +0.000 A 
ATOM      4  C   UNL     1       2.563   7.098  18.591  0.00  0.00    +0.000 A 
ATOM      5  C   UNL     1       2.322   6.405  19.788  0.00  0.00    +0.000 A 
ATOM      6  C   UNL     1       1.651   7.043  20.861  0.00  0.00    +0.000 A 
ATOM      7  C   UNL     1       1.223   8.386  20.754  0.00  0.00    +0.000 A 
ATOM      8  C   UNL     1       0.460   9.302  21.566  0.00  0.00    +0.000 A 
ATOM      9  C   UNL     1      -0.251   9.222  22.791  0.00  0.00    +0.000 A 
ATOM     10  C   UNL     1      -1.003  10.331  23.246  0.00  0.00    +0.000 A 
ATOM     11  C   UNL     1      -0.923  11.551  22.591  0.00  0.00    +0.000 A 
ATOM     12  C   UNL     1      -0.025  11.693  21.527  0.00  0.00    +0.000 A 
ATOM     13  C   UNL     1       0.505  10.547  20.926  0.00  0.00    +0.000 A 
ATOM     14  C   UNL     1       0.549  13.009  21.274  0.00  0.00    +0.000 C 
ATOM     15  C   UNL     1      -0.142  14.034  21.778  0.00  0.00    +0.000 C 
ATOM     16  C   UNL     1      -1.580  13.809  22.189  0.00  0.00    +0.000 C 
ATOM     17  C   UNL     1      -2.453  13.679  20.915  0.00  0.00    +0.000 C 
ATOM     18  C   UNL     1      -2.095  15.023  22.971  0.00  0.00    +0.000 C 
ATOM     19  O   UNL     1      -1.675  12.626  23.034  0.00  0.00    +0.000 OA
ENDROOT
BRANCH   4  20
ATOM     20  O   UNL     1       3.161   6.448  17.536  0.00  0.00    +0.000 OA
ATOM     21  C   UNL     1       4.527   6.743  17.256  0.00  0.00    +0.000 C 
ENDBRANCH   4  20
BRANCH   5  22
ATOM     22  O   UNL     1       2.659   5.099  20.079  0.00  0.00    +0.000 OA
ATOM     23  C   UNL     1       1.766   4.326  20.871  0.00  0.00    +0.000 C 
ENDBRANCH   5  22
BRANCH   1  24
ATOM     24  C   UNL     1       0.922  11.258  18.550  0.00  0.00    +0.000 C 
BRANCH  24  26
ATOM     25  C   UNL     1       2.295  13.298  18.086  0.00  0.00    +0.000 C 
ATOM     26  C   UNL     1       2.202  11.983  18.228  0.00  0.00    +0.000 C 
ENDBRANCH  24  26
ENDBRANCH   1  24
TORSDOF 4
ENDMDL
MODEL 3
REMARK VINA RESULT:      -6.5      2.332      7.633
REMARK  Name = 
REMARK  8 active torsions:
REMARK  status: ('A' for Active; 'I' for Inactive)
REMARK    1  A    between atoms: C_2  and  C_3
REMARK    2  A    between atoms: C_3  and  N_4
REMARK    3  A    between atoms: C_7  and  O_8
REMARK    4  A    between atoms: O_8  and  C_9
REMARK    5  A    between atoms: C_10  and  O_11
REMARK    6  A    between atoms: O_11  and  C_12
REMARK    7  A    between atoms: C_23  and  C_24
REMARK    8  A    between atoms: C_23  and  C_25
REMARK                            x       y       z     vdW  Elec       q    Type
REMARK                         _______ _______ _______ _____ _____    ______ ____
ROOT
ATOM      1  N   UNL     1       2.461   7.584  18.089  0.00  0.00    +0.000 N 
ATOM      2  C   UNL     1       1.948   8.741  18.629  0.00  0.00    +0.000 A 
ATOM      3  C   UNL     1       1.963  10.042  18.111  0.00  0.00    +0.000 A 
ATOM      4  C   UNL     1       1.405  11.089  18.851  0.00  0.00    +0.000 A 
ATOM      5  C   UNL     1       0.801  10.805  20.085  0.00  0.00    +0.000 A 
ATOM      6  C   UNL     1       0.813   9.483  20.599  0.00  0.00    +0.000 A 
ATOM      7  C   UNL     1       1.418   8.429  19.878  0.00  0.00    +0.000 A 
ATOM      8  C   UNL     1       1.696   7.034  20.114  0.00  0.00    +0.000 A 
ATOM      9  C   UNL     1       1.545   6.139  21.204  0.00  0.00    +0.000 A 
ATOM     10  C   UNL     1       2.050   4.820  21.112  0.00  0.00    +0.000 A 
ATOM     11  C   UNL     1       2.547   4.340  19.910  0.00  0.00    +0.000 A 
ATOM     12  C   UNL     1       2.465   5.148  18.771  0.00  0.00    +0.000 A 
ATOM     13  C   UNL     1       2.218   6.516  18.921  0.00  0.00    +0.000 A 
ATOM     14  C   UNL     1       2.349   4.502  17.468  0.00  0.00    +0.000 C 
ATOM     15  C   UNL     1       2.764   3.234  17.427  0.00  0.00    +0.000 C 
ATOM     16  C   UNL     1       3.644   2.721  18.544  0.00  0.00    +0.000 C 
ATOM     17  C   UNL     1       5.062   3.326  18.386  0.00  0.00    +0.000 C 
ATOM     18  C   UNL     1       3.786   1.198  18.439  0.00  0.00    +0.000 C 
ATOM     19  O   UNL     1       3.054   3.054  19.834  0.00  0.00    +0.000 OA
ENDROOT
BRANCH   4  20
ATOM     20  O   UNL     1       1.440  12.386  18.392  0.00  0.00    +0.000 OA
ATOM     21  C   UNL     1       2.714  12.996  18.201  0.00  0.00    +0.000 C 
ENDBRANCH   4  20
BRANCH   5  22
ATOM     22  O   UNL     1       0.167  11.693  20.930  0.00  0.00    +0.000 OA
ATOM     23  C   UNL     1      -0.571  11.178  22.030  0.00  0.00    +0.000 C 
ENDBRANCH   5  22
BRANCH   1  24
ATOM     24  C   UNL     1       3.367   7.554  16.940  0.00  0.00    +0.000 C 
BRANCH  24  26
ATOM     25  C   UNL     1       5.553   6.427  16.476  0.00  0.00    +0.000 C 
ATOM     26  C   UNL     1       4.750   7.083  17.304  0.00  0.00    +0.000 C 
ENDBRANCH  24  26
ENDBRANCH   1  24
TORSDOF 4
ENDMDL
MODEL 4
REMARK VINA RESULT:      -6.2      2.795      8.316
REMARK  Name = 
REMARK  8 active torsions:
REMARK  status: ('A' for Active; 'I' for Inactive)
REMARK    1  A    between atoms: C_2  and  C_3
REMARK    2  A    between atoms: C_3  and  N_4
REMARK    3  A    between atoms: C_7  and  O_8
REMARK    4  A    between atoms: O_8  and  C_9
REMARK    5  A    between atoms: C_10  and  O_11
REMARK    6  A    between atoms: O_11  and  C_12
REMARK    7  A    between atoms: C_23  and  C_24
REMARK    8  A    between atoms: C_23  and  C_25
REMARK                            x       y       z     vdW  Elec       q    Type
REMARK                         _______ _______ _______ _____ _____    ______ ____
ROOT
ATOM      1  N   UNL     1      -2.070  12.559  21.265  0.00  0.00    +0.000 N 
ATOM      2  C   UNL     1      -3.325  13.101  21.427  0.00  0.00    +0.000 A 
ATOM      3  C   UNL     1      -3.862  13.778  22.529  0.00  0.00    +0.000 A 
ATOM      4  C   UNL     1      -5.187  14.224  22.491  0.00  0.00    +0.000 A 
ATOM      5  C   UNL     1      -5.941  14.019  21.324  0.00  0.00    +0.000 A 
ATOM      6  C   UNL     1      -5.383  13.315  20.227  0.00  0.00    +0.000 A 
ATOM      7  C   UNL     1      -4.060  12.820  20.278  0.00  0.00    +0.000 A 
ATOM      8  C   UNL     1      -3.220  12.012  19.430  0.00  0.00    +0.000 A 
ATOM      9  C   UNL     1      -3.387  11.305  18.211  0.00  0.00    +0.000 A 
ATOM     10  C   UNL     1      -2.339  10.498  17.712  0.00  0.00    +0.000 A 
ATOM     11  C   UNL     1      -1.090  10.516  18.314  0.00  0.00    +0.000 A 
ATOM     12  C   UNL     1      -0.857  11.405  19.369  0.00  0.00    +0.000 A 
ATOM     13  C   UNL     1      -1.948  11.993  20.017  0.00  0.00    +0.000 A 
ATOM     14  C   UNL     1       0.496  11.911  19.566  0.00  0.00    +0.000 C 
ATOM     15  C   UNL     1       1.462  11.169  19.020  0.00  0.00    +0.000 C 
ATOM     16  C   UNL     1       1.147   9.745  18.623  0.00  0.00    +0.000 C 
ATOM     17  C   UNL     1       1.027   8.879  19.902  0.00  0.00    +0.000 C 
ATOM     18  C   UNL     1       2.299   9.168  17.791  0.00  0.00    +0.000 C 
ATOM     19  O   UNL     1      -0.074   9.709  17.828  0.00  0.00    +0.000 OA
ENDROOT
BRANCH   4  20
ATOM     20  O   UNL     1      -5.760  14.854  23.571  0.00  0.00    +0.000 OA
ATOM     21  C   UNL     1      -5.150  16.050  24.050  0.00  0.00    +0.000 C 
ENDBRANCH   4  20
BRANCH   5  22
ATOM     22  O   UNL     1      -7.239  14.421  21.088  0.00  0.00    +0.000 OA
ATOM     23  C   UNL     1      -7.472  15.431  20.115  0.00  0.00    +0.000 C 
ENDBRANCH   5  22
BRANCH   1  24
ATOM     24  C   UNL     1      -1.118  12.373  22.360  0.00  0.00    +0.000 C 
BRANCH  24  26
ATOM     25  C   UNL     1      -0.487  10.060  23.080  0.00  0.00    +0.000 C 
ATOM     26  C   UNL     1      -1.334  11.081  23.104  0.00  0.00    +0.000 C 
ENDBRANCH  24  26
ENDBRANCH   1  24
TORSDOF 4
ENDMDL
MODEL 5
REMARK VINA RESULT:      -6.1      1.772      3.785
REMARK  Name = 
REMARK  8 active torsions:
REMARK  status: ('A' for Active; 'I' for Inactive)
REMARK    1  A    between atoms: C_2  and  C_3
REMARK    2  A    between atoms: C_3  and  N_4
REMARK    3  A    between atoms: C_7  and  O_8
REMARK    4  A    between atoms: O_8  and  C_9
REMARK    5  A    between atoms: C_10  and  O_11
REMARK    6  A    between atoms: O_11  and  C_12
REMARK    7  A    between atoms: C_23  and  C_24
REMARK    8  A    between atoms: C_23  and  C_25
REMARK                            x       y       z     vdW  Elec       q    Type
REMARK                         _______ _______ _______ _____ _____    ______ ____
ROOT
ATOM      1  N   UNL     1       0.905   8.117  20.330  0.00  0.00    +0.000 N 
ATOM      2  C   UNL     1       1.711   7.082  19.917  0.00  0.00    +0.000 A 
ATOM      3  C   UNL     1       1.853   5.798  20.460  0.00  0.00    +0.000 A 
ATOM      4  C   UNL     1       2.765   4.903  19.895  0.00  0.00    +0.000 A 
ATOM      5  C   UNL     1       3.494   5.298  18.762  0.00  0.00    +0.000 A 
ATOM      6  C   UNL     1       3.350   6.608  18.240  0.00  0.00    +0.000 A 
ATOM      7  C   UNL     1       2.464   7.534  18.837  0.00  0.00    +0.000 A 
ATOM      8  C   UNL     1       2.135   8.925  18.650  0.00  0.00    +0.000 A 
ATOM      9  C   UNL     1       2.613   9.981  17.832  0.00  0.00    +0.000 A 
ATOM     10  C   UNL     1       2.111  11.293  18.004  0.00  0.00    +0.000 A 
ATOM     11  C   UNL     1       1.039  11.529  18.852  0.00  0.00    +0.000 A 
ATOM     12  C   UNL     1       0.409  10.443  19.469  0.00  0.00    +0.000 A 
ATOM     13  C   UNL     1       1.061   9.207  19.505  0.00  0.00    +0.000 A 
ATOM     14  C   UNL     1      -1.010  10.553  19.788  0.00  0.00    +0.000 C 
ATOM     15  C   UNL     1      -1.475  11.802  19.872  0.00  0.00    +0.000 C 
ATOM     16  C   UNL     1      -0.488  12.936  20.027  0.00  0.00    +0.000 C 
ATOM     17  C   UNL     1       0.083  12.915  21.468  0.00  0.00    +0.000 C 
ATOM     18  C   UNL     1      -1.203  14.280  19.842  0.00  0.00    +0.000 C 
ATOM     19  O   UNL     1       0.565  12.819  19.026  0.00  0.00    +0.000 OA
ENDROOT
BRANCH   4  20
ATOM     20  O   UNL     1       2.959   3.649  20.427  0.00  0.00    +0.000 OA
ATOM     21  C   UNL     1       2.168   3.267  21.549  0.00  0.00    +0.000 C 
ENDBRANCH   4  20
BRANCH   5  22
ATOM     22  O   UNL     1       4.402   4.543  18.048  0.00  0.00    +0.000 OA
ATOM     23  C   UNL     1       5.768   4.570  18.441  0.00  0.00    +0.000 C 
ENDBRANCH   5  22
BRANCH   1  24
ATOM     24  C   UNL     1       0.201   8.139  21.613  0.00  0.00    +0.000 C 
BRANCH  24  26
ATOM     25  C   UNL     1      -0.018   9.807  23.466  0.00  0.00    +0.000 C 
ATOM     26  C   UNL     1       0.719   9.207  22.540  0.00  0.00    +0.000 C 
ENDBRANCH  24  26
ENDBRANCH   1  24
TORSDOF 4
ENDMDL
MODEL 6
REMARK VINA RESULT:      -6.0      1.213      1.565
REMARK  Name = 
REMARK  8 active torsions:
REMARK  status: ('A' for Active; 'I' for Inactive)
REMARK    1  A    between atoms: C_2  and  C_3
REMARK    2  A    between atoms: C_3  and  N_4
REMARK    3  A    between atoms: C_7  and  O_8
REMARK    4  A    between atoms: O_8  and  C_9
REMARK    5  A    between atoms: C_10  and  O_11
REMARK    6  A    between atoms: O_11  and  C_12
REMARK    7  A    between atoms: C_23  and  C_24
REMARK    8  A    between atoms: C_23  and  C_25
REMARK                            x       y       z     vdW  Elec       q    Type
REMARK                         _______ _______ _______ _____ _____    ______ ____
ROOT
ATOM      1  N   UNL     1       1.333   9.223  19.450  0.00  0.00    +0.000 N 
ATOM      2  C   UNL     1       1.762   7.919  19.544  0.00  0.00    +0.000 A 
ATOM      3  C   UNL     1       2.374   7.116  18.574  0.00  0.00    +0.000 A 
ATOM      4  C   UNL     1       2.704   5.792  18.877  0.00  0.00    +0.000 A 
ATOM      5  C   UNL     1       2.451   5.305  20.169  0.00  0.00    +0.000 A 
ATOM      6  C   UNL     1       1.814   6.130  21.131  0.00  0.00    +0.000 A 
ATOM      7  C   UNL     1       1.434   7.454  20.815  0.00  0.00    +0.000 A 
ATOM      8  C   UNL     1       0.713   8.514  21.475  0.00  0.00    +0.000 A 
ATOM      9  C   UNL     1       0.012   8.656  22.700  0.00  0.00    +0.000 A 
ATOM     10  C   UNL     1      -0.695   9.849  22.978  0.00  0.00    +0.000 A 
ATOM     11  C   UNL     1      -0.577  10.947  22.138  0.00  0.00    +0.000 A 
ATOM     12  C   UNL     1       0.314  10.886  21.061  0.00  0.00    +0.000 A 
ATOM     13  C   UNL     1       0.796   9.641  20.646  0.00  0.00    +0.000 A 
ATOM     14  C   UNL     1       0.934  12.123  20.601  0.00  0.00    +0.000 C 
ATOM     15  C   UNL     1       0.285  13.239  20.940  0.00  0.00    +0.000 C 
ATOM     16  C   UNL     1      -1.155  13.136  21.387  0.00  0.00    +0.000 C 
ATOM     17  C   UNL     1      -2.046  12.840  20.154  0.00  0.00    +0.000 C 
ATOM     18  C   UNL     1      -1.619  14.477  21.969  0.00  0.00    +0.000 C 
ATOM     19  O   UNL     1      -1.285  12.106  22.409  0.00  0.00    +0.000 OA
ENDROOT
BRANCH   4  20
ATOM     20  O   UNL     1       3.267   4.962  17.935  0.00  0.00    +0.000 OA
ATOM     21  C   UNL     1       2.462   3.919  17.393  0.00  0.00    +0.000 C 
ENDBRANCH   4  20
BRANCH   5  22
ATOM     22  O   UNL     1       2.742   4.050  20.661  0.00  0.00    +0.000 OA
ATOM     23  C   UNL     1       1.693   3.284  21.237  0.00  0.00    +0.000 C 
ENDBRANCH   5  22
BRANCH   1  24
ATOM     24  C   UNL     1       1.214   9.951  18.186  0.00  0.00    +0.000 C 
BRANCH  24  26
ATOM     25  C   UNL     1       2.572  12.024  17.833  0.00  0.00    +0.000 C 
ATOM     26  C   UNL     1       2.471  10.702  17.829  0.00  0.00    +0.000 C 
ENDBRANCH  24  26
ENDBRANCH   1  24
TORSDOF 4
ENDMDL
MODEL 7
REMARK VINA RESULT:      -5.9      2.035      3.882
REMARK  Name = 
REMARK  8 active torsions:
REMARK  status: ('A' for Active; 'I' for Inactive)
REMARK    1  A    between atoms: C_2  and  C_3
REMARK    2  A    between atoms: C_3  and  N_4
REMARK    3  A    between atoms: C_7  and  O_8
REMARK    4  A    between atoms: O_8  and  C_9
REMARK    5  A    between atoms: C_10  and  O_11
REMARK    6  A    between atoms: O_11  and  C_12
REMARK    7  A    between atoms: C_23  and  C_24
REMARK    8  A    between atoms: C_23  and  C_25
REMARK                            x       y       z     vdW  Elec       q    Type
REMARK                         _______ _______ _______ _____ _____    ______ ____
ROOT
ATOM      1  N   UNL     1       1.275   8.527  20.771  0.00  0.00    +0.000 N 
ATOM      2  C   UNL     1       1.703   7.284  20.365  0.00  0.00    +0.000 A 
ATOM      3  C   UNL     1       1.794   6.095  21.099  0.00  0.00    +0.000 A 
ATOM      4  C   UNL     1       2.293   4.939  20.490  0.00  0.00    +0.000 A 
ATOM      5  C   UNL     1       2.655   4.987  19.134  0.00  0.00    +0.000 A 
ATOM      6  C   UNL     1       2.571   6.205  18.414  0.00  0.00    +0.000 A 
ATOM      7  C   UNL     1       2.114   7.388  19.039  0.00  0.00    +0.000 A 
ATOM      8  C   UNL     1       1.987   8.776  18.669  0.00  0.00    +0.000 A 
ATOM      9  C   UNL     1       2.337   9.562  17.541  0.00  0.00    +0.000 A 
ATOM     10  C   UNL     1       2.157  10.965  17.574  0.00  0.00    +0.000 A 
ATOM     11  C   UNL     1       1.492  11.564  18.633  0.00  0.00    +0.000 A 
ATOM     12  C   UNL     1       0.928  10.755  19.626  0.00  0.00    +0.000 A 
ATOM     13  C   UNL     1       1.331   9.420  19.726  0.00  0.00    +0.000 A 
ATOM     14  C   UNL     1      -0.257  11.237  20.324  0.00  0.00    +0.000 C 
ATOM     15  C   UNL     1      -0.443  12.558  20.277  0.00  0.00    +0.000 C 
ATOM     16  C   UNL     1       0.719  13.442  19.885  0.00  0.00    +0.000 C 
ATOM     17  C   UNL     1       1.729  13.496  21.060  0.00  0.00    +0.000 C 
ATOM     18  C   UNL     1       0.228  14.874  19.643  0.00  0.00    +0.000 C 
ATOM     19  O   UNL     1       1.336  12.940  18.664  0.00  0.00    +0.000 OA
ENDROOT
BRANCH   4  20
ATOM     20  O   UNL     1       2.435   3.765  21.192  0.00  0.00    +0.000 OA
ATOM     21  C   UNL     1       1.321   2.878  21.248  0.00  0.00    +0.000 C 
ENDBRANCH   4  20
BRANCH   5  22
ATOM     22  O   UNL     1       3.123   3.947  18.358  0.00  0.00    +0.000 OA
ATOM     23  C   UNL     1       2.189   3.182  17.608  0.00  0.00    +0.000 C 
ENDBRANCH   5  22
BRANCH   1  24
ATOM     24  C   UNL     1       1.061   8.896  22.171  0.00  0.00    +0.000 C 
BRANCH  24  26
ATOM     25  C   UNL     1      -0.928   9.943  23.273  0.00  0.00    +0.000 C 
ATOM     26  C   UNL     1      -0.399   8.977  22.533  0.00  0.00    +0.000 C 
ENDBRANCH  24  26
ENDBRANCH   1  24
TORSDOF 4
ENDMDL
MODEL 8
REMARK VINA RESULT:      -5.8      3.216      5.387
REMARK  Name = 
REMARK  8 active torsions:
REMARK  status: ('A' for Active; 'I' for Inactive)
REMARK    1  A    between atoms: C_2  and  C_3
REMARK    2  A    between atoms: C_3  and  N_4
REMARK    3  A    between atoms: C_7  and  O_8
REMARK    4  A    between atoms: O_8  and  C_9
REMARK    5  A    between atoms: C_10  and  O_11
REMARK    6  A    between atoms: O_11  and  C_12
REMARK    7  A    between atoms: C_23  and  C_24
REMARK    8  A    between atoms: C_23  and  C_25
REMARK                            x       y       z     vdW  Elec       q    Type
REMARK                         _______ _______ _______ _____ _____    ______ ____
ROOT
ATOM      1  N   UNL     1      -3.833  12.769  19.690  0.00  0.00    +0.000 N 
ATOM      2  C   UNL     1      -2.979  11.914  19.032  0.00  0.00    +0.000 A 
ATOM      3  C   UNL     1      -3.194  11.174  17.863  0.00  0.00    +0.000 A 
ATOM      4  C   UNL     1      -2.188  10.333  17.380  0.00  0.00    +0.000 A 
ATOM      5  C   UNL     1      -0.960  10.279  18.059  0.00  0.00    +0.000 A 
ATOM      6  C   UNL     1      -0.770  11.023  19.251  0.00  0.00    +0.000 A 
ATOM      7  C   UNL     1      -1.802  11.838  19.771  0.00  0.00    +0.000 A 
ATOM      8  C   UNL     1      -2.000  12.632  20.957  0.00  0.00    +0.000 A 
ATOM      9  C   UNL     1      -1.270  12.877  22.149  0.00  0.00    +0.000 A 
ATOM     10  C   UNL     1      -1.844  13.652  23.184  0.00  0.00    +0.000 A 
ATOM     11  C   UNL     1      -3.047  14.312  22.983  0.00  0.00    +0.000 A 
ATOM     12  C   UNL     1      -3.642  14.269  21.718  0.00  0.00    +0.000 A 
ATOM     13  C   UNL     1      -3.219  13.305  20.798  0.00  0.00    +0.000 A 
ATOM     14  C   UNL     1      -4.463  15.398  21.297  0.00  0.00    +0.000 C 
ATOM     15  C   UNL     1      -4.931  16.157  22.291  0.00  0.00    +0.000 C 
ATOM     16  C   UNL     1      -4.924  15.600  23.696  0.00  0.00    +0.000 C 
ATOM     17  C   UNL     1      -6.036  14.527  23.819  0.00  0.00    +0.000 C 
ATOM     18  C   UNL     1      -5.253  16.711  24.700  0.00  0.00    +0.000 C 
ATOM     19  O   UNL     1      -3.609  15.055  24.008  0.00  0.00    +0.000 OA
ENDROOT
BRANCH   4  20
ATOM     20  O   UNL     1      -2.380   9.560  16.258  0.00  0.00    +0.000 OA
ATOM     21  C   UNL     1      -2.933  10.182  15.101  0.00  0.00    +0.000 C 
ENDBRANCH   4  20
BRANCH   5  22
ATOM     22  O   UNL     1       0.155   9.545  17.712  0.00  0.00    +0.000 OA
ATOM     23  C   UNL     1       1.388   9.833  18.358  0.00  0.00    +0.000 C 
ENDBRANCH   5  22
BRANCH   1  24
ATOM     24  C   UNL     1      -5.265  12.870  19.402  0.00  0.00    +0.000 C 
BRANCH  24  26
ATOM     25  C   UNL     1      -7.161  12.403  20.968  0.00  0.00    +0.000 C 
ATOM     26  C   UNL     1      -6.099  11.986  20.291  0.00  0.00    +0.000 C 
ENDBRANCH  24  26
ENDBRANCH   1  24
TORSDOF 4
ENDMDL
MODEL 9
REMARK VINA RESULT:      -5.7      2.082      7.370
REMARK  Name = 
REMARK  8 active torsions:
REMARK  status: ('A' for Active; 'I' for Inactive)
REMARK    1  A    between atoms: C_2  and  C_3
REMARK    2  A    between atoms: C_3  and  N_4
REMARK    3  A    between atoms: C_7  and  O_8
REMARK    4  A    between atoms: O_8  and  C_9
REMARK    5  A    between atoms: C_10  and  O_11
REMARK    6  A    between atoms: O_11  and  C_12
REMARK    7  A    between atoms: C_23  and  C_24
REMARK    8  A    between atoms: C_23  and  C_25
REMARK                            x       y       z     vdW  Elec       q    Type
REMARK                         _______ _______ _______ _____ _____    ______ ____
ROOT
ATOM      1  N   UNL     1       0.988   8.765  20.273  0.00  0.00    +0.000 N 
ATOM      2  C   UNL     1       1.080  10.048  19.783  0.00  0.00    +0.000 A 
ATOM      3  C   UNL     1       0.409  11.205  20.197  0.00  0.00    +0.000 A 
ATOM      4  C   UNL     1       0.632  12.413  19.530  0.00  0.00    +0.000 A 
ATOM      5  C   UNL     1       1.560  12.448  18.477  0.00  0.00    +0.000 A 
ATOM      6  C   UNL     1       2.214  11.261  18.061  0.00  0.00    +0.000 A 
ATOM      7  C   UNL     1       1.957  10.027  18.702  0.00  0.00    +0.000 A 
ATOM      8  C   UNL     1       2.345   8.653  18.503  0.00  0.00    +0.000 A 
ATOM      9  C   UNL     1       3.096   7.939  17.534  0.00  0.00    +0.000 A 
ATOM     10  C   UNL     1       3.179   6.529  17.600  0.00  0.00    +0.000 A 
ATOM     11  C   UNL     1       2.670   5.846  18.695  0.00  0.00    +0.000 A 
ATOM     12  C   UNL     1       2.150   6.576  19.769  0.00  0.00    +0.000 A 
ATOM     13  C   UNL     1       1.834   7.925  19.586  0.00  0.00    +0.000 A 
ATOM     14  C   UNL     1       2.229   5.997  21.105  0.00  0.00    +0.000 C 
ATOM     15  C   UNL     1       2.381   4.672  21.139  0.00  0.00    +0.000 C 
ATOM     16  C   UNL     1       2.070   3.873  19.894  0.00  0.00    +0.000 C 
ATOM     17  C   UNL     1       0.533   3.820  19.700  0.00  0.00    +0.000 C 
ATOM     18  C   UNL     1       2.555   2.428  20.065  0.00  0.00    +0.000 C 
ATOM     19  O   UNL     1       2.741   4.464  18.743  0.00  0.00    +0.000 OA
ENDROOT
BRANCH   4  20
ATOM     20  O   UNL     1      -0.041  13.559  19.883  0.00  0.00    +0.000 OA
ATOM     21  C   UNL     1      -1.458  13.490  20.021  0.00  0.00    +0.000 C 
ENDBRANCH   4  20
BRANCH   5  22
ATOM     22  O   UNL     1       1.938  13.547  17.734  0.00  0.00    +0.000 OA
ATOM     23  C   UNL     1       3.017  14.346  18.201  0.00  0.00    +0.000 C 
ENDBRANCH   5  22
BRANCH   1  24
ATOM     24  C   UNL     1      -0.056   8.321  21.198  0.00  0.00    +0.000 C 
BRANCH  24  26
ATOM     25  C   UNL     1      -0.580   9.744  23.189  0.00  0.00    +0.000 C 
ATOM     26  C   UNL     1       0.165   8.816  22.603  0.00  0.00    +0.000 C 
ENDBRANCH  24  26
ENDBRANCH   1  24
TORSDOF 4
ENDMDL
