MODEL 1
REMARK VINA RESULT:      -7.8      0.000      0.000
REMARK  Name = 
REMARK  10 active torsions:
REMARK  status: ('A' for Active; 'I' for Inactive)
REMARK    1  A    between atoms: C_1  and  C_2
REMARK    2  A    between atoms: C_2  and  C_3
REMARK    3  A    between atoms: C_2  and  O_4
REMARK    4  A    between atoms: C_2  and  C_21
REMARK    5  A    between atoms: O_4  and  C_5
REMARK    6  A    between atoms: C_8  and  C_9
REMARK    7  A    between atoms: C_9  and  C_11
REMARK    8  A    between atoms: N_26  and  C_27
REMARK    9  A    between atoms: C_27  and  C_28
REMARK   10  A    between atoms: C_28  and  O_29
REMARK                            x       y       z     vdW  Elec       q    Type
REMARK                         _______ _______ _______ _____ _____    ______ ____
ROOT
ATOM      1  O   UNL     1       2.344   3.970  17.975  0.00  0.00    +0.000 OA
ENDROOT
BRANCH   1   2
ATOM      2  C   UNL     1       2.169   5.138  18.687  0.00  0.00    +0.000 A 
ATOM      3  C   UNL     1       2.403   6.415  18.169  0.00  0.00    +0.000 A 
ATOM      4  C   UNL     1       2.132   7.562  18.920  0.00  0.00    +0.000 A 
ATOM      5  C   UNL     1       1.612   7.456  20.207  0.00  0.00    +0.000 A 
ATOM      6  C   UNL     1       1.438   6.189  20.770  0.00  0.00    +0.000 A 
ATOM      7  C   UNL     1       1.724   5.039  20.017  0.00  0.00    +0.000 A 
ATOM      8 CL   UNL     1       1.480   3.498  20.767  0.00  0.00    +0.000 Cl
BRANCH   5   9
ATOM      9  C   UNL     1       1.289   8.675  21.000  0.00  0.00    +0.000 C 
ATOM     10  O   UNL     1       1.416   8.645  22.221  0.00  0.00    +0.000 OA
BRANCH   9  11
ATOM     11  C   UNL     1       0.826   9.933  20.351  0.00  0.00    +0.000 A 
ATOM     12  C   UNL     1       1.311  11.156  20.831  0.00  0.00    +0.000 A 
ATOM     13  C   UNL     1       0.886  12.357  20.252  0.00  0.00    +0.000 A 
ATOM     14  C   UNL     1      -0.029  12.335  19.201  0.00  0.00    +0.000 A 
ATOM     15 CL   UNL     1      -0.566  13.811  18.501  0.00  0.00    +0.000 Cl
ATOM     16  C   UNL     1      -0.523  11.123  18.719  0.00  0.00    +0.000 A 
ATOM     17  C   UNL     1      -0.106   9.921  19.301  0.00  0.00    +0.000 A 
ENDBRANCH   9  11
ENDBRANCH   5   9
ENDBRANCH   1   2
BRANCH   1  19
ATOM     18  C   UNL     1       3.441   1.817  18.247  0.00  0.00    +0.000 C 
ATOM     19  C   UNL     1       3.630   3.328  17.961  0.00  0.00    +0.000 C 
ATOM     20  C   UNL     1       4.196   3.373  16.521  0.00  0.00    +0.000 C 
BRANCH  19  21
ATOM     21  C   UNL     1       4.724   3.961  18.891  0.00  0.00    +0.000 C 
ATOM     22  O   UNL     1       4.920   3.480  20.014  0.00  0.00    +0.000 OA
ATOM     23  N   UNL     1       5.460   5.058  18.460  0.00  0.00    +0.000 N 
ATOM     24  C   UNL     1       6.502   5.589  19.340  0.00  0.00    +0.000 C 
ATOM     25  C   UNL     1       7.845   5.677  18.591  0.00  0.00    +0.000 C 
ATOM     26  N   UNL     1       7.793   6.455  17.329  0.00  0.00    +0.000 NA
ATOM     27  C   UNL     1       6.702   5.899  16.482  0.00  0.00    +0.000 C 
ATOM     28  C   UNL     1       5.330   5.791  17.192  0.00  0.00    +0.000 C 
BRANCH  26  29
ATOM     29  C   UNL     1       7.585   7.907  17.541  0.00  0.00    +0.000 C 
BRANCH  29  30
ATOM     30  C   UNL     1       8.587   8.541  18.518  0.00  0.00    +0.000 C 
BRANCH  30  31
ATOM     31  O   UNL     1       8.648   9.949  18.328  0.00  0.00    +0.000 OA
ATOM     32  H   UNL     1       9.513  10.224  18.690  0.00  0.00    +0.000 HD
ENDBRANCH  30  31
ENDBRANCH  29  30
ENDBRANCH  26  29
ENDBRANCH  19  21
ENDBRANCH   1  19
TORSDOF 8
ENDMDL
MODEL 2
REMARK VINA RESULT:      -7.8      5.053     10.330
REMARK  Name = 
REMARK  10 active torsions:
REMARK  status: ('A' for Active; 'I' for Inactive)
REMARK    1  A    between atoms: C_1  and  C_2
REMARK    2  A    between atoms: C_2  and  C_3
REMARK    3  A    between atoms: C_2  and  O_4
REMARK    4  A    between atoms: C_2  and  C_21
REMARK    5  A    between atoms: O_4  and  C_5
REMARK    6  A    between atoms: C_8  and  C_9
REMARK    7  A    between atoms: C_9  and  C_11
REMARK    8  A    between atoms: N_26  and  C_27
REMARK    9  A    between atoms: C_27  and  C_28
REMARK   10  A    between atoms: C_28  and  O_29
REMARK                            x       y       z     vdW  Elec       q    Type
REMARK                         _______ _______ _______ _____ _____    ______ ____
ROOT
ATOM      1  O   UNL     1      -0.598  11.123  20.820  0.00  0.00    +0.000 OA
ENDROOT
BRANCH   1   2
ATOM      2  C   UNL     1       0.151  10.246  20.066  0.00  0.00    +0.000 A 
ATOM      3  C   UNL     1       0.236  10.285  18.671  0.00  0.00    +0.000 A 
ATOM      4  C   UNL     1       1.075   9.414  17.972  0.00  0.00    +0.000 A 
ATOM      5  C   UNL     1       1.857   8.486  18.656  0.00  0.00    +0.000 A 
ATOM      6  C   UNL     1       1.734   8.382  20.043  0.00  0.00    +0.000 A 
ATOM      7  C   UNL     1       0.879   9.251  20.742  0.00  0.00    +0.000 A 
ATOM      8 CL   UNL     1       0.777   9.078  22.461  0.00  0.00    +0.000 Cl
BRANCH   5   9
ATOM      9  C   UNL     1       2.780   7.578  17.919  0.00  0.00    +0.000 C 
ATOM     10  O   UNL     1       3.482   8.037  17.023  0.00  0.00    +0.000 OA
BRANCH   9  11
ATOM     11  C   UNL     1       2.881   6.128  18.247  0.00  0.00    +0.000 A 
ATOM     12  C   UNL     1       1.848   5.273  17.843  0.00  0.00    +0.000 A 
ATOM     13  C   UNL     1       1.906   3.909  18.147  0.00  0.00    +0.000 A 
ATOM     14  C   UNL     1       2.990   3.402  18.861  0.00  0.00    +0.000 A 
ATOM     15 CL   UNL     1       3.053   1.728  19.251  0.00  0.00    +0.000 Cl
ATOM     16  C   UNL     1       4.021   4.246  19.274  0.00  0.00    +0.000 A 
ATOM     17  C   UNL     1       3.963   5.612  18.978  0.00  0.00    +0.000 A 
ENDBRANCH   9  11
ENDBRANCH   5   9
ENDBRANCH   1   2
BRANCH   1  19
ATOM     18  C   UNL     1       1.330  12.600  20.726  0.00  0.00    +0.000 C 
ATOM     19  C   UNL     1      -0.205  12.502  20.913  0.00  0.00    +0.000 C 
ATOM     20  C   UNL     1      -0.785  13.271  19.701  0.00  0.00    +0.000 C 
BRANCH  19  21
ATOM     21  C   UNL     1      -0.682  13.268  22.197  0.00  0.00    +0.000 C 
ATOM     22  O   UNL     1       0.113  13.999  22.800  0.00  0.00    +0.000 OA
ATOM     23  N   UNL     1      -1.984  13.118  22.658  0.00  0.00    +0.000 N 
ATOM     24  C   UNL     1      -2.402  13.886  23.833  0.00  0.00    +0.000 C 
ATOM     25  C   UNL     1      -3.683  14.684  23.526  0.00  0.00    +0.000 C 
ATOM     26  N   UNL     1      -4.810  13.863  23.022  0.00  0.00    +0.000 NA
ATOM     27  C   UNL     1      -4.331  13.080  21.850  0.00  0.00    +0.000 C 
ATOM     28  C   UNL     1      -3.044  12.259  22.109  0.00  0.00    +0.000 C 
BRANCH  26  29
ATOM     29  C   UNL     1      -5.379  12.953  24.044  0.00  0.00    +0.000 C 
BRANCH  29  30
ATOM     30  C   UNL     1      -6.914  12.881  24.023  0.00  0.00    +0.000 C 
BRANCH  30  31
ATOM     31  O   UNL     1      -7.349  11.532  23.901  0.00  0.00    +0.000 OA
ATOM     32  H   UNL     1      -7.384  11.185  24.815  0.00  0.00    +0.000 HD
ENDBRANCH  30  31
ENDBRANCH  29  30
ENDBRANCH  26  29
ENDBRANCH  19  21
ENDBRANCH   1  19
TORSDOF 8
ENDMDL
MODEL 3
REMARK VINA RESULT:      -7.8      4.572      9.525
REMARK  Name = 
REMARK  10 active torsions:
REMARK  status: ('A' for Active; 'I' for Inactive)
REMARK    1  A    between atoms: C_1  and  C_2
REMARK    2  A    between atoms: C_2  and  C_3
REMARK    3  A    between atoms: C_2  and  O_4
REMARK    4  A    between atoms: C_2  and  C_21
REMARK    5  A    between atoms: O_4  and  C_5
REMARK    6  A    between atoms: C_8  and  C_9
REMARK    7  A    between atoms: C_9  and  C_11
REMARK    8  A    between atoms: N_26  and  C_27
REMARK    9  A    between atoms: C_27  and  C_28
REMARK   10  A    between atoms: C_28  and  O_29
REMARK                            x       y       z     vdW  Elec       q    Type
REMARK                         _______ _______ _______ _____ _____    ______ ____
ROOT
ATOM      1  O   UNL     1       0.031  10.886  19.182  0.00  0.00    +0.000 OA
ENDROOT
BRANCH   1   2
ATOM      2  C   UNL     1       0.776   9.729  19.104  0.00  0.00    +0.000 A 
ATOM      3  C   UNL     1       1.325   9.227  17.919  0.00  0.00    +0.000 A 
ATOM      4  C   UNL     1       2.134   8.089  17.922  0.00  0.00    +0.000 A 
ATOM      5  C   UNL     1       2.420   7.429  19.114  0.00  0.00    +0.000 A 
ATOM      6  C   UNL     1       1.824   7.870  20.298  0.00  0.00    +0.000 A 
ATOM      7  C   UNL     1       1.001   9.008  20.290  0.00  0.00    +0.000 A 
ATOM      8 CL   UNL     1       0.298   9.510  21.790  0.00  0.00    +0.000 Cl
BRANCH   5   9
ATOM      9  C   UNL     1       3.311   6.234  19.128  0.00  0.00    +0.000 C 
ATOM     10  O   UNL     1       3.370   5.545  20.142  0.00  0.00    +0.000 OA
BRANCH   9  11
ATOM     11  C   UNL     1       4.124   5.848  17.941  0.00  0.00    +0.000 A 
ATOM     12  C   UNL     1       3.858   4.624  17.313  0.00  0.00    +0.000 A 
ATOM     13  C   UNL     1       4.611   4.225  16.204  0.00  0.00    +0.000 A 
ATOM     14  C   UNL     1       5.634   5.044  15.728  0.00  0.00    +0.000 A 
ATOM     15 CL   UNL     1       6.573   4.546  14.377  0.00  0.00    +0.000 Cl
ATOM     16  C   UNL     1       5.911   6.262  16.350  0.00  0.00    +0.000 A 
ATOM     17  C   UNL     1       5.164   6.660  17.464  0.00  0.00    +0.000 A 
ENDBRANCH   9  11
ENDBRANCH   5   9
ENDBRANCH   1   2
BRANCH   1  19
ATOM     18  C   UNL     1       2.123  12.036  18.721  0.00  0.00    +0.000 C 
ATOM     19  C   UNL     1       0.695  12.155  19.309  0.00  0.00    +0.000 C 
ATOM     20  C   UNL     1      -0.010  13.182  18.390  0.00  0.00    +0.000 C 
BRANCH  19  21
ATOM     21  C   UNL     1       0.711  12.781  20.748  0.00  0.00    +0.000 C 
ATOM     22  O   UNL     1       1.793  12.958  21.322  0.00  0.00    +0.000 OA
ATOM     23  N   UNL     1      -0.480  13.125  21.375  0.00  0.00    +0.000 N 
ATOM     24  C   UNL     1      -0.417  13.749  22.699  0.00  0.00    +0.000 C 
ATOM     25  C   UNL     1      -1.212  15.068  22.709  0.00  0.00    +0.000 C 
ATOM     26  N   UNL     1      -2.623  14.937  22.269  0.00  0.00    +0.000 NA
ATOM     27  C   UNL     1      -2.637  14.273  20.937  0.00  0.00    +0.000 C 
ATOM     28  C   UNL     1      -1.850  12.941  20.875  0.00  0.00    +0.000 C 
BRANCH  26  29
ATOM     29  C   UNL     1      -3.470  14.184  23.223  0.00  0.00    +0.000 C 
BRANCH  29  30
ATOM     30  C   UNL     1      -3.970  15.027  24.407  0.00  0.00    +0.000 C 
BRANCH  30  31
ATOM     31  O   UNL     1      -3.374  14.586  25.621  0.00  0.00    +0.000 OA
ATOM     32  H   UNL     1      -2.626  15.194  25.781  0.00  0.00    +0.000 HD
ENDBRANCH  30  31
ENDBRANCH  29  30
ENDBRANCH  26  29
ENDBRANCH  19  21
ENDBRANCH   1  19
TORSDOF 8
ENDMDL
MODEL 4
REMARK VINA RESULT:      -7.7      4.664      9.532
REMARK  Name = 
REMARK  10 active torsions:
REMARK  status: ('A' for Active; 'I' for Inactive)
REMARK    1  A    between atoms: C_1  and  C_2
REMARK    2  A    between atoms: C_2  and  C_3
REMARK    3  A    between atoms: C_2  and  O_4
REMARK    4  A    between atoms: C_2  and  C_21
REMARK    5  A    between atoms: O_4  and  C_5
REMARK    6  A    between atoms: C_8  and  C_9
REMARK    7  A    between atoms: C_9  and  C_11
REMARK    8  A    between atoms: N_26  and  C_27
REMARK    9  A    between atoms: C_27  and  C_28
REMARK   10  A    between atoms: C_28  and  O_29
REMARK                            x       y       z     vdW  Elec       q    Type
REMARK                         _______ _______ _______ _____ _____    ______ ____
ROOT
ATOM      1  O   UNL     1       0.109  10.949  19.983  0.00  0.00    +0.000 OA
ENDROOT
BRANCH   1   2
ATOM      2  C   UNL     1       0.770   9.762  19.752  0.00  0.00    +0.000 A 
ATOM      3  C   UNL     1       1.430   9.450  18.558  0.00  0.00    +0.000 A 
ATOM      4  C   UNL     1       2.146   8.260  18.416  0.00  0.00    +0.000 A 
ATOM      5  C   UNL     1       2.226   7.354  19.471  0.00  0.00    +0.000 A 
ATOM      6  C   UNL     1       1.516   7.611  20.646  0.00  0.00    +0.000 A 
ATOM      7  C   UNL     1       0.786   8.804  20.780  0.00  0.00    +0.000 A 
ATOM      8 CL   UNL     1      -0.066   9.069  22.264  0.00  0.00    +0.000 Cl
BRANCH   5   9
ATOM      9  C   UNL     1       3.017   6.099  19.338  0.00  0.00    +0.000 C 
ATOM     10  O   UNL     1       3.006   5.285  20.257  0.00  0.00    +0.000 OA
BRANCH   9  11
ATOM     11  C   UNL     1       3.813   5.799  18.115  0.00  0.00    +0.000 A 
ATOM     12  C   UNL     1       3.731   4.517  17.556  0.00  0.00    +0.000 A 
ATOM     13  C   UNL     1       4.476   4.200  16.415  0.00  0.00    +0.000 A 
ATOM     14  C   UNL     1       5.308   5.158  15.839  0.00  0.00    +0.000 A 
ATOM     15 CL   UNL     1       6.238   4.762  14.448  0.00  0.00    +0.000 Cl
ATOM     16  C   UNL     1       5.402   6.435  16.392  0.00  0.00    +0.000 A 
ATOM     17  C   UNL     1       4.664   6.754  17.537  0.00  0.00    +0.000 A 
ENDBRANCH   9  11
ENDBRANCH   5   9
ENDBRANCH   1   2
BRANCH   1  19
ATOM     18  C   UNL     1      -0.147  12.517  18.143  0.00  0.00    +0.000 C 
ATOM     19  C   UNL     1      -0.837  11.440  19.018  0.00  0.00    +0.000 C 
ATOM     20  C   UNL     1      -1.174  10.303  18.024  0.00  0.00    +0.000 C 
BRANCH  19  21
ATOM     21  C   UNL     1      -2.204  11.950  19.594  0.00  0.00    +0.000 C 
ATOM     22  O   UNL     1      -3.257  11.649  19.018  0.00  0.00    +0.000 OA
ATOM     23  N   UNL     1      -2.232  12.741  20.735  0.00  0.00    +0.000 N 
ATOM     24  C   UNL     1      -3.532  13.157  21.266  0.00  0.00    +0.000 C 
ATOM     25  C   UNL     1      -3.650  12.782  22.755  0.00  0.00    +0.000 C 
ATOM     26  N   UNL     1      -2.556  13.306  23.608  0.00  0.00    +0.000 NA
ATOM     27  C   UNL     1      -1.258  12.884  23.014  0.00  0.00    +0.000 C 
ATOM     28  C   UNL     1      -1.090  13.240  21.517  0.00  0.00    +0.000 C 
BRANCH  26  29
ATOM     29  C   UNL     1      -2.588  14.779  23.768  0.00  0.00    +0.000 C 
BRANCH  29  30
ATOM     30  C   UNL     1      -2.627  15.243  25.233  0.00  0.00    +0.000 C 
BRANCH  30  31
ATOM     31  O   UNL     1      -3.441  14.373  26.010  0.00  0.00    +0.000 OA
ATOM     32  H   UNL     1      -3.393  13.503  25.566  0.00  0.00    +0.000 HD
ENDBRANCH  30  31
ENDBRANCH  29  30
ENDBRANCH  26  29
ENDBRANCH  19  21
ENDBRANCH   1  19
TORSDOF 8
ENDMDL
MODEL 5
REMARK VINA RESULT:      -7.7      4.585      9.485
REMARK  Name = 
REMARK  10 active torsions:
REMARK  status: ('A' for Active; 'I' for Inactive)
REMARK    1  A    between atoms: C_1  and  C_2
REMARK    2  A    between atoms: C_2  and  C_3
REMARK    3  A    between atoms: C_2  and  O_4
REMARK    4  A    between atoms: C_2  and  C_21
REMARK    5  A    between atoms: O_4  and  C_5
REMARK    6  A    between atoms: C_8  and  C_9
REMARK    7  A    between atoms: C_9  and  C_11
REMARK    8  A    between atoms: N_26  and  C_27
REMARK    9  A    between atoms: C_27  and  C_28
REMARK   10  A    between atoms: C_28  and  O_29
REMARK                            x       y       z     vdW  Elec       q    Type
REMARK                         _______ _______ _______ _____ _____    ______ ____
ROOT
ATOM      1  O   UNL     1       0.001  10.787  19.099  0.00  0.00    +0.000 OA
ENDROOT
BRANCH   1   2
ATOM      2  C   UNL     1       0.765   9.642  19.030  0.00  0.00    +0.000 A 
ATOM      3  C   UNL     1       1.374   9.173  17.862  0.00  0.00    +0.000 A 
ATOM      4  C   UNL     1       2.199   8.045  17.879  0.00  0.00    +0.000 A 
ATOM      5  C   UNL     1       2.439   7.364  19.069  0.00  0.00    +0.000 A 
ATOM      6  C   UNL     1       1.783   7.771  20.233  0.00  0.00    +0.000 A 
ATOM      7  C   UNL     1       0.945   8.898  20.210  0.00  0.00    +0.000 A 
ATOM      8 CL   UNL     1       0.167   9.359  21.686  0.00  0.00    +0.000 Cl
BRANCH   5   9
ATOM      9  C   UNL     1       3.344   6.181  19.099  0.00  0.00    +0.000 C 
ATOM     10  O   UNL     1       3.433   5.522  20.131  0.00  0.00    +0.000 OA
BRANCH   9  11
ATOM     11  C   UNL     1       4.137   5.769  17.907  0.00  0.00    +0.000 A 
ATOM     12  C   UNL     1       5.067   6.670  17.374  0.00  0.00    +0.000 A 
ATOM     13  C   UNL     1       5.819   6.320  16.247  0.00  0.00    +0.000 A 
ATOM     14  C   UNL     1       5.634   5.074  15.649  0.00  0.00    +0.000 A 
ATOM     15 CL   UNL     1       6.544   4.650  14.253  0.00  0.00    +0.000 Cl
ATOM     16  C   UNL     1       4.706   4.172  16.168  0.00  0.00    +0.000 A 
ATOM     17  C   UNL     1       3.948   4.522  17.291  0.00  0.00    +0.000 A 
ENDBRANCH   9  11
ENDBRANCH   5   9
ENDBRANCH   1   2
BRANCH   1  19
ATOM     18  C   UNL     1       2.093  11.975  18.745  0.00  0.00    +0.000 C 
ATOM     19  C   UNL     1       0.640  12.062  19.277  0.00  0.00    +0.000 C 
ATOM     20  C   UNL     1      -0.041  13.098  18.351  0.00  0.00    +0.000 C 
BRANCH  19  21
ATOM     21  C   UNL     1       0.590  12.659  20.728  0.00  0.00    +0.000 C 
ATOM     22  O   UNL     1       1.634  13.059  21.258  0.00  0.00    +0.000 OA
ATOM     23  N   UNL     1      -0.616  12.728  21.415  0.00  0.00    +0.000 N 
ATOM     24  C   UNL     1      -0.627  13.334  22.748  0.00  0.00    +0.000 C 
ATOM     25  C   UNL     1      -1.687  14.449  22.823  0.00  0.00    +0.000 C 
ATOM     26  N   UNL     1      -3.055  14.021  22.442  0.00  0.00    +0.000 NA
ATOM     27  C   UNL     1      -2.989  13.386  21.097  0.00  0.00    +0.000 C 
ATOM     28  C   UNL     1      -1.937  12.257  20.971  0.00  0.00    +0.000 C 
BRANCH  26  29
ATOM     29  C   UNL     1      -3.673  13.090  23.415  0.00  0.00    +0.000 C 
BRANCH  29  30
ATOM     30  C   UNL     1      -5.162  13.365  23.676  0.00  0.00    +0.000 C 
BRANCH  30  31
ATOM     31  O   UNL     1      -5.561  14.582  23.057  0.00  0.00    +0.000 OA
ATOM     32  H   UNL     1      -6.310  14.345  22.475  0.00  0.00    +0.000 HD
ENDBRANCH  30  31
ENDBRANCH  29  30
ENDBRANCH  26  29
ENDBRANCH  19  21
ENDBRANCH   1  19
TORSDOF 8
ENDMDL
MODEL 6
REMARK VINA RESULT:      -7.7      4.558      9.460
REMARK  Name = 
REMARK  10 active torsions:
REMARK  status: ('A' for Active; 'I' for Inactive)
REMARK    1  A    between atoms: C_1  and  C_2
REMARK    2  A    between atoms: C_2  and  C_3
REMARK    3  A    between atoms: C_2  and  O_4
REMARK    4  A    between atoms: C_2  and  C_21
REMARK    5  A    between atoms: O_4  and  C_5
REMARK    6  A    between atoms: C_8  and  C_9
REMARK    7  A    between atoms: C_9  and  C_11
REMARK    8  A    between atoms: N_26  and  C_27
REMARK    9  A    between atoms: C_27  and  C_28
REMARK   10  A    between atoms: C_28  and  O_29
REMARK                            x       y       z     vdW  Elec       q    Type
REMARK                         _______ _______ _______ _____ _____    ______ ____
ROOT
ATOM      1  O   UNL     1       0.366  10.784  20.091  0.00  0.00    +0.000 OA
ENDROOT
BRANCH   1   2
ATOM      2  C   UNL     1       0.897   9.517  19.981  0.00  0.00    +0.000 A 
ATOM      3  C   UNL     1       1.642   9.069  18.886  0.00  0.00    +0.000 A 
ATOM      4  C   UNL     1       2.216   7.796  18.872  0.00  0.00    +0.000 A 
ATOM      5  C   UNL     1       2.063   6.941  19.960  0.00  0.00    +0.000 A 
ATOM      6  C   UNL     1       1.263   7.340  21.034  0.00  0.00    +0.000 A 
ATOM      7  C   UNL     1       0.677   8.616  21.039  0.00  0.00    +0.000 A 
ATOM      8 CL   UNL     1      -0.297   9.055  22.401  0.00  0.00    +0.000 Cl
BRANCH   5   9
ATOM      9  C   UNL     1       2.702   5.595  19.966  0.00  0.00    +0.000 C 
ATOM     10  O   UNL     1       2.371   4.780  20.822  0.00  0.00    +0.000 OA
BRANCH   9  11
ATOM     11  C   UNL     1       3.724   5.207  18.954  0.00  0.00    +0.000 A 
ATOM     12  C   UNL     1       5.060   5.562  19.177  0.00  0.00    +0.000 A 
ATOM     13  C   UNL     1       6.042   5.224  18.239  0.00  0.00    +0.000 A 
ATOM     14  C   UNL     1       5.688   4.540  17.078  0.00  0.00    +0.000 A 
ATOM     15 CL   UNL     1       6.892   4.141  15.917  0.00  0.00    +0.000 Cl
ATOM     16  C   UNL     1       4.359   4.187  16.843  0.00  0.00    +0.000 A 
ATOM     17  C   UNL     1       3.373   4.530  17.775  0.00  0.00    +0.000 A 
ENDBRANCH   9  11
ENDBRANCH   5   9
ENDBRANCH   1   2
BRANCH   1  19
ATOM     18  C   UNL     1       0.279  12.354  18.237  0.00  0.00    +0.000 C 
ATOM     19  C   UNL     1      -0.494  11.291  19.057  0.00  0.00    +0.000 C 
ATOM     20  C   UNL     1      -0.774  10.159  18.040  0.00  0.00    +0.000 C 
BRANCH  19  21
ATOM     21  C   UNL     1      -1.892  11.826  19.527  0.00  0.00    +0.000 C 
ATOM     22  O   UNL     1      -2.905  11.527  18.882  0.00  0.00    +0.000 OA
ATOM     23  N   UNL     1      -1.990  12.635  20.651  0.00  0.00    +0.000 N 
ATOM     24  C   UNL     1      -3.319  13.075  21.082  0.00  0.00    +0.000 C 
ATOM     25  C   UNL     1      -3.547  12.725  22.565  0.00  0.00    +0.000 C 
ATOM     26  N   UNL     1      -2.509  13.250  23.485  0.00  0.00    +0.000 NA
ATOM     27  C   UNL     1      -1.177  12.803  22.991  0.00  0.00    +0.000 C 
ATOM     28  C   UNL     1      -0.900  13.133  21.504  0.00  0.00    +0.000 C 
BRANCH  26  29
ATOM     29  C   UNL     1      -2.534  14.725  23.620  0.00  0.00    +0.000 C 
BRANCH  29  30
ATOM     30  C   UNL     1      -3.505  15.232  24.697  0.00  0.00    +0.000 C 
BRANCH  30  31
ATOM     31  O   UNL     1      -3.531  14.341  25.806  0.00  0.00    +0.000 OA
ATOM     32  H   UNL     1      -2.683  13.856  25.771  0.00  0.00    +0.000 HD
ENDBRANCH  30  31
ENDBRANCH  29  30
ENDBRANCH  26  29
ENDBRANCH  19  21
ENDBRANCH   1  19
TORSDOF 8
ENDMDL
MODEL 7
REMARK VINA RESULT:      -7.5      5.329     10.777
REMARK  Name = 
REMARK  10 active torsions:
REMARK  status: ('A' for Active; 'I' for Inactive)
REMARK    1  A    between atoms: C_1  and  C_2
REMARK    2  A    between atoms: C_2  and  C_3
REMARK    3  A    between atoms: C_2  and  O_4
REMARK    4  A    between atoms: C_2  and  C_21
REMARK    5  A    between atoms: O_4  and  C_5
REMARK    6  A    between atoms: C_8  and  C_9
REMARK    7  A    between atoms: C_9  and  C_11
REMARK    8  A    between atoms: N_26  and  C_27
REMARK    9  A    between atoms: C_27  and  C_28
REMARK   10  A    between atoms: C_28  and  O_29
REMARK                            x       y       z     vdW  Elec       q    Type
REMARK                         _______ _______ _______ _____ _____    ______ ____
ROOT
ATOM      1  O   UNL     1      -1.323  11.631  20.829  0.00  0.00    +0.000 OA
ENDROOT
BRANCH   1   2
ATOM      2  C   UNL     1      -0.376  10.755  20.342  0.00  0.00    +0.000 A 
ATOM      3  C   UNL     1       0.507  10.027  21.145  0.00  0.00    +0.000 A 
ATOM      4  C   UNL     1       1.391   9.098  20.592  0.00  0.00    +0.000 A 
ATOM      5  C   UNL     1       1.406   8.870  19.218  0.00  0.00    +0.000 A 
ATOM      6  C   UNL     1       0.584   9.637  18.390  0.00  0.00    +0.000 A 
ATOM      7  C   UNL     1      -0.295  10.580  18.949  0.00  0.00    +0.000 A 
ATOM      8 CL   UNL     1      -1.294  11.494  17.872  0.00  0.00    +0.000 Cl
BRANCH   5   9
ATOM      9  C   UNL     1       2.323   7.855  18.625  0.00  0.00    +0.000 C 
ATOM     10  O   UNL     1       3.234   8.228  17.892  0.00  0.00    +0.000 OA
BRANCH   9  11
ATOM     11  C   UNL     1       2.170   6.400  18.907  0.00  0.00    +0.000 A 
ATOM     12  C   UNL     1       2.139   5.506  17.829  0.00  0.00    +0.000 A 
ATOM     13  C   UNL     1       1.984   4.135  18.059  0.00  0.00    +0.000 A 
ATOM     14  C   UNL     1       1.850   3.660  19.362  0.00  0.00    +0.000 A 
ATOM     15 CL   UNL     1       1.640   1.976  19.644  0.00  0.00    +0.000 Cl
ATOM     16  C   UNL     1       1.873   4.542  20.442  0.00  0.00    +0.000 A 
ATOM     17  C   UNL     1       2.021   5.915  20.215  0.00  0.00    +0.000 A 
ENDBRANCH   9  11
ENDBRANCH   5   9
ENDBRANCH   1   2
BRANCH   1  19
ATOM     18  C   UNL     1       0.610  13.072  21.142  0.00  0.00    +0.000 C 
ATOM     19  C   UNL     1      -0.933  12.957  21.225  0.00  0.00    +0.000 C 
ATOM     20  C   UNL     1      -1.446  13.966  20.170  0.00  0.00    +0.000 C 
BRANCH  19  21
ATOM     21  C   UNL     1      -1.476  13.447  22.613  0.00  0.00    +0.000 C 
ATOM     22  O   UNL     1      -0.707  14.007  23.404  0.00  0.00    +0.000 OA
ATOM     23  N   UNL     1      -2.807  13.243  22.955  0.00  0.00    +0.000 N 
ATOM     24  C   UNL     1      -3.284  13.757  24.241  0.00  0.00    +0.000 C 
ATOM     25  C   UNL     1      -4.528  14.642  24.038  0.00  0.00    +0.000 C 
ATOM     26  N   UNL     1      -5.636  13.982  23.305  0.00  0.00    +0.000 NA
ATOM     27  C   UNL     1      -5.098  13.452  22.023  0.00  0.00    +0.000 C 
ATOM     28  C   UNL     1      -3.845  12.555  22.174  0.00  0.00    +0.000 C 
BRANCH  26  29
ATOM     29  C   UNL     1      -6.286  12.895  24.074  0.00  0.00    +0.000 C 
BRANCH  29  30
ATOM     30  C   UNL     1      -7.726  12.596  23.629  0.00  0.00    +0.000 C 
BRANCH  30  31
ATOM     31  O   UNL     1      -7.916  11.197  23.457  0.00  0.00    +0.000 OA
ATOM     32  H   UNL     1      -7.210  10.911  22.843  0.00  0.00    +0.000 HD
ENDBRANCH  30  31
ENDBRANCH  29  30
ENDBRANCH  26  29
ENDBRANCH  19  21
ENDBRANCH   1  19
TORSDOF 8
ENDMDL
MODEL 8
REMARK VINA RESULT:      -7.4      2.739      3.902
REMARK  Name = 
REMARK  10 active torsions:
REMARK  status: ('A' for Active; 'I' for Inactive)
REMARK    1  A    between atoms: C_1  and  C_2
REMARK    2  A    between atoms: C_2  and  C_3
REMARK    3  A    between atoms: C_2  and  O_4
REMARK    4  A    between atoms: C_2  and  C_21
REMARK    5  A    between atoms: O_4  and  C_5
REMARK    6  A    between atoms: C_8  and  C_9
REMARK    7  A    between atoms: C_9  and  C_11
REMARK    8  A    between atoms: N_26  and  C_27
REMARK    9  A    between atoms: C_27  and  C_28
REMARK   10  A    between atoms: C_28  and  O_29
REMARK                            x       y       z     vdW  Elec       q    Type
REMARK                         _______ _______ _______ _____ _____    ______ ____
ROOT
ATOM      1  O   UNL     1       2.744   6.555  20.324  0.00  0.00    +0.000 OA
ENDROOT
BRANCH   1   2
ATOM      2  C   UNL     1       1.817   7.575  20.284  0.00  0.00    +0.000 A 
ATOM      3  C   UNL     1       0.908   7.850  21.311  0.00  0.00    +0.000 A 
ATOM      4  C   UNL     1       0.046   8.947  21.240  0.00  0.00    +0.000 A 
ATOM      5  C   UNL     1       0.078   9.800  20.140  0.00  0.00    +0.000 A 
ATOM      6  C   UNL     1       0.927   9.503  19.071  0.00  0.00    +0.000 A 
ATOM      7  C   UNL     1       1.784   8.392  19.141  0.00  0.00    +0.000 A 
ATOM      8 CL   UNL     1       2.819   8.081  17.789  0.00  0.00    +0.000 Cl
BRANCH   5   9
ATOM      9  C   UNL     1      -0.815  10.991  20.074  0.00  0.00    +0.000 C 
ATOM     10  O   UNL     1      -1.517  11.157  19.081  0.00  0.00    +0.000 OA
BRANCH   9  11
ATOM     11  C   UNL     1      -0.887  11.980  21.185  0.00  0.00    +0.000 A 
ATOM     12  C   UNL     1      -1.895  11.839  22.147  0.00  0.00    +0.000 A 
ATOM     13  C   UNL     1      -1.998  12.759  23.196  0.00  0.00    +0.000 A 
ATOM     14  C   UNL     1      -1.101  13.822  23.279  0.00  0.00    +0.000 A 
ATOM     15 CL   UNL     1      -1.239  14.963  24.558  0.00  0.00    +0.000 Cl
ATOM     16  C   UNL     1      -0.097  13.975  22.323  0.00  0.00    +0.000 A 
ATOM     17  C   UNL     1       0.005  13.061  21.268  0.00  0.00    +0.000 A 
ENDBRANCH   9  11
ENDBRANCH   5   9
ENDBRANCH   1   2
BRANCH   1  19
ATOM     18  C   UNL     1       2.998   4.218  20.942  0.00  0.00    +0.000 C 
ATOM     19  C   UNL     1       2.356   5.222  19.952  0.00  0.00    +0.000 C 
ATOM     20  C   UNL     1       0.834   5.061  20.181  0.00  0.00    +0.000 C 
BRANCH  19  21
ATOM     21  C   UNL     1       2.628   4.819  18.460  0.00  0.00    +0.000 C 
ATOM     22  O   UNL     1       1.688   4.437  17.752  0.00  0.00    +0.000 OA
ATOM     23  N   UNL     1       3.916   4.881  17.942  0.00  0.00    +0.000 N 
ATOM     24  C   UNL     1       4.119   4.540  16.532  0.00  0.00    +0.000 C 
ATOM     25  C   UNL     1       4.864   5.677  15.806  0.00  0.00    +0.000 C 
ATOM     26  N   UNL     1       6.152   6.062  16.432  0.00  0.00    +0.000 NA
ATOM     27  C   UNL     1       5.901   6.370  17.866  0.00  0.00    +0.000 C 
ATOM     28  C   UNL     1       5.154   5.257  18.641  0.00  0.00    +0.000 C 
BRANCH  26  29
ATOM     29  C   UNL     1       7.201   5.023  16.309  0.00  0.00    +0.000 C 
BRANCH  29  30
ATOM     30  C   UNL     1       7.422   4.533  14.869  0.00  0.00    +0.000 C 
BRANCH  30  31
ATOM     31  O   UNL     1       7.881   5.597  14.045  0.00  0.00    +0.000 OA
ATOM     32  H   UNL     1       8.286   6.245  14.655  0.00  0.00    +0.000 HD
ENDBRANCH  30  31
ENDBRANCH  29  30
ENDBRANCH  26  29
ENDBRANCH  19  21
ENDBRANCH   1  19
TORSDOF 8
ENDMDL
MODEL 9
REMARK VINA RESULT:      -7.3      4.436      9.058
REMARK  Name = 
REMARK  10 active torsions:
REMARK  status: ('A' for Active; 'I' for Inactive)
REMARK    1  A    between atoms: C_1  and  C_2
REMARK    2  A    between atoms: C_2  and  C_3
REMARK    3  A    between atoms: C_2  and  O_4
REMARK    4  A    between atoms: C_2  and  C_21
REMARK    5  A    between atoms: O_4  and  C_5
REMARK    6  A    between atoms: C_8  and  C_9
REMARK    7  A    between atoms: C_9  and  C_11
REMARK    8  A    between atoms: N_26  and  C_27
REMARK    9  A    between atoms: C_27  and  C_28
REMARK   10  A    between atoms: C_28  and  O_29
REMARK                            x       y       z     vdW  Elec       q    Type
REMARK                         _______ _______ _______ _____ _____    ______ ____
ROOT
ATOM      1  O   UNL     1       0.522  11.515  19.189  0.00  0.00    +0.000 OA
ENDROOT
BRANCH   1   2
ATOM      2  C   UNL     1       1.014  10.229  19.125  0.00  0.00    +0.000 A 
ATOM      3  C   UNL     1       1.439   9.609  17.945  0.00  0.00    +0.000 A 
ATOM      4  C   UNL     1       1.999   8.330  17.961  0.00  0.00    +0.000 A 
ATOM      5  C   UNL     1       2.153   7.642  19.162  0.00  0.00    +0.000 A 
ATOM      6  C   UNL     1       1.669   8.212  20.342  0.00  0.00    +0.000 A 
ATOM      7  C   UNL     1       1.095   9.494  20.320  0.00  0.00    +0.000 A 
ATOM      8 CL   UNL     1       0.523  10.150  21.816  0.00  0.00    +0.000 Cl
BRANCH   5   9
ATOM      9  C   UNL     1       2.781   6.290  19.189  0.00  0.00    +0.000 C 
ATOM     10  O   UNL     1       2.599   5.566  20.164  0.00  0.00    +0.000 OA
BRANCH   9  11
ATOM     11  C   UNL     1       3.615   5.790  18.061  0.00  0.00    +0.000 A 
ATOM     12  C   UNL     1       3.436   4.471  17.626  0.00  0.00    +0.000 A 
ATOM     13  C   UNL     1       4.212   3.966  16.577  0.00  0.00    +0.000 A 
ATOM     14  C   UNL     1       5.172   4.775  15.972  0.00  0.00    +0.000 A 
ATOM     15 CL   UNL     1       6.141   4.149  14.696  0.00  0.00    +0.000 Cl
ATOM     16  C   UNL     1       5.364   6.088  16.403  0.00  0.00    +0.000 A 
ATOM     17  C   UNL     1       4.594   6.593  17.456  0.00  0.00    +0.000 A 
ENDBRANCH   9  11
ENDBRANCH   5   9
ENDBRANCH   1   2
BRANCH   1  19
ATOM     18  C   UNL     1      -1.071  12.441  17.604  0.00  0.00    +0.000 C 
ATOM     19  C   UNL     1      -0.880  11.756  18.980  0.00  0.00    +0.000 C 
ATOM     20  C   UNL     1      -1.604  10.396  18.830  0.00  0.00    +0.000 C 
BRANCH  19  21
ATOM     21  C   UNL     1      -1.622  12.534  20.123  0.00  0.00    +0.000 C 
ATOM     22  O   UNL     1      -2.745  12.161  20.482  0.00  0.00    +0.000 OA
ATOM     23  N   UNL     1      -1.026  13.638  20.719  0.00  0.00    +0.000 N 
ATOM     24  C   UNL     1      -1.732  14.308  21.813  0.00  0.00    +0.000 C 
ATOM     25  C   UNL     1      -0.822  14.422  23.051  0.00  0.00    +0.000 C 
ATOM     26  N   UNL     1       0.478  15.088  22.795  0.00  0.00    +0.000 NA
ATOM     27  C   UNL     1       1.144  14.394  21.659  0.00  0.00    +0.000 C 
ATOM     28  C   UNL     1       0.268  14.254  20.390  0.00  0.00    +0.000 C 
BRANCH  26  29
ATOM     29  C   UNL     1       0.351  16.535  22.504  0.00  0.00    +0.000 C 
BRANCH  29  30
ATOM     30  C   UNL     1       1.658  17.189  22.027  0.00  0.00    +0.000 C 
BRANCH  30  31
ATOM     31  O   UNL     1       1.451  17.884  20.803  0.00  0.00    +0.000 OA
ATOM     32  H   UNL     1       1.234  17.195  20.144  0.00  0.00    +0.000 HD
ENDBRANCH  30  31
ENDBRANCH  29  30
ENDBRANCH  26  29
ENDBRANCH  19  21
ENDBRANCH   1  19
TORSDOF 8
ENDMDL
