MODEL 1
REMARK VINA RESULT:      -6.6      0.000      0.000
REMARK  Name = 
REMARK  8 active torsions:
REMARK  status: ('A' for Active; 'I' for Inactive)
REMARK    1  A    between atoms: C_1  and  O_2
REMARK    2  A    between atoms: O_2  and  C_3
REMARK    3  A    between atoms: C_3  and  C_5
REMARK    4  A    between atoms: C_5  and  C_6
REMARK    5  A    between atoms: C_5  and  C_7
REMARK    6  A    between atoms: C_7  and  N_8
REMARK    7  A    between atoms: N_8  and  C_9
REMARK    8  A    between atoms: C_10  and  C_12
REMARK                            x       y       z     vdW  Elec       q    Type
REMARK                         _______ _______ _______ _____ _____    ______ ____
ROOT
ATOM      1  N   UNL     1       3.979   6.081  17.414  0.00  0.00    +0.000 N 
ATOM      2  C   UNL     1       3.270   7.208  18.007  0.00  0.00    +0.000 C 
ATOM      3  C   UNL     1       3.688   4.747  17.692  0.00  0.00    +0.000 C 
ATOM      4  O   UNL     1       4.403   3.836  17.271  0.00  0.00    +0.000 OA
ENDROOT
BRANCH   3   5
ATOM      5  C   UNL     1       2.416   4.438  18.485  0.00  0.00    +0.000 C 
ATOM      6  C   UNL     1       2.689   4.461  19.995  0.00  0.00    +0.000 C 
ATOM      7  C   UNL     1       1.427   4.081  20.758  0.00  0.00    +0.000 C 
ATOM      8  O   UNL     1       0.961   2.796  20.350  0.00  0.00    +0.000 OA
ATOM      9  C   UNL     1       0.630   2.747  18.963  0.00  0.00    +0.000 C 
ATOM     10  C   UNL     1       1.843   3.072  18.098  0.00  0.00    +0.000 C 
ENDBRANCH   3   5
BRANCH   1  11
ATOM     11  C   UNL     1       5.162   6.388  16.596  0.00  0.00    +0.000 C 
BRANCH  11  12
ATOM     12  C   UNL     1       6.510   6.194  17.304  0.00  0.00    +0.000 C 
ATOM     13  C   UNL     1       7.250   7.526  17.419  0.00  0.00    +0.000 C 
BRANCH  12  14
ATOM     14  C   UNL     1       7.384   5.221  16.546  0.00  0.00    +0.000 C 
ATOM     15  O   UNL     1       7.951   4.253  17.037  0.00  0.00    +0.000 OA
BRANCH  14  17
ATOM     16  C   UNL     1       6.927   4.532  14.349  0.00  0.00    +0.000 C 
ATOM     17  O   UNL     1       7.408   5.552  15.224  0.00  0.00    +0.000 OA
ENDBRANCH  14  17
ENDBRANCH  12  14
ENDBRANCH  11  12
ENDBRANCH   1  11
TORSDOF 5
ENDMDL
MODEL 2
REMARK VINA RESULT:      -6.5      1.613      5.924
REMARK  Name = 
REMARK  8 active torsions:
REMARK  status: ('A' for Active; 'I' for Inactive)
REMARK    1  A    between atoms: C_1  and  O_2
REMARK    2  A    between atoms: O_2  and  C_3
REMARK    3  A    between atoms: C_3  and  C_5
REMARK    4  A    between atoms: C_5  and  C_6
REMARK    5  A    between atoms: C_5  and  C_7
REMARK    6  A    between atoms: C_7  and  N_8
REMARK    7  A    between atoms: N_8  and  C_9
REMARK    8  A    between atoms: C_10  and  C_12
REMARK                            x       y       z     vdW  Elec       q    Type
REMARK                         _______ _______ _______ _____ _____    ______ ____
ROOT
ATOM      1  N   UNL     1       3.610   5.146  19.511  0.00  0.00    +0.000 N 
ATOM      2  C   UNL     1       2.754   6.154  18.897  0.00  0.00    +0.000 C 
ATOM      3  C   UNL     1       4.865   4.791  19.020  0.00  0.00    +0.000 C 
ATOM      4  O   UNL     1       5.490   3.840  19.495  0.00  0.00    +0.000 OA
ENDROOT
BRANCH   3   5
ATOM      5  C   UNL     1       5.478   5.654  17.915  0.00  0.00    +0.000 C 
ATOM      6  C   UNL     1       5.566   4.878  16.594  0.00  0.00    +0.000 C 
ATOM      7  C   UNL     1       6.243   5.733  15.532  0.00  0.00    +0.000 C 
ATOM      8  O   UNL     1       7.541   6.139  15.965  0.00  0.00    +0.000 OA
ATOM      9  C   UNL     1       7.501   6.922  17.157  0.00  0.00    +0.000 C 
ATOM     10  C   UNL     1       6.876   6.142  18.307  0.00  0.00    +0.000 C 
ENDBRANCH   3   5
BRANCH   1  11
ATOM     11  C   UNL     1       3.039   4.366  20.618  0.00  0.00    +0.000 C 
BRANCH  11  12
ATOM     12  C   UNL     1       1.656   3.760  20.340  0.00  0.00    +0.000 C 
ATOM     13  C   UNL     1       1.214   2.879  21.508  0.00  0.00    +0.000 C 
BRANCH  12  14
ATOM     14  C   UNL     1       1.676   2.920  19.083  0.00  0.00    +0.000 C 
ATOM     15  O   UNL     1       0.955   3.091  18.109  0.00  0.00    +0.000 OA
BRANCH  14  17
ATOM     16  C   UNL     1       3.342   1.712  17.953  0.00  0.00    +0.000 C 
ATOM     17  O   UNL     1       2.652   1.972  19.175  0.00  0.00    +0.000 OA
ENDBRANCH  14  17
ENDBRANCH  12  14
ENDBRANCH  11  12
ENDBRANCH   1  11
TORSDOF 5
ENDMDL
MODEL 3
REMARK VINA RESULT:      -6.5      1.896      2.299
REMARK  Name = 
REMARK  8 active torsions:
REMARK  status: ('A' for Active; 'I' for Inactive)
REMARK    1  A    between atoms: C_1  and  O_2
REMARK    2  A    between atoms: O_2  and  C_3
REMARK    3  A    between atoms: C_3  and  C_5
REMARK    4  A    between atoms: C_5  and  C_6
REMARK    5  A    between atoms: C_5  and  C_7
REMARK    6  A    between atoms: C_7  and  N_8
REMARK    7  A    between atoms: N_8  and  C_9
REMARK    8  A    between atoms: C_10  and  C_12
REMARK                            x       y       z     vdW  Elec       q    Type
REMARK                         _______ _______ _______ _____ _____    ______ ____
ROOT
ATOM      1  N   UNL     1       5.141   4.152  17.699  0.00  0.00    +0.000 N 
ATOM      2  C   UNL     1       5.987   4.828  18.677  0.00  0.00    +0.000 C 
ATOM      3  C   UNL     1       3.915   3.568  18.007  0.00  0.00    +0.000 C 
ATOM      4  O   UNL     1       3.303   2.892  17.175  0.00  0.00    +0.000 OA
ENDROOT
BRANCH   3   5
ATOM      5  C   UNL     1       3.313   3.839  19.387  0.00  0.00    +0.000 C 
ATOM      6  C   UNL     1       3.159   2.538  20.187  0.00  0.00    +0.000 C 
ATOM      7  C   UNL     1       2.494   2.825  21.525  0.00  0.00    +0.000 C 
ATOM      8  O   UNL     1       1.225   3.450  21.333  0.00  0.00    +0.000 OA
ATOM      9  C   UNL     1       1.327   4.699  20.650  0.00  0.00    +0.000 C 
ATOM     10  C   UNL     1       1.946   4.521  19.269  0.00  0.00    +0.000 C 
ENDBRANCH   3   5
BRANCH   1  11
ATOM     11  C   UNL     1       5.700   3.955  16.353  0.00  0.00    +0.000 C 
BRANCH  11  12
ATOM     12  C   UNL     1       6.319   5.207  15.717  0.00  0.00    +0.000 C 
ATOM     13  C   UNL     1       5.248   6.269  15.474  0.00  0.00    +0.000 C 
BRANCH  12  14
ATOM     14  C   UNL     1       6.977   4.874  14.397  0.00  0.00    +0.000 C 
ATOM     15  O   UNL     1       7.881   5.516  13.877  0.00  0.00    +0.000 OA
BRANCH  14  17
ATOM     16  C   UNL     1       6.410   3.663  12.468  0.00  0.00    +0.000 C 
ATOM     17  O   UNL     1       6.447   3.723  13.893  0.00  0.00    +0.000 OA
ENDBRANCH  14  17
ENDBRANCH  12  14
ENDBRANCH  11  12
ENDBRANCH   1  11
TORSDOF 5
ENDMDL
MODEL 4
REMARK VINA RESULT:      -6.5      1.264      2.041
REMARK  Name = 
REMARK  8 active torsions:
REMARK  status: ('A' for Active; 'I' for Inactive)
REMARK    1  A    between atoms: C_1  and  O_2
REMARK    2  A    between atoms: O_2  and  C_3
REMARK    3  A    between atoms: C_3  and  C_5
REMARK    4  A    between atoms: C_5  and  C_6
REMARK    5  A    between atoms: C_5  and  C_7
REMARK    6  A    between atoms: C_7  and  N_8
REMARK    7  A    between atoms: N_8  and  C_9
REMARK    8  A    between atoms: C_10  and  C_12
REMARK                            x       y       z     vdW  Elec       q    Type
REMARK                         _______ _______ _______ _____ _____    ______ ____
ROOT
ATOM      1  N   UNL     1       4.257   4.248  17.061  0.00  0.00    +0.000 N 
ATOM      2  C   UNL     1       4.100   5.671  17.341  0.00  0.00    +0.000 C 
ATOM      3  C   UNL     1       3.675   3.239  17.825  0.00  0.00    +0.000 C 
ATOM      4  O   UNL     1       3.948   2.052  17.628  0.00  0.00    +0.000 OA
ENDROOT
BRANCH   3   5
ATOM      5  C   UNL     1       2.637   3.637  18.876  0.00  0.00    +0.000 C 
ATOM      6  C   UNL     1       3.235   3.583  20.289  0.00  0.00    +0.000 C 
ATOM      7  C   UNL     1       2.165   3.915  21.320  0.00  0.00    +0.000 C 
ATOM      8  O   UNL     1       1.062   3.017  21.206  0.00  0.00    +0.000 OA
ATOM      9  C   UNL     1       0.432   3.081  19.927  0.00  0.00    +0.000 C 
ATOM     10  C   UNL     1       1.410   2.723  18.814  0.00  0.00    +0.000 C 
ENDBRANCH   3   5
BRANCH   1  11
ATOM     11  C   UNL     1       5.206   3.874  16.002  0.00  0.00    +0.000 C 
BRANCH  11  12
ATOM     12  C   UNL     1       6.070   5.025  15.468  0.00  0.00    +0.000 C 
ATOM     13  C   UNL     1       6.554   4.718  14.052  0.00  0.00    +0.000 C 
BRANCH  12  14
ATOM     14  C   UNL     1       7.277   5.249  16.352  0.00  0.00    +0.000 C 
ATOM     15  O   UNL     1       7.920   4.367  16.905  0.00  0.00    +0.000 OA
BRANCH  14  17
ATOM     16  C   UNL     1       7.533   7.148  17.709  0.00  0.00    +0.000 C 
ATOM     17  O   UNL     1       7.574   6.580  16.400  0.00  0.00    +0.000 OA
ENDBRANCH  14  17
ENDBRANCH  12  14
ENDBRANCH  11  12
ENDBRANCH   1  11
TORSDOF 5
ENDMDL
MODEL 5
REMARK VINA RESULT:      -6.4      1.163      1.776
REMARK  Name = 
REMARK  8 active torsions:
REMARK  status: ('A' for Active; 'I' for Inactive)
REMARK    1  A    between atoms: C_1  and  O_2
REMARK    2  A    between atoms: O_2  and  C_3
REMARK    3  A    between atoms: C_3  and  C_5
REMARK    4  A    between atoms: C_5  and  C_6
REMARK    5  A    between atoms: C_5  and  C_7
REMARK    6  A    between atoms: C_7  and  N_8
REMARK    7  A    between atoms: N_8  and  C_9
REMARK    8  A    between atoms: C_10  and  C_12
REMARK                            x       y       z     vdW  Elec       q    Type
REMARK                         _______ _______ _______ _____ _____    ______ ____
ROOT
ATOM      1  N   UNL     1       4.375   5.148  17.625  0.00  0.00    +0.000 N 
ATOM      2  C   UNL     1       4.393   3.952  16.791  0.00  0.00    +0.000 C 
ATOM      3  C   UNL     1       3.560   5.301  18.744  0.00  0.00    +0.000 C 
ATOM      4  O   UNL     1       3.483   6.381  19.335  0.00  0.00    +0.000 OA
ENDROOT
BRANCH   3   5
ATOM      5  C   UNL     1       2.807   4.073  19.261  0.00  0.00    +0.000 C 
ATOM      6  C   UNL     1       1.488   3.876  18.503  0.00  0.00    +0.000 C 
ATOM      7  C   UNL     1       0.726   2.692  19.082  0.00  0.00    +0.000 C 
ATOM      8  O   UNL     1       0.481   2.885  20.475  0.00  0.00    +0.000 OA
ATOM      9  C   UNL     1       1.685   3.006  21.231  0.00  0.00    +0.000 C 
ATOM     10  C   UNL     1       2.513   4.196  20.759  0.00  0.00    +0.000 C 
ENDBRANCH   3   5
BRANCH   1  11
ATOM     11  C   UNL     1       5.156   6.303  17.158  0.00  0.00    +0.000 C 
BRANCH  11  12
ATOM     12  C   UNL     1       6.635   6.297  17.570  0.00  0.00    +0.000 C 
ATOM     13  C   UNL     1       7.232   7.697  17.439  0.00  0.00    +0.000 C 
BRANCH  12  14
ATOM     14  C   UNL     1       7.434   5.349  16.704  0.00  0.00    +0.000 C 
ATOM     15  O   UNL     1       7.979   4.325  17.095  0.00  0.00    +0.000 OA
BRANCH  14  17
ATOM     16  C   UNL     1       7.078   4.773  14.456  0.00  0.00    +0.000 C 
ATOM     17  O   UNL     1       7.417   5.779  15.409  0.00  0.00    +0.000 OA
ENDBRANCH  14  17
ENDBRANCH  12  14
ENDBRANCH  11  12
ENDBRANCH   1  11
TORSDOF 5
ENDMDL
MODEL 6
REMARK VINA RESULT:      -6.4      1.242      1.845
REMARK  Name = 
REMARK  8 active torsions:
REMARK  status: ('A' for Active; 'I' for Inactive)
REMARK    1  A    between atoms: C_1  and  O_2
REMARK    2  A    between atoms: O_2  and  C_3
REMARK    3  A    between atoms: C_3  and  C_5
REMARK    4  A    between atoms: C_5  and  C_6
REMARK    5  A    between atoms: C_5  and  C_7
REMARK    6  A    between atoms: C_7  and  N_8
REMARK    7  A    between atoms: N_8  and  C_9
REMARK    8  A    between atoms: C_10  and  C_12
REMARK                            x       y       z     vdW  Elec       q    Type
REMARK                         _______ _______ _______ _____ _____    ______ ____
ROOT
ATOM      1  N   UNL     1       4.794   5.479  18.540  0.00  0.00    +0.000 N 
ATOM      2  C   UNL     1       5.623   4.467  19.184  0.00  0.00    +0.000 C 
ATOM      3  C   UNL     1       3.424   5.338  18.326  0.00  0.00    +0.000 C 
ATOM      4  O   UNL     1       2.795   6.162  17.657  0.00  0.00    +0.000 OA
ENDROOT
BRANCH   3   5
ATOM      5  C   UNL     1       2.707   4.165  18.996  0.00  0.00    +0.000 C 
ATOM      6  C   UNL     1       1.620   3.587  18.080  0.00  0.00    +0.000 C 
ATOM      7  C   UNL     1       0.874   2.469  18.796  0.00  0.00    +0.000 C 
ATOM      8  O   UNL     1       0.304   2.946  20.014  0.00  0.00    +0.000 OA
ATOM      9  C   UNL     1       1.287   3.432  20.927  0.00  0.00    +0.000 C 
ATOM     10  C   UNL     1       2.071   4.592  20.323  0.00  0.00    +0.000 C 
ENDBRANCH   3   5
BRANCH   1  11
ATOM     11  C   UNL     1       5.484   6.639  17.957  0.00  0.00    +0.000 C 
BRANCH  11  12
ATOM     12  C   UNL     1       6.972   6.420  17.646  0.00  0.00    +0.000 C 
ATOM     13  C   UNL     1       7.664   7.757  17.386  0.00  0.00    +0.000 C 
BRANCH  12  14
ATOM     14  C   UNL     1       7.146   5.542  16.428  0.00  0.00    +0.000 C 
ATOM     15  O   UNL     1       7.905   4.584  16.352  0.00  0.00    +0.000 OA
BRANCH  14  17
ATOM     16  C   UNL     1       5.623   4.879  14.769  0.00  0.00    +0.000 C 
ATOM     17  O   UNL     1       6.296   5.944  15.441  0.00  0.00    +0.000 OA
ENDBRANCH  14  17
ENDBRANCH  12  14
ENDBRANCH  11  12
ENDBRANCH   1  11
TORSDOF 5
ENDMDL
MODEL 7
REMARK VINA RESULT:      -6.4      1.636      2.557
REMARK  Name = 
REMARK  8 active torsions:
REMARK  status: ('A' for Active; 'I' for Inactive)
REMARK    1  A    between atoms: C_1  and  O_2
REMARK    2  A    between atoms: O_2  and  C_3
REMARK    3  A    between atoms: C_3  and  C_5
REMARK    4  A    between atoms: C_5  and  C_6
REMARK    5  A    between atoms: C_5  and  C_7
REMARK    6  A    between atoms: C_7  and  N_8
REMARK    7  A    between atoms: N_8  and  C_9
REMARK    8  A    between atoms: C_10  and  C_12
REMARK                            x       y       z     vdW  Elec       q    Type
REMARK                         _______ _______ _______ _____ _____    ______ ____
ROOT
ATOM      1  N   UNL     1       5.327   4.205  18.237  0.00  0.00    +0.000 N 
ATOM      2  C   UNL     1       5.820   5.106  19.273  0.00  0.00    +0.000 C 
ATOM      3  C   UNL     1       4.177   3.431  18.365  0.00  0.00    +0.000 C 
ATOM      4  O   UNL     1       3.878   2.586  17.517  0.00  0.00    +0.000 OA
ENDROOT
BRANCH   3   5
ATOM      5  C   UNL     1       3.256   3.700  19.557  0.00  0.00    +0.000 C 
ATOM      6  C   UNL     1       3.285   2.531  20.551  0.00  0.00    +0.000 C 
ATOM      7  C   UNL     1       2.308   2.791  21.690  0.00  0.00    +0.000 C 
ATOM      8  O   UNL     1       0.988   2.989  21.184  0.00  0.00    +0.000 OA
ATOM      9  C   UNL     1       0.900   4.109  20.305  0.00  0.00    +0.000 C 
ATOM     10  C   UNL     1       1.813   3.934  19.098  0.00  0.00    +0.000 C 
ENDBRANCH   3   5
BRANCH   1  11
ATOM     11  C   UNL     1       6.187   4.003  17.061  0.00  0.00    +0.000 C 
BRANCH  11  12
ATOM     12  C   UNL     1       5.724   4.722  15.786  0.00  0.00    +0.000 C 
ATOM     13  C   UNL     1       6.433   4.148  14.561  0.00  0.00    +0.000 C 
BRANCH  12  14
ATOM     14  C   UNL     1       6.018   6.203  15.863  0.00  0.00    +0.000 C 
ATOM     15  O   UNL     1       5.210   7.095  15.638  0.00  0.00    +0.000 OA
BRANCH  14  17
ATOM     16  C   UNL     1       7.473   7.458  17.212  0.00  0.00    +0.000 C 
ATOM     17  O   UNL     1       7.305   6.399  16.270  0.00  0.00    +0.000 OA
ENDBRANCH  14  17
ENDBRANCH  12  14
ENDBRANCH  11  12
ENDBRANCH   1  11
TORSDOF 5
ENDMDL
MODEL 8
REMARK VINA RESULT:      -6.3      1.498      5.677
REMARK  Name = 
REMARK  8 active torsions:
REMARK  status: ('A' for Active; 'I' for Inactive)
REMARK    1  A    between atoms: C_1  and  O_2
REMARK    2  A    between atoms: O_2  and  C_3
REMARK    3  A    between atoms: C_3  and  C_5
REMARK    4  A    between atoms: C_5  and  C_6
REMARK    5  A    between atoms: C_5  and  C_7
REMARK    6  A    between atoms: C_7  and  N_8
REMARK    7  A    between atoms: N_8  and  C_9
REMARK    8  A    between atoms: C_10  and  C_12
REMARK                            x       y       z     vdW  Elec       q    Type
REMARK                         _______ _______ _______ _____ _____    ______ ____
ROOT
ATOM      1  N   UNL     1       2.813   5.107  17.911  0.00  0.00    +0.000 N 
ATOM      2  C   UNL     1       3.017   6.537  18.115  0.00  0.00    +0.000 C 
ATOM      3  C   UNL     1       3.728   4.277  17.268  0.00  0.00    +0.000 C 
ATOM      4  O   UNL     1       3.448   3.105  17.002  0.00  0.00    +0.000 OA
ENDROOT
BRANCH   3   5
ATOM      5  C   UNL     1       5.116   4.838  16.956  0.00  0.00    +0.000 C 
ATOM      6  C   UNL     1       5.668   4.253  15.650  0.00  0.00    +0.000 C 
ATOM      7  C   UNL     1       7.076   4.772  15.399  0.00  0.00    +0.000 C 
ATOM      8  O   UNL     1       7.932   4.451  16.495  0.00  0.00    +0.000 OA
ATOM      9  C   UNL     1       7.494   5.032  17.722  0.00  0.00    +0.000 C 
ATOM     10  C   UNL     1       6.099   4.543  18.094  0.00  0.00    +0.000 C 
ENDBRANCH   3   5
BRANCH   1  11
ATOM     11  C   UNL     1       1.498   4.560  18.277  0.00  0.00    +0.000 C 
BRANCH  11  12
ATOM     12  C   UNL     1       1.368   4.100  19.735  0.00  0.00    +0.000 C 
ATOM     13  C   UNL     1       2.058   5.091  20.671  0.00  0.00    +0.000 C 
BRANCH  12  14
ATOM     14  C   UNL     1       1.994   2.737  19.931  0.00  0.00    +0.000 C 
ATOM     15  O   UNL     1       1.634   1.709  19.372  0.00  0.00    +0.000 OA
BRANCH  14  17
ATOM     16  C   UNL     1       4.247   2.204  20.319  0.00  0.00    +0.000 C 
ATOM     17  O   UNL     1       3.053   2.832  20.785  0.00  0.00    +0.000 OA
ENDBRANCH  14  17
ENDBRANCH  12  14
ENDBRANCH  11  12
ENDBRANCH   1  11
TORSDOF 5
ENDMDL
MODEL 9
REMARK VINA RESULT:      -6.3      1.196      1.521
REMARK  Name = 
REMARK  8 active torsions:
REMARK  status: ('A' for Active; 'I' for Inactive)
REMARK    1  A    between atoms: C_1  and  O_2
REMARK    2  A    between atoms: O_2  and  C_3
REMARK    3  A    between atoms: C_3  and  C_5
REMARK    4  A    between atoms: C_5  and  C_6
REMARK    5  A    between atoms: C_5  and  C_7
REMARK    6  A    between atoms: C_7  and  N_8
REMARK    7  A    between atoms: N_8  and  C_9
REMARK    8  A    between atoms: C_10  and  C_12
REMARK                            x       y       z     vdW  Elec       q    Type
REMARK                         _______ _______ _______ _____ _____    ______ ____
ROOT
ATOM      1  N   UNL     1       4.157   5.396  17.438  0.00  0.00    +0.000 N 
ATOM      2  C   UNL     1       3.868   6.651  18.123  0.00  0.00    +0.000 C 
ATOM      3  C   UNL     1       3.892   4.139  17.976  0.00  0.00    +0.000 C 
ATOM      4  O   UNL     1       4.279   3.111  17.416  0.00  0.00    +0.000 OA
ENDROOT
BRANCH   3   5
ATOM      5  C   UNL     1       3.051   4.064  19.251  0.00  0.00    +0.000 C 
ATOM      6  C   UNL     1       3.481   2.879  20.127  0.00  0.00    +0.000 C 
ATOM      7  C   UNL     1       2.583   2.784  21.353  0.00  0.00    +0.000 C 
ATOM      8  O   UNL     1       1.216   2.653  20.966  0.00  0.00    +0.000 OA
ATOM      9  C   UNL     1       0.752   3.767  20.205  0.00  0.00    +0.000 C 
ATOM     10  C   UNL     1       1.560   3.931  18.922  0.00  0.00    +0.000 C 
ENDBRANCH   3   5
BRANCH   1  11
ATOM     11  C   UNL     1       4.908   5.480  16.176  0.00  0.00    +0.000 C 
BRANCH  11  12
ATOM     12  C   UNL     1       6.394   5.111  16.278  0.00  0.00    +0.000 C 
ATOM     13  C   UNL     1       7.185   6.252  16.916  0.00  0.00    +0.000 C 
BRANCH  12  14
ATOM     14  C   UNL     1       6.976   4.826  14.912  0.00  0.00    +0.000 C 
ATOM     15  O   UNL     1       7.865   5.474  14.375  0.00  0.00    +0.000 OA
BRANCH  14  17
ATOM     16  C   UNL     1       6.283   3.713  12.965  0.00  0.00    +0.000 C 
ATOM     17  O   UNL     1       6.399   3.707  14.387  0.00  0.00    +0.000 OA
ENDBRANCH  14  17
ENDBRANCH  12  14
ENDBRANCH  11  12
ENDBRANCH   1  11
TORSDOF 5
ENDMDL
