MODEL 1
REMARK VINA RESULT:      -7.4      0.000      0.000
REMARK  Name = 
REMARK  6 active torsions:
REMARK  status: ('A' for Active; 'I' for Inactive)
REMARK    1  A    between atoms: C_1  and  C_2
REMARK    2  A    between atoms: C_7  and  N_8
REMARK    3  A    between atoms: C_12  and  N_13
REMARK    4  A    between atoms: C_14  and  C_16
REMARK    5  A    between atoms: C_16  and  C_17
REMARK    6  A    between atoms: C_17  and  N_18
REMARK                            x       y       z     vdW  Elec       q    Type
REMARK                         _______ _______ _______ _____ _____    ______ ____
ROOT
ATOM      1  N   UNL     1       6.539   5.110  15.588  0.00  0.00    +0.000 N 
ATOM      2  C   UNL     1       7.516   4.503  16.492  0.00  0.00    +0.000 C 
ATOM      3  C   UNL     1       7.097   4.561  17.946  0.00  0.00    +0.000 C 
ATOM      4  C   UNL     1       6.811   6.010  18.302  0.00  0.00    +0.000 C 
ATOM      5  C   UNL     1       5.656   6.540  17.461  0.00  0.00    +0.000 C 
ATOM      6  C   UNL     1       5.764   6.220  15.947  0.00  0.00    +0.000 C 
ATOM      7  O   UNL     1       5.088   6.865  15.139  0.00  0.00    +0.000 OA
ENDROOT
BRANCH   1  14
ATOM      8  C   UNL     1       4.928   2.421  11.730  0.00  0.00    +0.000 C 
ATOM      9  C   UNL     1       5.888   3.424  12.300  0.00  0.00    +0.000 A 
ATOM     10  C   UNL     1       6.961   3.898  11.537  0.00  0.00    +0.000 A 
ATOM     11  C   UNL     1       7.868   4.800  12.084  0.00  0.00    +0.000 A 
ATOM     12  C   UNL     1       7.721   5.206  13.405  0.00  0.00    +0.000 A 
ATOM     13  F   UNL     1       8.610   6.086  13.889  0.00  0.00    +0.000 F 
ATOM     14  C   UNL     1       6.654   4.757  14.200  0.00  0.00    +0.000 A 
ATOM     15  C   UNL     1       5.727   3.876  13.624  0.00  0.00    +0.000 A 
ENDBRANCH   1  14
BRANCH   5  16
ATOM     16  N   UNL     1       4.384   6.043  17.994  0.00  0.00    +0.000 N 
ATOM     17  C   UNL     1       3.262   6.840  18.050  0.00  0.00    +0.000 C 
ATOM     18  O   UNL     1       3.257   8.031  17.766  0.00  0.00    +0.000 OA
ATOM     19  H   UNL     1       4.296   5.056  18.188  0.00  0.00    +0.000 HD
BRANCH  17  20
ATOM     20  C   UNL     1       2.038   6.128  18.575  0.00  0.00    +0.000 C 
BRANCH  20  21
ATOM     21  C   UNL     1       2.232   5.817  20.055  0.00  0.00    +0.000 C 
BRANCH  21  22
ATOM     22  N   UNL     1       1.958   4.431  20.370  0.00  0.00    +0.000 N 
ATOM     23  C   UNL     1       1.510   3.462  19.529  0.00  0.00    +0.000 A 
ATOM     24  N   UNL     1       1.426   2.325  20.184  0.00  0.00    +0.000 NA
ATOM     25  C   UNL     1       1.851   2.658  21.436  0.00  0.00    +0.000 A 
ATOM     26  N   UNL     1       2.183   3.942  21.605  0.00  0.00    +0.000 NA
ENDBRANCH  21  22
ENDBRANCH  20  21
ENDBRANCH  17  20
ENDBRANCH   5  16
TORSDOF 5
ENDMDL
MODEL 2
REMARK VINA RESULT:      -7.3      1.066      1.326
REMARK  Name = 
REMARK  6 active torsions:
REMARK  status: ('A' for Active; 'I' for Inactive)
REMARK    1  A    between atoms: C_1  and  C_2
REMARK    2  A    between atoms: C_7  and  N_8
REMARK    3  A    between atoms: C_12  and  N_13
REMARK    4  A    between atoms: C_14  and  C_16
REMARK    5  A    between atoms: C_16  and  C_17
REMARK    6  A    between atoms: C_17  and  N_18
REMARK                            x       y       z     vdW  Elec       q    Type
REMARK                         _______ _______ _______ _____ _____    ______ ____
ROOT
ATOM      1  N   UNL     1       6.567   5.098  15.569  0.00  0.00    +0.000 N 
ATOM      2  C   UNL     1       7.562   4.499  16.458  0.00  0.00    +0.000 C 
ATOM      3  C   UNL     1       7.158   4.542  17.917  0.00  0.00    +0.000 C 
ATOM      4  C   UNL     1       6.856   5.984  18.285  0.00  0.00    +0.000 C 
ATOM      5  C   UNL     1       5.684   6.504  17.460  0.00  0.00    +0.000 C 
ATOM      6  C   UNL     1       5.780   6.195  15.943  0.00  0.00    +0.000 C 
ATOM      7  O   UNL     1       5.087   6.835  15.146  0.00  0.00    +0.000 OA
ENDROOT
BRANCH   1  14
ATOM      8  C   UNL     1       4.943   2.420  11.708  0.00  0.00    +0.000 C 
ATOM      9  C   UNL     1       5.899   3.428  12.276  0.00  0.00    +0.000 A 
ATOM     10  C   UNL     1       6.961   3.917  11.505  0.00  0.00    +0.000 A 
ATOM     11  C   UNL     1       7.865   4.823  12.050  0.00  0.00    +0.000 A 
ATOM     12  C   UNL     1       7.727   5.219  13.375  0.00  0.00    +0.000 A 
ATOM     13  F   UNL     1       8.613   6.104  13.856  0.00  0.00    +0.000 F 
ATOM     14  C   UNL     1       6.672   4.755  14.177  0.00  0.00    +0.000 A 
ATOM     15  C   UNL     1       5.748   3.870  13.604  0.00  0.00    +0.000 A 
ENDBRANCH   1  14
BRANCH   5  16
ATOM     16  N   UNL     1       4.426   5.985  18.004  0.00  0.00    +0.000 N 
ATOM     17  C   UNL     1       3.297   6.771  18.090  0.00  0.00    +0.000 C 
ATOM     18  O   UNL     1       3.276   7.966  17.826  0.00  0.00    +0.000 OA
ATOM     19  H   UNL     1       4.350   4.995  18.182  0.00  0.00    +0.000 HD
BRANCH  17  20
ATOM     20  C   UNL     1       2.088   6.038  18.621  0.00  0.00    +0.000 C 
BRANCH  20  21
ATOM     21  C   UNL     1       2.536   4.999  19.642  0.00  0.00    +0.000 C 
BRANCH  21  22
ATOM     22  N   UNL     1       2.765   3.700  19.046  0.00  0.00    +0.000 N 
ATOM     23  C   UNL     1       3.477   2.665  19.563  0.00  0.00    +0.000 A 
ATOM     24  N   UNL     1       3.415   1.641  18.740  0.00  0.00    +0.000 NA
ATOM     25  C   UNL     1       2.632   2.109  17.726  0.00  0.00    +0.000 A 
ATOM     26  N   UNL     1       2.212   3.371  17.863  0.00  0.00    +0.000 NA
ENDBRANCH  21  22
ENDBRANCH  20  21
ENDBRANCH  17  20
ENDBRANCH   5  16
TORSDOF 5
ENDMDL
MODEL 3
REMARK VINA RESULT:      -6.9      2.722      7.405
REMARK  Name = 
REMARK  6 active torsions:
REMARK  status: ('A' for Active; 'I' for Inactive)
REMARK    1  A    between atoms: C_1  and  C_2
REMARK    2  A    between atoms: C_7  and  N_8
REMARK    3  A    between atoms: C_12  and  N_13
REMARK    4  A    between atoms: C_14  and  C_16
REMARK    5  A    between atoms: C_16  and  C_17
REMARK    6  A    between atoms: C_17  and  N_18
REMARK                            x       y       z     vdW  Elec       q    Type
REMARK                         _______ _______ _______ _____ _____    ______ ____
ROOT
ATOM      1  N   UNL     1       3.436   5.330  18.384  0.00  0.00    +0.000 N 
ATOM      2  C   UNL     1       3.016   6.731  18.340  0.00  0.00    +0.000 C 
ATOM      3  C   UNL     1       3.843   7.570  17.388  0.00  0.00    +0.000 C 
ATOM      4  C   UNL     1       5.305   7.423  17.771  0.00  0.00    +0.000 C 
ATOM      5  C   UNL     1       5.746   5.972  17.619  0.00  0.00    +0.000 C 
ATOM      6  C   UNL     1       4.773   4.937  18.240  0.00  0.00    +0.000 C 
ATOM      7  O   UNL     1       5.171   3.791  18.474  0.00  0.00    +0.000 OA
ENDROOT
BRANCH   1  14
ATOM      8  C   UNL     1       1.782   2.756  22.301  0.00  0.00    +0.000 C 
ATOM      9  C   UNL     1       1.679   3.112  20.847  0.00  0.00    +0.000 A 
ATOM     10  C   UNL     1       0.773   2.447  20.012  0.00  0.00    +0.000 A 
ATOM     11  C   UNL     1       0.709   2.756  18.657  0.00  0.00    +0.000 A 
ATOM     12  C   UNL     1       1.571   3.709  18.128  0.00  0.00    +0.000 A 
ATOM     13  F   UNL     1       1.466   3.986  16.820  0.00  0.00    +0.000 F 
ATOM     14  C   UNL     1       2.489   4.401  18.935  0.00  0.00    +0.000 A 
ATOM     15  C   UNL     1       2.518   4.104  20.305  0.00  0.00    +0.000 A 
ENDBRANCH   1  14
BRANCH   5  16
ATOM     16  N   UNL     1       5.973   5.668  16.203  0.00  0.00    +0.000 N 
ATOM     17  C   UNL     1       7.010   4.859  15.794  0.00  0.00    +0.000 C 
ATOM     18  O   UNL     1       7.872   4.422  16.546  0.00  0.00    +0.000 OA
ATOM     19  H   UNL     1       5.268   5.940  15.533  0.00  0.00    +0.000 HD
BRANCH  17  20
ATOM     20  C   UNL     1       7.039   4.618  14.303  0.00  0.00    +0.000 C 
BRANCH  20  21
ATOM     21  C   UNL     1       5.612   4.477  13.788  0.00  0.00    +0.000 C 
BRANCH  21  22
ATOM     22  N   UNL     1       5.511   3.549  12.682  0.00  0.00    +0.000 N 
ATOM     23  C   UNL     1       6.458   2.681  12.238  0.00  0.00    +0.000 A 
ATOM     24  N   UNL     1       5.970   1.980  11.239  0.00  0.00    +0.000 NA
ATOM     25  C   UNL     1       4.698   2.457  11.120  0.00  0.00    +0.000 A 
ATOM     26  N   UNL     1       4.369   3.428  11.978  0.00  0.00    +0.000 NA
ENDBRANCH  21  22
ENDBRANCH  20  21
ENDBRANCH  17  20
ENDBRANCH   5  16
TORSDOF 5
ENDMDL
MODEL 4
REMARK VINA RESULT:      -6.8      3.863      7.650
REMARK  Name = 
REMARK  6 active torsions:
REMARK  status: ('A' for Active; 'I' for Inactive)
REMARK    1  A    between atoms: C_1  and  C_2
REMARK    2  A    between atoms: C_7  and  N_8
REMARK    3  A    between atoms: C_12  and  N_13
REMARK    4  A    between atoms: C_14  and  C_16
REMARK    5  A    between atoms: C_16  and  C_17
REMARK    6  A    between atoms: C_17  and  N_18
REMARK                            x       y       z     vdW  Elec       q    Type
REMARK                         _______ _______ _______ _____ _____    ______ ____
ROOT
ATOM      1  N   UNL     1       3.867   4.686  17.812  0.00  0.00    +0.000 N 
ATOM      2  C   UNL     1       4.710   3.700  17.134  0.00  0.00    +0.000 C 
ATOM      3  C   UNL     1       6.051   4.259  16.707  0.00  0.00    +0.000 C 
ATOM      4  C   UNL     1       5.805   5.488  15.850  0.00  0.00    +0.000 C 
ATOM      5  C   UNL     1       5.088   6.561  16.661  0.00  0.00    +0.000 C 
ATOM      6  C   UNL     1       3.874   6.046  17.476  0.00  0.00    +0.000 C 
ATOM      7  O   UNL     1       3.034   6.851  17.892  0.00  0.00    +0.000 OA
ENDROOT
BRANCH   1  14
ATOM      8  C   UNL     1       2.161   2.977  22.157  0.00  0.00    +0.000 C 
ATOM      9  C   UNL     1       1.930   3.297  20.710  0.00  0.00    +0.000 A 
ATOM     10  C   UNL     1       0.721   2.960  20.089  0.00  0.00    +0.000 A 
ATOM     11  C   UNL     1       0.527   3.228  18.737  0.00  0.00    +0.000 A 
ATOM     12  C   UNL     1       1.552   3.805  17.996  0.00  0.00    +0.000 A 
ATOM     13  F   UNL     1       1.318   4.057  16.700  0.00  0.00    +0.000 F 
ATOM     14  C   UNL     1       2.775   4.162  18.585  0.00  0.00    +0.000 A 
ATOM     15  C   UNL     1       2.944   3.919  19.957  0.00  0.00    +0.000 A 
ENDBRANCH   1  14
BRANCH   5  16
ATOM     16  N   UNL     1       6.044   7.234  17.546  0.00  0.00    +0.000 N 
ATOM     17  C   UNL     1       7.375   7.358  17.213  0.00  0.00    +0.000 C 
ATOM     18  O   UNL     1       7.882   6.838  16.227  0.00  0.00    +0.000 OA
ATOM     19  H   UNL     1       5.688   7.741  18.343  0.00  0.00    +0.000 HD
BRANCH  17  20
ATOM     20  C   UNL     1       8.184   8.135  18.225  0.00  0.00    +0.000 C 
BRANCH  20  21
ATOM     21  C   UNL     1       8.102   9.622  17.900  0.00  0.00    +0.000 C 
BRANCH  21  22
ATOM     22  N   UNL     1       9.135  10.391  18.560  0.00  0.00    +0.000 N 
ATOM     23  C   UNL     1      10.050  11.215  17.986  0.00  0.00    +0.000 A 
ATOM     24  N   UNL     1      10.789  11.764  18.925  0.00  0.00    +0.000 NA
ATOM     25  C   UNL     1      10.267  11.242  20.072  0.00  0.00    +0.000 A 
ATOM     26  N   UNL     1       9.253  10.387  19.902  0.00  0.00    +0.000 NA
ENDBRANCH  21  22
ENDBRANCH  20  21
ENDBRANCH  17  20
ENDBRANCH   5  16
TORSDOF 5
ENDMDL
MODEL 5
REMARK VINA RESULT:      -6.7      4.485      8.024
REMARK  Name = 
REMARK  6 active torsions:
REMARK  status: ('A' for Active; 'I' for Inactive)
REMARK    1  A    between atoms: C_1  and  C_2
REMARK    2  A    between atoms: C_7  and  N_8
REMARK    3  A    between atoms: C_12  and  N_13
REMARK    4  A    between atoms: C_14  and  C_16
REMARK    5  A    between atoms: C_16  and  C_17
REMARK    6  A    between atoms: C_17  and  N_18
REMARK                            x       y       z     vdW  Elec       q    Type
REMARK                         _______ _______ _______ _____ _____    ______ ____
ROOT
ATOM      1  N   UNL     1       1.429   8.888  19.030  0.00  0.00    +0.000 N 
ATOM      2  C   UNL     1       2.332   8.885  17.878  0.00  0.00    +0.000 C 
ATOM      3  C   UNL     1       2.869   7.507  17.549  0.00  0.00    +0.000 C 
ATOM      4  C   UNL     1       3.528   6.942  18.795  0.00  0.00    +0.000 C 
ATOM      5  C   UNL     1       2.501   6.789  19.910  0.00  0.00    +0.000 C 
ATOM      6  C   UNL     1       1.595   8.029  20.123  0.00  0.00    +0.000 C 
ATOM      7  O   UNL     1       0.972   8.153  21.183  0.00  0.00    +0.000 OA
ENDROOT
BRANCH   1  14
ATOM      8  C   UNL     1       0.204  12.995  21.549  0.00  0.00    +0.000 C 
ATOM      9  C   UNL     1      -0.046  12.050  20.410  0.00  0.00    +0.000 A 
ATOM     10  C   UNL     1      -1.166  12.208  19.586  0.00  0.00    +0.000 A 
ATOM     11  C   UNL     1      -1.411  11.306  18.554  0.00  0.00    +0.000 A 
ATOM     12  C   UNL     1      -0.554  10.228  18.364  0.00  0.00    +0.000 A 
ATOM     13  F   UNL     1      -0.821   9.392  17.351  0.00  0.00    +0.000 F 
ATOM     14  C   UNL     1       0.582  10.041  19.168  0.00  0.00    +0.000 A 
ATOM     15  C   UNL     1       0.836  10.977  20.181  0.00  0.00    +0.000 A 
ENDBRANCH   1  14
BRANCH   5  16
ATOM     16  N   UNL     1       1.682   5.598  19.670  0.00  0.00    +0.000 N 
ATOM     17  C   UNL     1       1.656   4.546  20.559  0.00  0.00    +0.000 C 
ATOM     18  O   UNL     1       2.376   4.470  21.547  0.00  0.00    +0.000 OA
ATOM     19  H   UNL     1       1.016   5.616  18.911  0.00  0.00    +0.000 HD
BRANCH  17  20
ATOM     20  C   UNL     1       0.706   3.440  20.163  0.00  0.00    +0.000 C 
BRANCH  20  21
ATOM     21  C   UNL     1       1.488   2.326  19.477  0.00  0.00    +0.000 C 
BRANCH  21  22
ATOM     22  N   UNL     1       2.459   2.833  18.531  0.00  0.00    +0.000 N 
ATOM     23  C   UNL     1       3.813   2.744  18.605  0.00  0.00    +0.000 A 
ATOM     24  N   UNL     1       4.342   3.289  17.531  0.00  0.00    +0.000 NA
ATOM     25  C   UNL     1       3.250   3.690  16.819  0.00  0.00    +0.000 A 
ATOM     26  N   UNL     1       2.069   3.439  17.393  0.00  0.00    +0.000 NA
ENDBRANCH  21  22
ENDBRANCH  20  21
ENDBRANCH  17  20
ENDBRANCH   5  16
TORSDOF 5
ENDMDL
MODEL 6
REMARK VINA RESULT:      -6.6      4.582      8.105
REMARK  Name = 
REMARK  6 active torsions:
REMARK  status: ('A' for Active; 'I' for Inactive)
REMARK    1  A    between atoms: C_1  and  C_2
REMARK    2  A    between atoms: C_7  and  N_8
REMARK    3  A    between atoms: C_12  and  N_13
REMARK    4  A    between atoms: C_14  and  C_16
REMARK    5  A    between atoms: C_16  and  C_17
REMARK    6  A    between atoms: C_17  and  N_18
REMARK                            x       y       z     vdW  Elec       q    Type
REMARK                         _______ _______ _______ _____ _____    ______ ____
ROOT
ATOM      1  N   UNL     1       1.093   9.037  19.178  0.00  0.00    +0.000 N 
ATOM      2  C   UNL     1       1.905   9.119  17.964  0.00  0.00    +0.000 C 
ATOM      3  C   UNL     1       2.491   7.784  17.551  0.00  0.00    +0.000 C 
ATOM      4  C   UNL     1       3.273   7.224  18.726  0.00  0.00    +0.000 C 
ATOM      5  C   UNL     1       2.343   6.980  19.909  0.00  0.00    +0.000 C 
ATOM      6  C   UNL     1       1.388   8.159  20.228  0.00  0.00    +0.000 C 
ATOM      7  O   UNL     1       0.841   8.217  21.335  0.00  0.00    +0.000 OA
ENDROOT
BRANCH   1  14
ATOM      8  C   UNL     1      -3.152  11.381  18.080  0.00  0.00    +0.000 C 
ATOM      9  C   UNL     1      -1.877  11.310  18.868  0.00  0.00    +0.000 A 
ATOM     10  C   UNL     1      -1.500  12.362  19.712  0.00  0.00    +0.000 A 
ATOM     11  C   UNL     1      -0.299  12.305  20.412  0.00  0.00    +0.000 A 
ATOM     12  C   UNL     1       0.542  11.211  20.247  0.00  0.00    +0.000 A 
ATOM     13  F   UNL     1       1.683  11.191  20.951  0.00  0.00    +0.000 F 
ATOM     14  C   UNL     1       0.196  10.135  19.415  0.00  0.00    +0.000 A 
ATOM     15  C   UNL     1      -1.035  10.189  18.743  0.00  0.00    +0.000 A 
ENDBRANCH   1  14
BRANCH   5  16
ATOM     16  N   UNL     1       1.576   5.750  19.691  0.00  0.00    +0.000 N 
ATOM     17  C   UNL     1       1.654   4.685  20.561  0.00  0.00    +0.000 C 
ATOM     18  O   UNL     1       2.430   4.632  21.506  0.00  0.00    +0.000 OA
ATOM     19  H   UNL     1       0.869   5.745  18.970  0.00  0.00    +0.000 HD
BRANCH  17  20
ATOM     20  C   UNL     1       0.743   3.536  20.197  0.00  0.00    +0.000 C 
BRANCH  20  21
ATOM     21  C   UNL     1       1.572   2.409  19.593  0.00  0.00    +0.000 C 
BRANCH  21  22
ATOM     22  N   UNL     1       2.523   2.884  18.611  0.00  0.00    +0.000 N 
ATOM     23  C   UNL     1       3.879   2.814  18.668  0.00  0.00    +0.000 A 
ATOM     24  N   UNL     1       4.386   3.317  17.564  0.00  0.00    +0.000 NA
ATOM     25  C   UNL     1       3.279   3.675  16.851  0.00  0.00    +0.000 A 
ATOM     26  N   UNL     1       2.109   3.436  17.453  0.00  0.00    +0.000 NA
ENDBRANCH  21  22
ENDBRANCH  20  21
ENDBRANCH  17  20
ENDBRANCH   5  16
TORSDOF 5
ENDMDL
MODEL 7
REMARK VINA RESULT:      -6.5      2.898      7.727
REMARK  Name = 
REMARK  6 active torsions:
REMARK  status: ('A' for Active; 'I' for Inactive)
REMARK    1  A    between atoms: C_1  and  C_2
REMARK    2  A    between atoms: C_7  and  N_8
REMARK    3  A    between atoms: C_12  and  N_13
REMARK    4  A    between atoms: C_14  and  C_16
REMARK    5  A    between atoms: C_16  and  C_17
REMARK    6  A    between atoms: C_17  and  N_18
REMARK                            x       y       z     vdW  Elec       q    Type
REMARK                         _______ _______ _______ _____ _____    ______ ____
ROOT
ATOM      1  N   UNL     1       3.505   5.180  18.086  0.00  0.00    +0.000 N 
ATOM      2  C   UNL     1       3.401   6.629  18.256  0.00  0.00    +0.000 C 
ATOM      3  C   UNL     1       4.163   7.407  17.203  0.00  0.00    +0.000 C 
ATOM      4  C   UNL     1       5.605   6.932  17.209  0.00  0.00    +0.000 C 
ATOM      5  C   UNL     1       5.675   5.454  16.841  0.00  0.00    +0.000 C 
ATOM      6  C   UNL     1       4.660   4.557  17.594  0.00  0.00    +0.000 C 
ATOM      7  O   UNL     1       4.839   3.335  17.634  0.00  0.00    +0.000 OA
ENDROOT
BRANCH   1  14
ATOM      8  C   UNL     1       2.129   2.708  22.174  0.00  0.00    +0.000 C 
ATOM      9  C   UNL     1       1.843   3.150  20.769  0.00  0.00    +0.000 A 
ATOM     10  C   UNL     1       0.710   2.684  20.092  0.00  0.00    +0.000 A 
ATOM     11  C   UNL     1       0.470   3.070  18.776  0.00  0.00    +0.000 A 
ATOM     12  C   UNL     1       1.378   3.897  18.125  0.00  0.00    +0.000 A 
ATOM     13  F   UNL     1       1.101   4.254  16.863  0.00  0.00    +0.000 F 
ATOM     14  C   UNL     1       2.522   4.389  18.774  0.00  0.00    +0.000 A 
ATOM     15  C   UNL     1       2.733   4.021  20.111  0.00  0.00    +0.000 A 
ENDBRANCH   1  14
BRANCH   5  16
ATOM     16  N   UNL     1       5.514   5.296  15.393  0.00  0.00    +0.000 N 
ATOM     17  C   UNL     1       6.595   5.099  14.562  0.00  0.00    +0.000 C 
ATOM     18  O   UNL     1       7.760   5.145  14.936  0.00  0.00    +0.000 OA
ATOM     19  H   UNL     1       4.582   5.185  15.021  0.00  0.00    +0.000 HD
BRANCH  17  20
ATOM     20  C   UNL     1       6.218   4.899  13.113  0.00  0.00    +0.000 C 
BRANCH  20  21
ATOM     21  C   UNL     1       7.309   4.096  12.415  0.00  0.00    +0.000 C 
BRANCH  21  22
ATOM     22  N   UNL     1       6.800   2.894  11.790  0.00  0.00    +0.000 N 
ATOM     23  C   UNL     1       7.508   1.931  11.144  0.00  0.00    +0.000 A 
ATOM     24  N   UNL     1       6.689   0.979  10.753  0.00  0.00    +0.000 NA
ATOM     25  C   UNL     1       5.477   1.412  11.203  0.00  0.00    +0.000 A 
ATOM     26  N   UNL     1       5.489   2.587  11.841  0.00  0.00    +0.000 NA
ENDBRANCH  21  22
ENDBRANCH  20  21
ENDBRANCH  17  20
ENDBRANCH   5  16
TORSDOF 5
ENDMDL
MODEL 8
REMARK VINA RESULT:      -6.5      7.618     10.007
REMARK  Name = 
REMARK  6 active torsions:
REMARK  status: ('A' for Active; 'I' for Inactive)
REMARK    1  A    between atoms: C_1  and  C_2
REMARK    2  A    between atoms: C_7  and  N_8
REMARK    3  A    between atoms: C_12  and  N_13
REMARK    4  A    between atoms: C_14  and  C_16
REMARK    5  A    between atoms: C_16  and  C_17
REMARK    6  A    between atoms: C_17  and  N_18
REMARK                            x       y       z     vdW  Elec       q    Type
REMARK                         _______ _______ _______ _____ _____    ______ ____
ROOT
ATOM      1  N   UNL     1       0.398  10.824  19.161  0.00  0.00    +0.000 N 
ATOM      2  C   UNL     1       1.198  12.033  19.358  0.00  0.00    +0.000 C 
ATOM      3  C   UNL     1       0.359  13.290  19.457  0.00  0.00    +0.000 C 
ATOM      4  C   UNL     1      -0.515  13.378  18.218  0.00  0.00    +0.000 C 
ATOM      5  C   UNL     1      -1.464  12.186  18.158  0.00  0.00    +0.000 C 
ATOM      6  C   UNL     1      -0.789  10.815  18.418  0.00  0.00    +0.000 C 
ATOM      7  O   UNL     1      -1.365   9.777  18.073  0.00  0.00    +0.000 OA
ENDROOT
BRANCH   1  14
ATOM      8  C   UNL     1       3.245   7.053  17.615  0.00  0.00    +0.000 C 
ATOM      9  C   UNL     1       2.432   7.705  18.694  0.00  0.00    +0.000 A 
ATOM     10  C   UNL     1       2.198   7.047  19.907  0.00  0.00    +0.000 A 
ATOM     11  C   UNL     1       1.413   7.642  20.889  0.00  0.00    +0.000 A 
ATOM     12  C   UNL     1       0.836   8.884  20.650  0.00  0.00    +0.000 A 
ATOM     13  F   UNL     1       0.098   9.427  21.629  0.00  0.00    +0.000 F 
ATOM     14  C   UNL     1       1.053   9.577  19.449  0.00  0.00    +0.000 A 
ATOM     15  C   UNL     1       1.876   8.981  18.481  0.00  0.00    +0.000 A 
ENDBRANCH   1  14
BRANCH   5  16
ATOM     16  N   UNL     1      -2.576  12.389  19.091  0.00  0.00    +0.000 N 
ATOM     17  C   UNL     1      -3.874  12.078  18.750  0.00  0.00    +0.000 C 
ATOM     18  O   UNL     1      -4.216  11.714  17.632  0.00  0.00    +0.000 OA
ATOM     19  H   UNL     1      -2.363  12.625  20.049  0.00  0.00    +0.000 HD
BRANCH  17  20
ATOM     20  C   UNL     1      -4.865  12.302  19.866  0.00  0.00    +0.000 C 
BRANCH  20  21
ATOM     21  C   UNL     1      -4.320  13.359  20.819  0.00  0.00    +0.000 C 
BRANCH  21  22
ATOM     22  N   UNL     1      -4.430  12.964  22.207  0.00  0.00    +0.000 N 
ATOM     23  C   UNL     1      -3.471  12.400  22.987  0.00  0.00    +0.000 A 
ATOM     24  N   UNL     1      -3.946  12.229  24.202  0.00  0.00    +0.000 NA
ATOM     25  C   UNL     1      -5.214  12.723  24.110  0.00  0.00    +0.000 A 
ATOM     26  N   UNL     1      -5.563  13.181  22.903  0.00  0.00    +0.000 NA
ENDBRANCH  21  22
ENDBRANCH  20  21
ENDBRANCH  17  20
ENDBRANCH   5  16
TORSDOF 5
ENDMDL
MODEL 9
REMARK VINA RESULT:      -6.5      5.599      7.450
REMARK  Name = 
REMARK  6 active torsions:
REMARK  status: ('A' for Active; 'I' for Inactive)
REMARK    1  A    between atoms: C_1  and  C_2
REMARK    2  A    between atoms: C_7  and  N_8
REMARK    3  A    between atoms: C_12  and  N_13
REMARK    4  A    between atoms: C_14  and  C_16
REMARK    5  A    between atoms: C_16  and  C_17
REMARK    6  A    between atoms: C_17  and  N_18
REMARK                            x       y       z     vdW  Elec       q    Type
REMARK                         _______ _______ _______ _____ _____    ______ ____
ROOT
ATOM      1  N   UNL     1       2.447   6.918  19.025  0.00  0.00    +0.000 N 
ATOM      2  C   UNL     1       2.135   6.811  20.450  0.00  0.00    +0.000 C 
ATOM      3  C   UNL     1       0.985   7.703  20.875  0.00  0.00    +0.000 C 
ATOM      4  C   UNL     1       1.311   9.128  20.465  0.00  0.00    +0.000 C 
ATOM      5  C   UNL     1       1.442   9.223  18.949  0.00  0.00    +0.000 C 
ATOM      6  C   UNL     1       2.316   8.115  18.309  0.00  0.00    +0.000 C 
ATOM      7  O   UNL     1       2.763   8.274  17.168  0.00  0.00    +0.000 OA
ENDROOT
BRANCH   1  14
ATOM      8  C   UNL     1       6.918   4.996  18.010  0.00  0.00    +0.000 C 
ATOM      9  C   UNL     1       5.422   4.905  17.940  0.00  0.00    +0.000 A 
ATOM     10  C   UNL     1       4.803   3.875  17.221  0.00  0.00    +0.000 A 
ATOM     11  C   UNL     1       3.416   3.817  17.130  0.00  0.00    +0.000 A 
ATOM     12  C   UNL     1       2.645   4.805  17.732  0.00  0.00    +0.000 A 
ATOM     13  F   UNL     1       1.312   4.704  17.631  0.00  0.00    +0.000 F 
ATOM     14  C   UNL     1       3.229   5.850  18.466  0.00  0.00    +0.000 A 
ATOM     15  C   UNL     1       4.628   5.876  18.579  0.00  0.00    +0.000 A 
ENDBRANCH   1  14
BRANCH   5  16
ATOM     16  N   UNL     1       0.110   9.235  18.336  0.00  0.00    +0.000 N 
ATOM     17  C   UNL     1      -0.626  10.394  18.226  0.00  0.00    +0.000 C 
ATOM     18  O   UNL     1      -0.286  11.466  18.711  0.00  0.00    +0.000 OA
ATOM     19  H   UNL     1      -0.208   8.404  17.859  0.00  0.00    +0.000 HD
BRANCH  17  20
ATOM     20  C   UNL     1      -1.944  10.210  17.512  0.00  0.00    +0.000 C 
BRANCH  20  21
ATOM     21  C   UNL     1      -2.602  11.570  17.311  0.00  0.00    +0.000 C 
BRANCH  21  22
ATOM     22  N   UNL     1      -3.954  11.613  17.824  0.00  0.00    +0.000 N 
ATOM     23  C   UNL     1      -4.360  12.013  19.058  0.00  0.00    +0.000 A 
ATOM     24  N   UNL     1      -5.672  11.947  19.125  0.00  0.00    +0.000 NA
ATOM     25  C   UNL     1      -6.022  11.506  17.883  0.00  0.00    +0.000 A 
ATOM     26  N   UNL     1      -5.003  11.279  17.048  0.00  0.00    +0.000 NA
ENDBRANCH  21  22
ENDBRANCH  20  21
ENDBRANCH  17  20
ENDBRANCH   5  16
TORSDOF 5
ENDMDL
