MODEL 1
REMARK VINA RESULT:      -8.4      0.000      0.000
REMARK  Name = 
REMARK  5 active torsions:
REMARK  status: ('A' for Active; 'I' for Inactive)
REMARK    1  A    between atoms: C_1  and  O_2
REMARK    2  A    between atoms: O_2  and  C_3
REMARK    3  A    between atoms: C_6  and  N_7
REMARK    4  A    between atoms: N_7  and  C_8
REMARK    5  A    between atoms: C_17  and  C_18
REMARK                            x       y       z     vdW  Elec       q    Type
REMARK                         _______ _______ _______ _____ _____    ______ ____
ROOT
ATOM      1  C   UNL     1       3.869   5.932  19.034  0.00  0.00    +0.000 A 
ATOM      2  N   UNL     1       4.156   6.325  17.765  0.00  0.00    +0.000 NA
ATOM      3  C   UNL     1       5.178   5.679  17.176  0.00  0.00    +0.000 A 
ATOM      4  C   UNL     1       5.224   5.295  15.835  0.00  0.00    +0.000 A 
ATOM      5  C   UNL     1       6.317   4.579  15.340  0.00  0.00    +0.000 A 
ATOM      6  C   UNL     1       7.463   4.475  16.120  0.00  0.00    +0.000 A 
ATOM      7  C   UNL     1       7.380   4.777  17.468  0.00  0.00    +0.000 A 
ATOM      8  C   UNL     1       6.116   5.017  17.971  0.00  0.00    +0.000 A 
ATOM      9  N   UNL     1       5.665   4.428  19.103  0.00  0.00    +0.000 NA
ATOM     10  C   UNL     1       4.368   4.699  19.387  0.00  0.00    +0.000 A 
ENDROOT
BRANCH  10  11
ATOM     11  C   UNL     1       3.352   3.604  19.118  0.00  0.00    +0.000 A 
ATOM     12  C   UNL     1       3.271   2.815  17.966  0.00  0.00    +0.000 A 
ATOM     13  C   UNL     1       2.146   1.956  17.933  0.00  0.00    +0.000 A 
ATOM     14  C   UNL     1       1.435   2.044  19.106  0.00  0.00    +0.000 A 
ATOM     15  S   UNL     1       2.129   3.152  20.220  0.00  0.00    +0.000 S 
ENDBRANCH  10  11
BRANCH   1  16
ATOM     16  N   UNL     1       2.936   6.629  19.826  0.00  0.00    +0.000 N 
ATOM     17  H   UNL     1       2.698   6.081  20.644  0.00  0.00    +0.000 HD
BRANCH  16  21
ATOM     18  C   UNL     1       0.400   9.969  19.160  0.00  0.00    +0.000 A 
ATOM     19  C   UNL     1       1.162   9.484  18.109  0.00  0.00    +0.000 A 
ATOM     20  C   UNL     1       2.006   8.374  18.301  0.00  0.00    +0.000 A 
ATOM     21  C   UNL     1       2.132   7.759  19.556  0.00  0.00    +0.000 A 
ATOM     22  C   UNL     1       1.404   8.308  20.618  0.00  0.00    +0.000 A 
ATOM     23  C   UNL     1       0.540   9.400  20.424  0.00  0.00    +0.000 A 
BRANCH  18  25
ATOM     24  C   UNL     1      -1.492  10.654  17.953  0.00  0.00    +0.000 C 
ATOM     25  O   UNL     1      -0.445  10.999  18.855  0.00  0.00    +0.000 OA
ENDBRANCH  18  25
ENDBRANCH  16  21
ENDBRANCH   1  16
TORSDOF 4
ENDMDL
MODEL 2
REMARK VINA RESULT:      -8.4      1.303      1.919
REMARK  Name = 
REMARK  5 active torsions:
REMARK  status: ('A' for Active; 'I' for Inactive)
REMARK    1  A    between atoms: C_1  and  O_2
REMARK    2  A    between atoms: O_2  and  C_3
REMARK    3  A    between atoms: C_6  and  N_7
REMARK    4  A    between atoms: N_7  and  C_8
REMARK    5  A    between atoms: C_17  and  C_18
REMARK                            x       y       z     vdW  Elec       q    Type
REMARK                         _______ _______ _______ _____ _____    ______ ____
ROOT
ATOM      1  C   UNL     1       3.316   6.432  18.394  0.00  0.00    +0.000 A 
ATOM      2  N   UNL     1       4.123   6.485  17.302  0.00  0.00    +0.000 NA
ATOM      3  C   UNL     1       5.303   5.850  17.421  0.00  0.00    +0.000 A 
ATOM      4  C   UNL     1       5.928   5.112  16.415  0.00  0.00    +0.000 A 
ATOM      5  C   UNL     1       7.130   4.448  16.667  0.00  0.00    +0.000 A 
ATOM      6  C   UNL     1       7.826   4.732  17.837  0.00  0.00    +0.000 A 
ATOM      7  C   UNL     1       7.165   5.389  18.860  0.00  0.00    +0.000 A 
ATOM      8  C   UNL     1       5.806   5.581  18.695  0.00  0.00    +0.000 A 
ATOM      9  N   UNL     1       4.912   5.279  19.665  0.00  0.00    +0.000 NA
ATOM     10  C   UNL     1       3.619   5.433  19.291  0.00  0.00    +0.000 A 
ENDROOT
BRANCH  10  11
ATOM     11  C   UNL     1       2.825   4.175  18.992  0.00  0.00    +0.000 A 
ATOM     12  C   UNL     1       3.235   3.110  18.182  0.00  0.00    +0.000 A 
ATOM     13  C   UNL     1       2.241   2.123  17.979  0.00  0.00    +0.000 A 
ATOM     14  C   UNL     1       1.115   2.412  18.712  0.00  0.00    +0.000 A 
ATOM     15  S   UNL     1       1.273   3.857  19.628  0.00  0.00    +0.000 S 
ENDBRANCH  10  11
BRANCH   1  16
ATOM     16  N   UNL     1       2.129   7.185  18.468  0.00  0.00    +0.000 N 
ATOM     17  H   UNL     1       1.666   7.192  17.567  0.00  0.00    +0.000 HD
BRANCH  16  21
ATOM     18  C   UNL     1       0.762  10.052  21.286  0.00  0.00    +0.000 A 
ATOM     19  C   UNL     1       1.009   8.756  21.712  0.00  0.00    +0.000 A 
ATOM     20  C   UNL     1       1.469   7.788  20.800  0.00  0.00    +0.000 A 
ATOM     21  C   UNL     1       1.649   8.090  19.441  0.00  0.00    +0.000 A 
ATOM     22  C   UNL     1       1.328   9.387  19.021  0.00  0.00    +0.000 A 
ATOM     23  C   UNL     1       0.893  10.363  19.934  0.00  0.00    +0.000 A 
BRANCH  18  25
ATOM     24  C   UNL     1      -0.743  10.535  23.022  0.00  0.00    +0.000 C 
ATOM     25  O   UNL     1       0.393  10.936  22.260  0.00  0.00    +0.000 OA
ENDBRANCH  18  25
ENDBRANCH  16  21
ENDBRANCH   1  16
TORSDOF 4
ENDMDL
MODEL 3
REMARK VINA RESULT:      -8.3      1.447      1.929
REMARK  Name = 
REMARK  5 active torsions:
REMARK  status: ('A' for Active; 'I' for Inactive)
REMARK    1  A    between atoms: C_1  and  O_2
REMARK    2  A    between atoms: O_2  and  C_3
REMARK    3  A    between atoms: C_6  and  N_7
REMARK    4  A    between atoms: N_7  and  C_8
REMARK    5  A    between atoms: C_17  and  C_18
REMARK                            x       y       z     vdW  Elec       q    Type
REMARK                         _______ _______ _______ _____ _____    ______ ____
ROOT
ATOM      1  C   UNL     1       3.320   6.609  18.184  0.00  0.00    +0.000 A 
ATOM      2  N   UNL     1       4.091   6.579  17.065  0.00  0.00    +0.000 NA
ATOM      3  C   UNL     1       5.250   5.906  17.178  0.00  0.00    +0.000 A 
ATOM      4  C   UNL     1       5.813   5.096  16.190  0.00  0.00    +0.000 A 
ATOM      5  C   UNL     1       6.998   4.400  16.435  0.00  0.00    +0.000 A 
ATOM      6  C   UNL     1       7.743   4.714  17.567  0.00  0.00    +0.000 A 
ATOM      7  C   UNL     1       7.141   5.445  18.577  0.00  0.00    +0.000 A 
ATOM      8  C   UNL     1       5.786   5.680  18.447  0.00  0.00    +0.000 A 
ATOM      9  N   UNL     1       4.915   5.459  19.459  0.00  0.00    +0.000 NA
ATOM     10  C   UNL     1       3.617   5.645  19.119  0.00  0.00    +0.000 A 
ENDROOT
BRANCH  10  11
ATOM     11  C   UNL     1       2.768   4.404  18.909  0.00  0.00    +0.000 A 
ATOM     12  C   UNL     1       1.474   4.194  19.400  0.00  0.00    +0.000 A 
ATOM     13  C   UNL     1       0.969   2.894  19.156  0.00  0.00    +0.000 A 
ATOM     14  C   UNL     1       1.857   2.162  18.405  0.00  0.00    +0.000 A 
ATOM     15  S   UNL     1       3.275   3.047  18.007  0.00  0.00    +0.000 S 
ENDBRANCH  10  11
BRANCH   1  16
ATOM     16  N   UNL     1       2.165   7.411  18.259  0.00  0.00    +0.000 N 
ATOM     17  H   UNL     1       1.711   7.451  17.354  0.00  0.00    +0.000 HD
BRANCH  16  21
ATOM     18  C   UNL     1       0.739   9.990  21.316  0.00  0.00    +0.000 A 
ATOM     19  C   UNL     1       0.863  10.482  20.026  0.00  0.00    +0.000 A 
ATOM     20  C   UNL     1       1.327   9.646  18.993  0.00  0.00    +0.000 A 
ATOM     21  C   UNL     1       1.713   8.320  19.241  0.00  0.00    +0.000 A 
ATOM     22  C   UNL     1       1.643   7.866  20.564  0.00  0.00    +0.000 A 
ATOM     23  C   UNL     1       1.156   8.689  21.594  0.00  0.00    +0.000 A 
BRANCH  18  25
ATOM     24  C   UNL     1      -0.737  10.263  23.119  0.00  0.00    +0.000 C 
ATOM     25  O   UNL     1       0.208  10.854  22.231  0.00  0.00    +0.000 OA
ENDBRANCH  18  25
ENDBRANCH  16  21
ENDBRANCH   1  16
TORSDOF 4
ENDMDL
MODEL 4
REMARK VINA RESULT:      -8.2      0.684      1.282
REMARK  Name = 
REMARK  5 active torsions:
REMARK  status: ('A' for Active; 'I' for Inactive)
REMARK    1  A    between atoms: C_1  and  O_2
REMARK    2  A    between atoms: O_2  and  C_3
REMARK    3  A    between atoms: C_6  and  N_7
REMARK    4  A    between atoms: N_7  and  C_8
REMARK    5  A    between atoms: C_17  and  C_18
REMARK                            x       y       z     vdW  Elec       q    Type
REMARK                         _______ _______ _______ _____ _____    ______ ____
ROOT
ATOM      1  C   UNL     1       3.737   5.970  19.172  0.00  0.00    +0.000 A 
ATOM      2  N   UNL     1       4.081   6.401  17.930  0.00  0.00    +0.000 NA
ATOM      3  C   UNL     1       5.072   5.714  17.333  0.00  0.00    +0.000 A 
ATOM      4  C   UNL     1       5.127   5.390  15.977  0.00  0.00    +0.000 A 
ATOM      5  C   UNL     1       6.182   4.625  15.473  0.00  0.00    +0.000 A 
ATOM      6  C   UNL     1       7.299   4.408  16.273  0.00  0.00    +0.000 A 
ATOM      7  C   UNL     1       7.201   4.653  17.631  0.00  0.00    +0.000 A 
ATOM      8  C   UNL     1       5.944   4.955  18.116  0.00  0.00    +0.000 A 
ATOM      9  N   UNL     1       5.426   4.346  19.209  0.00  0.00    +0.000 NA
ATOM     10  C   UNL     1       4.143   4.692  19.477  0.00  0.00    +0.000 A 
ENDROOT
BRANCH  10  11
ATOM     11  C   UNL     1       3.064   3.681  19.135  0.00  0.00    +0.000 A 
ATOM     12  C   UNL     1       1.699   3.802  19.416  0.00  0.00    +0.000 A 
ATOM     13  C   UNL     1       0.940   2.651  19.095  0.00  0.00    +0.000 A 
ATOM     14  C   UNL     1       1.730   1.702  18.492  0.00  0.00    +0.000 A 
ATOM     15  S   UNL     1       3.363   2.210  18.322  0.00  0.00    +0.000 S 
ENDBRANCH  10  11
BRANCH   1  16
ATOM     16  N   UNL     1       2.833   6.692  19.975  0.00  0.00    +0.000 N 
ATOM     17  H   UNL     1       2.623   6.169  20.817  0.00  0.00    +0.000 HD
BRANCH  16  21
ATOM     18  C   UNL     1       0.513  10.113  19.002  0.00  0.00    +0.000 A 
ATOM     19  C   UNL     1       0.475   9.622  20.298  0.00  0.00    +0.000 A 
ATOM     20  C   UNL     1       1.240   8.493  20.648  0.00  0.00    +0.000 A 
ATOM     21  C   UNL     1       2.020   7.815  19.700  0.00  0.00    +0.000 A 
ATOM     22  C   UNL     1       1.990   8.289  18.383  0.00  0.00    +0.000 A 
ATOM     23  C   UNL     1       1.248   9.431  18.035  0.00  0.00    +0.000 A 
BRANCH  18  25
ATOM     24  C   UNL     1      -1.428  11.059  18.083  0.00  0.00    +0.000 C 
ATOM     25  O   UNL     1      -0.201  11.256  18.780  0.00  0.00    +0.000 OA
ENDBRANCH  18  25
ENDBRANCH  16  21
ENDBRANCH   1  16
TORSDOF 4
ENDMDL
MODEL 5
REMARK VINA RESULT:      -8.0      2.167      4.290
REMARK  Name = 
REMARK  5 active torsions:
REMARK  status: ('A' for Active; 'I' for Inactive)
REMARK    1  A    between atoms: C_1  and  O_2
REMARK    2  A    between atoms: O_2  and  C_3
REMARK    3  A    between atoms: C_6  and  N_7
REMARK    4  A    between atoms: N_7  and  C_8
REMARK    5  A    between atoms: C_17  and  C_18
REMARK                            x       y       z     vdW  Elec       q    Type
REMARK                         _______ _______ _______ _____ _____    ______ ____
ROOT
ATOM      1  C   UNL     1       2.255   6.794  19.166  0.00  0.00    +0.000 A 
ATOM      2  N   UNL     1       1.998   6.260  20.389  0.00  0.00    +0.000 NA
ATOM      3  C   UNL     1       1.873   4.921  20.422  0.00  0.00    +0.000 A 
ATOM      4  C   UNL     1       2.348   4.090  21.438  0.00  0.00    +0.000 A 
ATOM      5  C   UNL     1       2.209   2.704  21.343  0.00  0.00    +0.000 A 
ATOM      6  C   UNL     1       1.375   2.176  20.363  0.00  0.00    +0.000 A 
ATOM      7  C   UNL     1       0.982   2.990  19.315  0.00  0.00    +0.000 A 
ATOM      8  C   UNL     1       1.577   4.235  19.243  0.00  0.00    +0.000 A 
ATOM      9  N   UNL     1       2.109   4.715  18.095  0.00  0.00    +0.000 NA
ATOM     10  C   UNL     1       2.741   5.905  18.236  0.00  0.00    +0.000 A 
ENDROOT
BRANCH  10  11
ATOM     11  C   UNL     1       4.259   5.892  18.237  0.00  0.00    +0.000 A 
ATOM     12  C   UNL     1       5.080   5.231  19.157  0.00  0.00    +0.000 A 
ATOM     13  C   UNL     1       6.461   5.495  18.990  0.00  0.00    +0.000 A 
ATOM     14  C   UNL     1       6.674   6.287  17.888  0.00  0.00    +0.000 A 
ATOM     15  S   UNL     1       5.217   6.697  17.076  0.00  0.00    +0.000 S 
ENDBRANCH  10  11
BRANCH   1  16
ATOM     16  N   UNL     1       2.248   8.186  18.957  0.00  0.00    +0.000 N 
ATOM     17  H   UNL     1       3.198   8.530  18.879  0.00  0.00    +0.000 HD
BRANCH  16  21
ATOM     18  C   UNL     1      -0.857  11.020  19.555  0.00  0.00    +0.000 A 
ATOM     19  C   UNL     1      -0.524  10.652  18.260  0.00  0.00    +0.000 A 
ATOM     20  C   UNL     1       0.497   9.710  18.035  0.00  0.00    +0.000 A 
ATOM     21  C   UNL     1       1.227   9.153  19.096  0.00  0.00    +0.000 A 
ATOM     22  C   UNL     1       0.919   9.591  20.390  0.00  0.00    +0.000 A 
ATOM     23  C   UNL     1      -0.118  10.512  20.621  0.00  0.00    +0.000 A 
BRANCH  18  25
ATOM     24  C   UNL     1      -2.927  11.708  18.688  0.00  0.00    +0.000 C 
ATOM     25  O   UNL     1      -1.912  11.881  19.673  0.00  0.00    +0.000 OA
ENDBRANCH  18  25
ENDBRANCH  16  21
ENDBRANCH   1  16
TORSDOF 4
ENDMDL
MODEL 6
REMARK VINA RESULT:      -7.9      1.873      3.997
REMARK  Name = 
REMARK  5 active torsions:
REMARK  status: ('A' for Active; 'I' for Inactive)
REMARK    1  A    between atoms: C_1  and  O_2
REMARK    2  A    between atoms: O_2  and  C_3
REMARK    3  A    between atoms: C_6  and  N_7
REMARK    4  A    between atoms: N_7  and  C_8
REMARK    5  A    between atoms: C_17  and  C_18
REMARK                            x       y       z     vdW  Elec       q    Type
REMARK                         _______ _______ _______ _____ _____    ______ ____
ROOT
ATOM      1  C   UNL     1       3.251   6.342  18.073  0.00  0.00    +0.000 A 
ATOM      2  N   UNL     1       2.826   5.558  19.098  0.00  0.00    +0.000 NA
ATOM      3  C   UNL     1       3.089   4.245  18.971  0.00  0.00    +0.000 A 
ATOM      4  C   UNL     1       3.478   3.395  20.007  0.00  0.00    +0.000 A 
ATOM      5  C   UNL     1       3.778   2.055  19.750  0.00  0.00    +0.000 A 
ATOM      6  C   UNL     1       3.443   1.515  18.513  0.00  0.00    +0.000 A 
ATOM      7  C   UNL     1       3.144   2.375  17.471  0.00  0.00    +0.000 A 
ATOM      8  C   UNL     1       3.349   3.721  17.702  0.00  0.00    +0.000 A 
ATOM      9  N   UNL     1       4.020   4.509  16.830  0.00  0.00    +0.000 NA
ATOM     10  C   UNL     1       4.215   5.776  17.270  0.00  0.00    +0.000 A 
ENDROOT
BRANCH  10  11
ATOM     11  C   UNL     1       5.607   6.140  17.753  0.00  0.00    +0.000 A 
ATOM     12  C   UNL     1       6.408   7.177  17.262  0.00  0.00    +0.000 A 
ATOM     13  C   UNL     1       7.712   7.208  17.813  0.00  0.00    +0.000 A 
ATOM     14  C   UNL     1       7.852   6.242  18.781  0.00  0.00    +0.000 A 
ATOM     15  S   UNL     1       6.421   5.321  19.010  0.00  0.00    +0.000 S 
ENDBRANCH  10  11
BRANCH   1  16
ATOM     16  N   UNL     1       2.902   7.704  17.996  0.00  0.00    +0.000 N 
ATOM     17  H   UNL     1       3.620   8.219  17.500  0.00  0.00    +0.000 HD
BRANCH  16  21
ATOM     18  C   UNL     1      -0.020  10.124  19.903  0.00  0.00    +0.000 A 
ATOM     19  C   UNL     1       0.715   9.231  20.667  0.00  0.00    +0.000 A 
ATOM     20  C   UNL     1       1.694   8.422  20.061  0.00  0.00    +0.000 A 
ATOM     21  C   UNL     1       1.924   8.463  18.677  0.00  0.00    +0.000 A 
ATOM     22  C   UNL     1       1.123   9.324  17.917  0.00  0.00    +0.000 A 
ATOM     23  C   UNL     1       0.163  10.153  18.522  0.00  0.00    +0.000 A 
BRANCH  18  25
ATOM     24  C   UNL     1      -0.606  11.032  21.986  0.00  0.00    +0.000 C 
ATOM     25  O   UNL     1      -0.890  10.920  20.594  0.00  0.00    +0.000 OA
ENDBRANCH  18  25
ENDBRANCH  16  21
ENDBRANCH   1  16
TORSDOF 4
ENDMDL
MODEL 7
REMARK VINA RESULT:      -7.9      2.176      4.448
REMARK  Name = 
REMARK  5 active torsions:
REMARK  status: ('A' for Active; 'I' for Inactive)
REMARK    1  A    between atoms: C_1  and  O_2
REMARK    2  A    between atoms: O_2  and  C_3
REMARK    3  A    between atoms: C_6  and  N_7
REMARK    4  A    between atoms: N_7  and  C_8
REMARK    5  A    between atoms: C_17  and  C_18
REMARK                            x       y       z     vdW  Elec       q    Type
REMARK                         _______ _______ _______ _____ _____    ______ ____
ROOT
ATOM      1  C   UNL     1       2.228   6.810  19.185  0.00  0.00    +0.000 A 
ATOM      2  N   UNL     1       1.998   6.279  20.415  0.00  0.00    +0.000 NA
ATOM      3  C   UNL     1       1.882   4.939  20.455  0.00  0.00    +0.000 A 
ATOM      4  C   UNL     1       2.382   4.115  21.465  0.00  0.00    +0.000 A 
ATOM      5  C   UNL     1       2.248   2.728  21.377  0.00  0.00    +0.000 A 
ATOM      6  C   UNL     1       1.399   2.191  20.416  0.00  0.00    +0.000 A 
ATOM      7  C   UNL     1       0.981   2.999  19.373  0.00  0.00    +0.000 A 
ATOM      8  C   UNL     1       1.567   4.247  19.284  0.00  0.00    +0.000 A 
ATOM      9  N   UNL     1       2.074   4.726  18.124  0.00  0.00    +0.000 NA
ATOM     10  C   UNL     1       2.702   5.920  18.249  0.00  0.00    +0.000 A 
ENDROOT
BRANCH  10  11
ATOM     11  C   UNL     1       4.219   5.916  18.220  0.00  0.00    +0.000 A 
ATOM     12  C   UNL     1       5.062   5.280  19.138  0.00  0.00    +0.000 A 
ATOM     13  C   UNL     1       6.438   5.548  18.939  0.00  0.00    +0.000 A 
ATOM     14  C   UNL     1       6.625   6.317  17.816  0.00  0.00    +0.000 A 
ATOM     15  S   UNL     1       5.150   6.701  17.023  0.00  0.00    +0.000 S 
ENDBRANCH  10  11
BRANCH   1  16
ATOM     16  N   UNL     1       2.210   8.201  18.971  0.00  0.00    +0.000 N 
ATOM     17  H   UNL     1       3.149   8.539  18.801  0.00  0.00    +0.000 HD
BRANCH  16  21
ATOM     18  C   UNL     1      -0.759  11.194  19.484  0.00  0.00    +0.000 A 
ATOM     19  C   UNL     1      -0.100  10.703  20.601  0.00  0.00    +0.000 A 
ATOM     20  C   UNL     1       0.893   9.715  20.457  0.00  0.00    +0.000 A 
ATOM     21  C   UNL     1       1.212   9.175  19.202  0.00  0.00    +0.000 A 
ATOM     22  C   UNL     1       0.486   9.638  18.098  0.00  0.00    +0.000 A 
ATOM     23  C   UNL     1      -0.487  10.642  18.234  0.00  0.00    +0.000 A 
BRANCH  18  25
ATOM     24  C   UNL     1      -1.467  12.874  20.962  0.00  0.00    +0.000 C 
ATOM     25  O   UNL     1      -1.649  12.204  19.717  0.00  0.00    +0.000 OA
ENDBRANCH  18  25
ENDBRANCH  16  21
ENDBRANCH   1  16
TORSDOF 4
ENDMDL
MODEL 8
REMARK VINA RESULT:      -7.9      2.245      4.338
REMARK  Name = 
REMARK  5 active torsions:
REMARK  status: ('A' for Active; 'I' for Inactive)
REMARK    1  A    between atoms: C_1  and  O_2
REMARK    2  A    between atoms: O_2  and  C_3
REMARK    3  A    between atoms: C_6  and  N_7
REMARK    4  A    between atoms: N_7  and  C_8
REMARK    5  A    between atoms: C_17  and  C_18
REMARK                            x       y       z     vdW  Elec       q    Type
REMARK                         _______ _______ _______ _____ _____    ______ ____
ROOT
ATOM      1  C   UNL     1       2.575   6.923  18.439  0.00  0.00    +0.000 A 
ATOM      2  N   UNL     1       2.142   6.644  19.696  0.00  0.00    +0.000 NA
ATOM      3  C   UNL     1       1.993   5.338  19.981  0.00  0.00    +0.000 A 
ATOM      4  C   UNL     1       2.309   4.736  21.200  0.00  0.00    +0.000 A 
ATOM      5  C   UNL     1       2.163   3.357  21.368  0.00  0.00    +0.000 A 
ATOM      6  C   UNL     1       1.466   2.631  20.408  0.00  0.00    +0.000 A 
ATOM      7  C   UNL     1       1.236   3.211  19.173  0.00  0.00    +0.000 A 
ATOM      8  C   UNL     1       1.854   4.424  18.935  0.00  0.00    +0.000 A 
ATOM      9  N   UNL     1       2.549   4.669  17.800  0.00  0.00    +0.000 NA
ATOM     10  C   UNL     1       3.173   5.872  17.784  0.00  0.00    +0.000 A 
ENDROOT
BRANCH  10  11
ATOM     11  C   UNL     1       4.675   5.880  18.000  0.00  0.00    +0.000 A 
ATOM     12  C   UNL     1       5.364   5.255  19.046  0.00  0.00    +0.000 A 
ATOM     13  C   UNL     1       6.752   5.533  19.069  0.00  0.00    +0.000 A 
ATOM     14  C   UNL     1       7.112   6.298  17.986  0.00  0.00    +0.000 A 
ATOM     15  S   UNL     1       5.781   6.666  16.964  0.00  0.00    +0.000 S 
ENDBRANCH  10  11
BRANCH   1  16
ATOM     16  N   UNL     1       2.619   8.245  17.954  0.00  0.00    +0.000 N 
ATOM     17  H   UNL     1       3.540   8.447  17.583  0.00  0.00    +0.000 HD
BRANCH  16  21
ATOM     18  C   UNL     1       0.128  11.624  18.589  0.00  0.00    +0.000 A 
ATOM     19  C   UNL     1      -0.460  10.398  18.322  0.00  0.00    +0.000 A 
ATOM     20  C   UNL     1       0.343   9.260  18.114  0.00  0.00    +0.000 A 
ATOM     21  C   UNL     1       1.744   9.340  18.129  0.00  0.00    +0.000 A 
ATOM     22  C   UNL     1       2.315  10.602  18.333  0.00  0.00    +0.000 A 
ATOM     23  C   UNL     1       1.517  11.735  18.567  0.00  0.00    +0.000 A 
BRANCH  18  25
ATOM     24  C   UNL     1      -2.004  12.239  19.352  0.00  0.00    +0.000 C 
ATOM     25  O   UNL     1      -0.735  12.650  18.853  0.00  0.00    +0.000 OA
ENDBRANCH  18  25
ENDBRANCH  16  21
ENDBRANCH   1  16
TORSDOF 4
ENDMDL
MODEL 9
REMARK VINA RESULT:      -7.8      1.115      1.301
REMARK  Name = 
REMARK  5 active torsions:
REMARK  status: ('A' for Active; 'I' for Inactive)
REMARK    1  A    between atoms: C_1  and  O_2
REMARK    2  A    between atoms: O_2  and  C_3
REMARK    3  A    between atoms: C_6  and  N_7
REMARK    4  A    between atoms: N_7  and  C_8
REMARK    5  A    between atoms: C_17  and  C_18
REMARK                            x       y       z     vdW  Elec       q    Type
REMARK                         _______ _______ _______ _____ _____    ______ ____
ROOT
ATOM      1  C   UNL     1       3.314   6.293  19.248  0.00  0.00    +0.000 A 
ATOM      2  N   UNL     1       3.601   6.795  18.019  0.00  0.00    +0.000 NA
ATOM      3  C   UNL     1       4.747   6.356  17.467  0.00  0.00    +0.000 A 
ATOM      4  C   UNL     1       4.930   6.057  16.116  0.00  0.00    +0.000 A 
ATOM      5  C   UNL     1       6.151   5.557  15.660  0.00  0.00    +0.000 A 
ATOM      6  C   UNL     1       7.255   5.598  16.505  0.00  0.00    +0.000 A 
ATOM      7  C   UNL     1       7.048   5.810  17.857  0.00  0.00    +0.000 A 
ATOM      8  C   UNL     1       5.736   5.814  18.290  0.00  0.00    +0.000 A 
ATOM      9  N   UNL     1       5.328   5.099  19.364  0.00  0.00    +0.000 NA
ATOM     10  C   UNL     1       3.990   5.140  19.577  0.00  0.00    +0.000 A 
ENDROOT
BRANCH  10  11
ATOM     11  C   UNL     1       3.186   3.911  19.198  0.00  0.00    +0.000 A 
ATOM     12  C   UNL     1       3.284   3.195  17.999  0.00  0.00    +0.000 A 
ATOM     13  C   UNL     1       2.323   2.165  17.863  0.00  0.00    +0.000 A 
ATOM     14  C   UNL     1       1.562   2.057  19.002  0.00  0.00    +0.000 A 
ATOM     15  S   UNL     1       2.015   3.191  20.211  0.00  0.00    +0.000 S 
ENDBRANCH  10  11
BRANCH   1  16
ATOM     16  N   UNL     1       2.237   6.785  20.010  0.00  0.00    +0.000 N 
ATOM     17  H   UNL     1       1.686   6.015  20.370  0.00  0.00    +0.000 HD
BRANCH  16  21
ATOM     18  C   UNL     1       0.459  10.609  20.507  0.00  0.00    +0.000 A 
ATOM     19  C   UNL     1       0.918  10.240  19.252  0.00  0.00    +0.000 A 
ATOM     20  C   UNL     1       1.505   8.975  19.059  0.00  0.00    +0.000 A 
ATOM     21  C   UNL     1       1.680   8.079  20.124  0.00  0.00    +0.000 A 
ATOM     22  C   UNL     1       1.271   8.501  21.395  0.00  0.00    +0.000 A 
ATOM     23  C   UNL     1       0.660   9.752  21.587  0.00  0.00    +0.000 A 
BRANCH  18  25
ATOM     24  C   UNL     1      -0.380  12.300  21.901  0.00  0.00    +0.000 C 
ATOM     25  O   UNL     1      -0.165  11.823  20.576  0.00  0.00    +0.000 OA
ENDBRANCH  18  25
ENDBRANCH  16  21
ENDBRANCH   1  16
TORSDOF 4
ENDMDL
