MODEL 1
REMARK VINA RESULT:      -7.2      0.000      0.000
REMARK  Name = 
REMARK  7 active torsions:
REMARK  status: ('A' for Active; 'I' for Inactive)
REMARK    1  A    between atoms: C_1  and  C_2
REMARK    2  A    between atoms: C_2  and  C_15
REMARK    3  A    between atoms: N_3  and  N_4
REMARK    4  A    between atoms: N_4  and  S_5
REMARK    5  A    between atoms: S_5  and  C_8
REMARK    6  A    between atoms: C_11  and  C_12
REMARK    7  A    between atoms: C_18  and  C_19
REMARK                            x       y       z     vdW  Elec       q    Type
REMARK                         _______ _______ _______ _____ _____    ______ ____
ROOT
ATOM      1  N   UNL     1       5.559   6.466  17.558  0.00  0.00    +0.000 N 
ATOM      2  H   UNL     1       5.381   7.461  17.448  0.00  0.00    +0.000 HD
ENDROOT
BRANCH   1   5
ATOM      3  C   UNL     1       2.799   7.151  18.012  0.00  0.00    +0.000 C 
ATOM      4  C   UNL     1       3.432   5.825  18.394  0.00  0.00    +0.000 C 
ATOM      5  N   UNL     1       4.685   5.514  18.185  0.00  0.00    +0.000 NA
BRANCH   4   6
ATOM      6  C   UNL     1       2.580   4.824  19.046  0.00  0.00    +0.000 A 
ATOM      7  C   UNL     1       1.533   4.097  18.497  0.00  0.00    +0.000 A 
ATOM      8  C   UNL     1       0.931   3.203  19.435  0.00  0.00    +0.000 A 
ATOM      9  C   UNL     1       1.528   3.265  20.674  0.00  0.00    +0.000 A 
ATOM     10  C   UNL     1       1.200   2.496  21.909  0.00  0.00    +0.000 C 
ATOM     11  S   UNL     1       2.798   4.400  20.696  0.00  0.00    +0.000 S 
ENDBRANCH   4   6
ENDBRANCH   1   5
BRANCH   1  12
ATOM     12  S   UNL     1       7.067   5.999  16.918  0.00  0.00    +0.000 S 
ATOM     13  O   UNL     1       7.823   7.185  16.584  0.00  0.00    +0.000 OA
ATOM     14  O   UNL     1       7.594   5.014  17.843  0.00  0.00    +0.000 OA
BRANCH  12  15
ATOM     15  C   UNL     1       6.639   5.155  15.414  0.00  0.00    +0.000 A 
ATOM     16  C   UNL     1       7.514   5.194  14.324  0.00  0.00    +0.000 A 
ATOM     17  C   UNL     1       7.196   4.495  13.155  0.00  0.00    +0.000 A 
ATOM     18  C   UNL     1       6.016   3.744  13.075  0.00  0.00    +0.000 A 
ATOM     19  C   UNL     1       5.654   3.008  11.817  0.00  0.00    +0.000 C 
ATOM     20  C   UNL     1       5.165   3.686  14.187  0.00  0.00    +0.000 A 
ATOM     21  C   UNL     1       5.476   4.382  15.358  0.00  0.00    +0.000 A 
ENDBRANCH  12  15
ENDBRANCH   1  12
TORSDOF 4
ENDMDL
MODEL 2
REMARK VINA RESULT:      -7.2      0.098      1.084
REMARK  Name = 
REMARK  7 active torsions:
REMARK  status: ('A' for Active; 'I' for Inactive)
REMARK    1  A    between atoms: C_1  and  C_2
REMARK    2  A    between atoms: C_2  and  C_15
REMARK    3  A    between atoms: N_3  and  N_4
REMARK    4  A    between atoms: N_4  and  S_5
REMARK    5  A    between atoms: S_5  and  C_8
REMARK    6  A    between atoms: C_11  and  C_12
REMARK    7  A    between atoms: C_18  and  C_19
REMARK                            x       y       z     vdW  Elec       q    Type
REMARK                         _______ _______ _______ _____ _____    ______ ____
ROOT
ATOM      1  N   UNL     1       5.494   6.431  17.527  0.00  0.00    +0.000 N 
ATOM      2  H   UNL     1       5.286   7.415  17.374  0.00  0.00    +0.000 HD
ENDROOT
BRANCH   1   5
ATOM      3  C   UNL     1       2.756   7.132  18.084  0.00  0.00    +0.000 C 
ATOM      4  C   UNL     1       3.388   5.790  18.414  0.00  0.00    +0.000 C 
ATOM      5  N   UNL     1       4.630   5.473  18.159  0.00  0.00    +0.000 NA
BRANCH   4   6
ATOM      6  C   UNL     1       2.547   4.783  19.070  0.00  0.00    +0.000 A 
ATOM      7  C   UNL     1       1.523   4.026  18.517  0.00  0.00    +0.000 A 
ATOM      8  C   UNL     1       0.925   3.134  19.459  0.00  0.00    +0.000 A 
ATOM      9  C   UNL     1       1.503   3.227  20.706  0.00  0.00    +0.000 A 
ATOM     10  C   UNL     1       1.173   2.470  21.948  0.00  0.00    +0.000 C 
ATOM     11  S   UNL     1       2.750   4.388  20.729  0.00  0.00    +0.000 S 
ENDBRANCH   4   6
ENDBRANCH   1   5
BRANCH   1  12
ATOM     12  S   UNL     1       7.037   5.995  16.955  0.00  0.00    +0.000 S 
ATOM     13  O   UNL     1       7.763   7.193  16.599  0.00  0.00    +0.000 OA
ATOM     14  O   UNL     1       7.566   5.064  17.934  0.00  0.00    +0.000 OA
BRANCH  12  15
ATOM     15  C   UNL     1       6.690   5.079  15.471  0.00  0.00    +0.000 A 
ATOM     16  C   UNL     1       5.577   4.235  15.422  0.00  0.00    +0.000 A 
ATOM     17  C   UNL     1       5.281   3.546  14.241  0.00  0.00    +0.000 A 
ATOM     18  C   UNL     1       6.083   3.710  13.104  0.00  0.00    +0.000 A 
ATOM     19  C   UNL     1       5.788   2.959  11.838  0.00  0.00    +0.000 C 
ATOM     20  C   UNL     1       7.176   4.586  13.157  0.00  0.00    +0.000 A 
ATOM     21  C   UNL     1       7.478   5.276  14.334  0.00  0.00    +0.000 A 
ENDBRANCH  12  15
ENDBRANCH   1  12
TORSDOF 4
ENDMDL
MODEL 3
REMARK VINA RESULT:      -7.2      3.162      6.863
REMARK  Name = 
REMARK  7 active torsions:
REMARK  status: ('A' for Active; 'I' for Inactive)
REMARK    1  A    between atoms: C_1  and  C_2
REMARK    2  A    between atoms: C_2  and  C_15
REMARK    3  A    between atoms: N_3  and  N_4
REMARK    4  A    between atoms: N_4  and  S_5
REMARK    5  A    between atoms: S_5  and  C_8
REMARK    6  A    between atoms: C_11  and  C_12
REMARK    7  A    between atoms: C_18  and  C_19
REMARK                            x       y       z     vdW  Elec       q    Type
REMARK                         _______ _______ _______ _____ _____    ______ ____
ROOT
ATOM      1  N   UNL     1       4.446   2.716  17.947  0.00  0.00    +0.000 N 
ATOM      2  H   UNL     1       4.787   1.841  17.557  0.00  0.00    +0.000 HD
ENDROOT
BRANCH   1   5
ATOM      3  C   UNL     1       5.994   4.058  15.922  0.00  0.00    +0.000 C 
ATOM      4  C   UNL     1       5.953   4.462  17.386  0.00  0.00    +0.000 C 
ATOM      5  N   UNL     1       5.249   3.853  18.303  0.00  0.00    +0.000 NA
BRANCH   4   6
ATOM      6  C   UNL     1       6.765   5.612  17.799  0.00  0.00    +0.000 A 
ATOM      7  C   UNL     1       7.743   5.664  18.783  0.00  0.00    +0.000 A 
ATOM      8  C   UNL     1       8.333   6.960  18.905  0.00  0.00    +0.000 A 
ATOM      9  C   UNL     1       7.797   7.864  18.016  0.00  0.00    +0.000 A 
ATOM     10  C   UNL     1       8.141   9.303  17.823  0.00  0.00    +0.000 C 
ATOM     11  S   UNL     1       6.589   7.148  17.052  0.00  0.00    +0.000 S 
ENDBRANCH   4   6
ENDBRANCH   1   5
BRANCH   1  12
ATOM     12  S   UNL     1       2.758   2.716  18.169  0.00  0.00    +0.000 S 
ATOM     13  O   UNL     1       2.113   2.592  16.881  0.00  0.00    +0.000 OA
ATOM     14  O   UNL     1       2.505   1.755  19.226  0.00  0.00    +0.000 OA
BRANCH  12  15
ATOM     15  C   UNL     1       2.422   4.336  18.820  0.00  0.00    +0.000 A 
ATOM     16  C   UNL     1       2.074   4.484  20.165  0.00  0.00    +0.000 A 
ATOM     17  C   UNL     1       1.849   5.763  20.686  0.00  0.00    +0.000 A 
ATOM     18  C   UNL     1       1.987   6.895  19.872  0.00  0.00    +0.000 A 
ATOM     19  C   UNL     1       1.727   8.271  20.415  0.00  0.00    +0.000 C 
ATOM     20  C   UNL     1       2.371   6.734  18.534  0.00  0.00    +0.000 A 
ATOM     21  C   UNL     1       2.596   5.459  18.007  0.00  0.00    +0.000 A 
ENDBRANCH  12  15
ENDBRANCH   1  12
TORSDOF 4
ENDMDL
MODEL 4
REMARK VINA RESULT:      -7.1      4.279      5.301
REMARK  Name = 
REMARK  7 active torsions:
REMARK  status: ('A' for Active; 'I' for Inactive)
REMARK    1  A    between atoms: C_1  and  C_2
REMARK    2  A    between atoms: C_2  and  C_15
REMARK    3  A    between atoms: N_3  and  N_4
REMARK    4  A    between atoms: N_4  and  S_5
REMARK    5  A    between atoms: S_5  and  C_8
REMARK    6  A    between atoms: C_11  and  C_12
REMARK    7  A    between atoms: C_18  and  C_19
REMARK                            x       y       z     vdW  Elec       q    Type
REMARK                         _______ _______ _______ _____ _____    ______ ____
ROOT
ATOM      1  N   UNL     1       2.551   7.084  18.788  0.00  0.00    +0.000 N 
ATOM      2  H   UNL     1       2.890   7.554  17.952  0.00  0.00    +0.000 HD
ENDROOT
BRANCH   1   5
ATOM      3  C   UNL     1       1.338   9.673  18.434  0.00  0.00    +0.000 C 
ATOM      4  C   UNL     1       1.317   8.880  19.729  0.00  0.00    +0.000 C 
ATOM      5  N   UNL     1       1.866   7.704  19.888  0.00  0.00    +0.000 NA
BRANCH   4   6
ATOM      6  C   UNL     1       0.638   9.478  20.884  0.00  0.00    +0.000 A 
ATOM      7  C   UNL     1       0.485   8.951  22.159  0.00  0.00    +0.000 A 
ATOM      8  C   UNL     1      -0.232   9.824  23.034  0.00  0.00    +0.000 A 
ATOM      9  C   UNL     1      -0.609  10.993  22.413  0.00  0.00    +0.000 A 
ATOM     10  C   UNL     1      -1.360  12.152  22.976  0.00  0.00    +0.000 C 
ATOM     11  S   UNL     1      -0.102  11.025  20.786  0.00  0.00    +0.000 S 
ENDBRANCH   4   6
ENDBRANCH   1   5
BRANCH   1  12
ATOM     12  S   UNL     1       2.895   5.416  18.782  0.00  0.00    +0.000 S 
ATOM     13  O   UNL     1       3.526   5.062  20.034  0.00  0.00    +0.000 OA
ATOM     14  O   UNL     1       1.670   4.768  18.353  0.00  0.00    +0.000 OA
BRANCH  12  15
ATOM     15  C   UNL     1       4.086   5.240  17.475  0.00  0.00    +0.000 A 
ATOM     16  C   UNL     1       4.481   3.963  17.064  0.00  0.00    +0.000 A 
ATOM     17  C   UNL     1       5.387   3.824  16.008  0.00  0.00    +0.000 A 
ATOM     18  C   UNL     1       5.889   4.954  15.350  0.00  0.00    +0.000 A 
ATOM     19  C   UNL     1       6.880   4.818  14.230  0.00  0.00    +0.000 C 
ATOM     20  C   UNL     1       5.459   6.227  15.749  0.00  0.00    +0.000 A 
ATOM     21  C   UNL     1       4.553   6.373  16.804  0.00  0.00    +0.000 A 
ENDBRANCH  12  15
ENDBRANCH   1  12
TORSDOF 4
ENDMDL
MODEL 5
REMARK VINA RESULT:      -7.0      3.393      6.766
REMARK  Name = 
REMARK  7 active torsions:
REMARK  status: ('A' for Active; 'I' for Inactive)
REMARK    1  A    between atoms: C_1  and  C_2
REMARK    2  A    between atoms: C_2  and  C_15
REMARK    3  A    between atoms: N_3  and  N_4
REMARK    4  A    between atoms: N_4  and  S_5
REMARK    5  A    between atoms: S_5  and  C_8
REMARK    6  A    between atoms: C_11  and  C_12
REMARK    7  A    between atoms: C_18  and  C_19
REMARK                            x       y       z     vdW  Elec       q    Type
REMARK                         _______ _______ _______ _____ _____    ______ ____
ROOT
ATOM      1  N   UNL     1       4.125   2.618  19.129  0.00  0.00    +0.000 N 
ATOM      2  H   UNL     1       4.371   1.639  19.005  0.00  0.00    +0.000 HD
ENDROOT
BRANCH   1   5
ATOM      3  C   UNL     1       5.158   3.764  16.697  0.00  0.00    +0.000 C 
ATOM      4  C   UNL     1       5.516   4.239  18.095  0.00  0.00    +0.000 C 
ATOM      5  N   UNL     1       5.045   3.720  19.198  0.00  0.00    +0.000 NA
BRANCH   4   6
ATOM      6  C   UNL     1       6.460   5.356  18.215  0.00  0.00    +0.000 A 
ATOM      7  C   UNL     1       7.627   5.419  18.964  0.00  0.00    +0.000 A 
ATOM      8  C   UNL     1       8.300   6.672  18.832  0.00  0.00    +0.000 A 
ATOM      9  C   UNL     1       7.638   7.535  17.989  0.00  0.00    +0.000 A 
ATOM     10  C   UNL     1       8.012   8.923  17.588  0.00  0.00    +0.000 C 
ATOM     11  S   UNL     1       6.213   6.832  17.372  0.00  0.00    +0.000 S 
ENDBRANCH   4   6
ENDBRANCH   1   5
BRANCH   1  12
ATOM     12  S   UNL     1       2.444   2.854  19.273  0.00  0.00    +0.000 S 
ATOM     13  O   UNL     1       1.792   2.324  18.097  0.00  0.00    +0.000 OA
ATOM     14  O   UNL     1       2.097   2.377  20.598  0.00  0.00    +0.000 OA
BRANCH  12  15
ATOM     15  C   UNL     1       2.269   4.623  19.272  0.00  0.00    +0.000 A 
ATOM     16  C   UNL     1       2.292   5.321  18.062  0.00  0.00    +0.000 A 
ATOM     17  C   UNL     1       2.113   6.708  18.059  0.00  0.00    +0.000 A 
ATOM     18  C   UNL     1       1.894   7.399  19.258  0.00  0.00    +0.000 A 
ATOM     19  C   UNL     1       1.722   8.891  19.269  0.00  0.00    +0.000 C 
ATOM     20  C   UNL     1       1.838   6.681  20.461  0.00  0.00    +0.000 A 
ATOM     21  C   UNL     1       2.017   5.295  20.471  0.00  0.00    +0.000 A 
ENDBRANCH  12  15
ENDBRANCH   1  12
TORSDOF 4
ENDMDL
MODEL 6
REMARK VINA RESULT:      -7.0      3.001      6.746
REMARK  Name = 
REMARK  7 active torsions:
REMARK  status: ('A' for Active; 'I' for Inactive)
REMARK    1  A    between atoms: C_1  and  C_2
REMARK    2  A    between atoms: C_2  and  C_15
REMARK    3  A    between atoms: N_3  and  N_4
REMARK    4  A    between atoms: N_4  and  S_5
REMARK    5  A    between atoms: S_5  and  C_8
REMARK    6  A    between atoms: C_11  and  C_12
REMARK    7  A    between atoms: C_18  and  C_19
REMARK                            x       y       z     vdW  Elec       q    Type
REMARK                         _______ _______ _______ _____ _____    ______ ____
ROOT
ATOM      1  N   UNL     1       3.968   3.497  19.859  0.00  0.00    +0.000 N 
ATOM      2  H   UNL     1       4.470   3.207  20.695  0.00  0.00    +0.000 HD
ENDROOT
BRANCH   1   5
ATOM      3  C   UNL     1       6.095   5.348  19.271  0.00  0.00    +0.000 C 
ATOM      4  C   UNL     1       5.471   4.402  18.260  0.00  0.00    +0.000 C 
ATOM      5  N   UNL     1       4.507   3.561  18.529  0.00  0.00    +0.000 NA
BRANCH   4   6
ATOM      6  C   UNL     1       5.982   4.438  16.886  0.00  0.00    +0.000 A 
ATOM      7  C   UNL     1       7.111   5.087  16.405  0.00  0.00    +0.000 A 
ATOM      8  C   UNL     1       7.303   4.895  15.003  0.00  0.00    +0.000 A 
ATOM      9  C   UNL     1       6.323   4.105  14.444  0.00  0.00    +0.000 A 
ATOM     10  C   UNL     1       6.168   3.669  13.026  0.00  0.00    +0.000 C 
ATOM     11  S   UNL     1       5.182   3.612  15.610  0.00  0.00    +0.000 S 
ENDBRANCH   4   6
ENDBRANCH   1   5
BRANCH   1  12
ATOM     12  S   UNL     1       2.357   3.941  20.187  0.00  0.00    +0.000 S 
ATOM     13  O   UNL     1       1.472   3.123  19.388  0.00  0.00    +0.000 OA
ATOM     14  O   UNL     1       2.247   3.967  21.634  0.00  0.00    +0.000 OA
BRANCH  12  15
ATOM     15  C   UNL     1       2.259   5.618  19.607  0.00  0.00    +0.000 A 
ATOM     16  C   UNL     1       2.416   5.892  18.246  0.00  0.00    +0.000 A 
ATOM     17  C   UNL     1       2.298   7.207  17.785  0.00  0.00    +0.000 A 
ATOM     18  C   UNL     1       2.008   8.248  18.676  0.00  0.00    +0.000 A 
ATOM     19  C   UNL     1       1.901   9.667  18.195  0.00  0.00    +0.000 C 
ATOM     20  C   UNL     1       1.819   7.955  20.033  0.00  0.00    +0.000 A 
ATOM     21  C   UNL     1       1.936   6.643  20.501  0.00  0.00    +0.000 A 
ENDBRANCH  12  15
ENDBRANCH   1  12
TORSDOF 4
ENDMDL
MODEL 7
REMARK VINA RESULT:      -7.0      2.654      4.225
REMARK  Name = 
REMARK  7 active torsions:
REMARK  status: ('A' for Active; 'I' for Inactive)
REMARK    1  A    between atoms: C_1  and  C_2
REMARK    2  A    between atoms: C_2  and  C_15
REMARK    3  A    between atoms: N_3  and  N_4
REMARK    4  A    between atoms: N_4  and  S_5
REMARK    5  A    between atoms: S_5  and  C_8
REMARK    6  A    between atoms: C_11  and  C_12
REMARK    7  A    between atoms: C_18  and  C_19
REMARK                            x       y       z     vdW  Elec       q    Type
REMARK                         _______ _______ _______ _____ _____    ______ ____
ROOT
ATOM      1  N   UNL     1       3.642   4.882  18.971  0.00  0.00    +0.000 N 
ATOM      2  H   UNL     1       3.048   4.061  19.063  0.00  0.00    +0.000 HD
ENDROOT
BRANCH   1   5
ATOM      3  C   UNL     1       1.632   5.959  20.732  0.00  0.00    +0.000 C 
ATOM      4  C   UNL     1       2.280   6.725  19.591  0.00  0.00    +0.000 C 
ATOM      5  N   UNL     1       3.193   6.235  18.794  0.00  0.00    +0.000 NA
BRANCH   4   6
ATOM      6  C   UNL     1       1.847   8.108  19.364  0.00  0.00    +0.000 A 
ATOM      7  C   UNL     1       1.969   8.869  18.210  0.00  0.00    +0.000 A 
ATOM      8  C   UNL     1       1.424  10.182  18.355  0.00  0.00    +0.000 A 
ATOM      9  C   UNL     1       0.897  10.394  19.609  0.00  0.00    +0.000 A 
ATOM     10  C   UNL     1       0.237  11.616  20.152  0.00  0.00    +0.000 C 
ATOM     11  S   UNL     1       1.071   9.017  20.598  0.00  0.00    +0.000 S 
ENDBRANCH   4   6
ENDBRANCH   1   5
BRANCH   1  12
ATOM     12  S   UNL     1       5.299   4.496  19.033  0.00  0.00    +0.000 S 
ATOM     13  O   UNL     1       6.012   5.582  19.667  0.00  0.00    +0.000 OA
ATOM     14  O   UNL     1       5.366   3.148  19.565  0.00  0.00    +0.000 OA
BRANCH  12  15
ATOM     15  C   UNL     1       5.776   4.425  17.322  0.00  0.00    +0.000 A 
ATOM     16  C   UNL     1       4.828   4.088  16.351  0.00  0.00    +0.000 A 
ATOM     17  C   UNL     1       5.194   4.072  15.002  0.00  0.00    +0.000 A 
ATOM     18  C   UNL     1       6.497   4.409  14.615  0.00  0.00    +0.000 A 
ATOM     19  C   UNL     1       6.907   4.375  13.171  0.00  0.00    +0.000 C 
ATOM     20  C   UNL     1       7.428   4.780  15.595  0.00  0.00    +0.000 A 
ATOM     21  C   UNL     1       7.070   4.797  16.946  0.00  0.00    +0.000 A 
ENDBRANCH  12  15
ENDBRANCH   1  12
TORSDOF 4
ENDMDL
MODEL 8
REMARK VINA RESULT:      -7.0      2.929      4.052
REMARK  Name = 
REMARK  7 active torsions:
REMARK  status: ('A' for Active; 'I' for Inactive)
REMARK    1  A    between atoms: C_1  and  C_2
REMARK    2  A    between atoms: C_2  and  C_15
REMARK    3  A    between atoms: N_3  and  N_4
REMARK    4  A    between atoms: N_4  and  S_5
REMARK    5  A    between atoms: S_5  and  C_8
REMARK    6  A    between atoms: C_11  and  C_12
REMARK    7  A    between atoms: C_18  and  C_19
REMARK                            x       y       z     vdW  Elec       q    Type
REMARK                         _______ _______ _______ _____ _____    ______ ____
ROOT
ATOM      1  N   UNL     1       3.269   4.723  18.832  0.00  0.00    +0.000 N 
ATOM      2  H   UNL     1       2.853   4.089  18.154  0.00  0.00    +0.000 HD
ENDROOT
BRANCH   1   5
ATOM      3  C   UNL     1       3.104   7.377  17.727  0.00  0.00    +0.000 C 
ATOM      4  C   UNL     1       2.508   6.959  19.060  0.00  0.00    +0.000 C 
ATOM      5  N   UNL     1       2.582   5.753  19.560  0.00  0.00    +0.000 NA
BRANCH   4   6
ATOM      6  C   UNL     1       1.804   7.981  19.844  0.00  0.00    +0.000 A 
ATOM      7  C   UNL     1       1.484   7.959  21.194  0.00  0.00    +0.000 A 
ATOM      8  C   UNL     1       0.798   9.139  21.617  0.00  0.00    +0.000 A 
ATOM      9  C   UNL     1       0.611  10.032  20.587  0.00  0.00    +0.000 A 
ATOM     10  C   UNL     1      -0.050  11.370  20.616  0.00  0.00    +0.000 C 
ATOM     11  S   UNL     1       1.254   9.440  19.124  0.00  0.00    +0.000 S 
ENDBRANCH   4   6
ENDBRANCH   1   5
BRANCH   1  12
ATOM     12  S   UNL     1       4.940   4.458  19.032  0.00  0.00    +0.000 S 
ATOM     13  O   UNL     1       5.503   5.556  19.786  0.00  0.00    +0.000 OA
ATOM     14  O   UNL     1       5.064   3.090  19.499  0.00  0.00    +0.000 OA
BRANCH  12  15
ATOM     15  C   UNL     1       5.575   4.523  17.373  0.00  0.00    +0.000 A 
ATOM     16  C   UNL     1       6.939   4.740  17.161  0.00  0.00    +0.000 A 
ATOM     17  C   UNL     1       7.444   4.750  15.857  0.00  0.00    +0.000 A 
ATOM     18  C   UNL     1       6.596   4.528  14.764  0.00  0.00    +0.000 A 
ATOM     19  C   UNL     1       7.123   4.558  13.359  0.00  0.00    +0.000 C 
ATOM     20  C   UNL     1       5.236   4.277  14.994  0.00  0.00    +0.000 A 
ATOM     21  C   UNL     1       4.724   4.267  16.294  0.00  0.00    +0.000 A 
ENDBRANCH  12  15
ENDBRANCH   1  12
TORSDOF 4
ENDMDL
MODEL 9
REMARK VINA RESULT:      -6.9      2.798      4.485
REMARK  Name = 
REMARK  7 active torsions:
REMARK  status: ('A' for Active; 'I' for Inactive)
REMARK    1  A    between atoms: C_1  and  C_2
REMARK    2  A    between atoms: C_2  and  C_15
REMARK    3  A    between atoms: N_3  and  N_4
REMARK    4  A    between atoms: N_4  and  S_5
REMARK    5  A    between atoms: S_5  and  C_8
REMARK    6  A    between atoms: C_11  and  C_12
REMARK    7  A    between atoms: C_18  and  C_19
REMARK                            x       y       z     vdW  Elec       q    Type
REMARK                         _______ _______ _______ _____ _____    ______ ____
ROOT
ATOM      1  N   UNL     1       4.209   5.034  19.983  0.00  0.00    +0.000 N 
ATOM      2  H   UNL     1       4.591   4.895  20.915  0.00  0.00    +0.000 HD
ENDROOT
BRANCH   1   5
ATOM      3  C   UNL     1       1.567   5.891  20.747  0.00  0.00    +0.000 C 
ATOM      4  C   UNL     1       2.483   6.653  19.804  0.00  0.00    +0.000 C 
ATOM      5  N   UNL     1       3.682   6.264  19.459  0.00  0.00    +0.000 NA
BRANCH   4   6
ATOM      6  C   UNL     1       1.984   7.910  19.236  0.00  0.00    +0.000 A 
ATOM      7  C   UNL     1       2.151   8.397  17.947  0.00  0.00    +0.000 A 
ATOM      8  C   UNL     1       1.515   9.661  17.748  0.00  0.00    +0.000 A 
ATOM      9  C   UNL     1       0.878  10.110  18.883  0.00  0.00    +0.000 A 
ATOM     10  C   UNL     1       0.102  11.368  19.085  0.00  0.00    +0.000 C 
ATOM     11  S   UNL     1       1.057   9.012  20.173  0.00  0.00    +0.000 S 
ENDBRANCH   4   6
ENDBRANCH   1   5
BRANCH   1  12
ATOM     12  S   UNL     1       4.231   3.609  19.051  0.00  0.00    +0.000 S 
ATOM     13  O   UNL     1       4.979   2.595  19.759  0.00  0.00    +0.000 OA
ATOM     14  O   UNL     1       2.853   3.381  18.656  0.00  0.00    +0.000 OA
BRANCH  12  15
ATOM     15  C   UNL     1       5.140   4.074  17.597  0.00  0.00    +0.000 A 
ATOM     16  C   UNL     1       6.477   4.467  17.711  0.00  0.00    +0.000 A 
ATOM     17  C   UNL     1       7.203   4.795  16.561  0.00  0.00    +0.000 A 
ATOM     18  C   UNL     1       6.606   4.714  15.297  0.00  0.00    +0.000 A 
ATOM     19  C   UNL     1       7.370   5.084  14.058  0.00  0.00    +0.000 C 
ATOM     20  C   UNL     1       5.276   4.285  15.194  0.00  0.00    +0.000 A 
ATOM     21  C   UNL     1       4.543   3.957  16.339  0.00  0.00    +0.000 A 
ENDBRANCH  12  15
ENDBRANCH   1  12
TORSDOF 4
ENDMDL
