MODEL 1
REMARK VINA RESULT:      -8.2      0.000      0.000
REMARK  Name = 
REMARK  5 active torsions:
REMARK  status: ('A' for Active; 'I' for Inactive)
REMARK    1  A    between atoms: C_2  and  C_3
REMARK    2  A    between atoms: C_3  and  C_4
REMARK    3  A    between atoms: C_4  and  C_5
REMARK    4  A    between atoms: C_5  and  C_6
REMARK    5  A    between atoms: C_6  and  C_8
REMARK                            x       y       z     vdW  Elec       q    Type
REMARK                         _______ _______ _______ _____ _____    ______ ____
ROOT
ATOM      1  O   UNL     1       7.790   5.866  15.594  0.00  0.00    +0.000 OA
ATOM      2  C   UNL     1       6.860   5.959  16.402  0.00  0.00    +0.000 C 
ATOM      3  N   UNL     1       5.999   4.908  16.490  0.00  0.00    +0.000 N 
ATOM      4  C   UNL     1       4.968   4.772  17.369  0.00  0.00    +0.000 A 
ATOM      5  N   UNL     1       4.652   5.537  18.377  0.00  0.00    +0.000 NA
ATOM      6  C   UNL     1       3.529   5.033  19.005  0.00  0.00    +0.000 A 
ATOM      7  C   UNL     1       2.904   5.591  20.138  0.00  0.00    +0.000 A 
ATOM      8  C   UNL     1       1.771   4.975  20.674  0.00  0.00    +0.000 A 
ATOM      9  C   UNL     1       1.263   3.825  20.085  0.00  0.00    +0.000 A 
ATOM     10  F   UNL     1       0.176   3.249  20.615  0.00  0.00    +0.000 F 
ATOM     11  C   UNL     1       1.853   3.249  18.961  0.00  0.00    +0.000 A 
ATOM     12  C   UNL     1       2.998   3.869  18.439  0.00  0.00    +0.000 A 
ATOM     13  S   UNL     1       3.980   3.411  17.096  0.00  0.00    +0.000 S 
ATOM     14  H   UNL     1       6.157   4.156  15.834  0.00  0.00    +0.000 HD
ENDROOT
BRANCH   2  15
ATOM     15  C   UNL     1       6.664   7.211  17.250  0.00  0.00    +0.000 C 
BRANCH  15  16
ATOM     16  C   UNL     1       7.992   7.836  17.694  0.00  0.00    +0.000 C 
BRANCH  16  17
ATOM     17  C   UNL     1       7.870   9.361  17.767  0.00  0.00    +0.000 C 
BRANCH  17  18
ATOM     18  C   UNL     1       8.929  10.020  18.630  0.00  0.00    +0.000 C 
ATOM     19  O   UNL     1       9.260   9.585  19.730  0.00  0.00    +0.000 OA
BRANCH  18  20
ATOM     20  C   UNL     1       9.524  11.298  18.134  0.00  0.00    +0.000 A 
ATOM     21  C   UNL     1      10.904  11.345  17.901  0.00  0.00    +0.000 A 
ATOM     22  C   UNL     1      11.503  12.528  17.463  0.00  0.00    +0.000 A 
ATOM     23  C   UNL     1      10.727  13.665  17.244  0.00  0.00    +0.000 A 
ATOM     24  C   UNL     1       9.350  13.622  17.462  0.00  0.00    +0.000 A 
ATOM     25  C   UNL     1       8.750  12.443  17.907  0.00  0.00    +0.000 A 
ENDBRANCH  18  20
ENDBRANCH  17  18
ENDBRANCH  16  17
ENDBRANCH  15  16
ENDBRANCH   2  15
TORSDOF 5
ENDMDL
MODEL 2
REMARK VINA RESULT:      -7.9      5.530      8.243
REMARK  Name = 
REMARK  5 active torsions:
REMARK  status: ('A' for Active; 'I' for Inactive)
REMARK    1  A    between atoms: C_2  and  C_3
REMARK    2  A    between atoms: C_3  and  C_4
REMARK    3  A    between atoms: C_4  and  C_5
REMARK    4  A    between atoms: C_5  and  C_6
REMARK    5  A    between atoms: C_6  and  C_8
REMARK                            x       y       z     vdW  Elec       q    Type
REMARK                         _______ _______ _______ _____ _____    ______ ____
ROOT
ATOM      1  O   UNL     1       4.753   6.116  16.639  0.00  0.00    +0.000 OA
ATOM      2  C   UNL     1       4.140   6.492  17.644  0.00  0.00    +0.000 C 
ATOM      3  N   UNL     1       3.313   7.566  17.508  0.00  0.00    +0.000 N 
ATOM      4  C   UNL     1       2.489   8.084  18.460  0.00  0.00    +0.000 A 
ATOM      5  N   UNL     1       2.218   7.611  19.645  0.00  0.00    +0.000 NA
ATOM      6  C   UNL     1       1.330   8.454  20.285  0.00  0.00    +0.000 A 
ATOM      7  C   UNL     1       0.804   8.261  21.579  0.00  0.00    +0.000 A 
ATOM      8  C   UNL     1      -0.090   9.197  22.107  0.00  0.00    +0.000 A 
ATOM      9  C   UNL     1      -0.448  10.311  21.361  0.00  0.00    +0.000 A 
ATOM     10  F   UNL     1      -1.307  11.195  21.884  0.00  0.00    +0.000 F 
ATOM     11  C   UNL     1       0.056  10.536  20.080  0.00  0.00    +0.000 A 
ATOM     12  C   UNL     1       0.943   9.584  19.556  0.00  0.00    +0.000 A 
ATOM     13  S   UNL     1       1.719   9.537  18.015  0.00  0.00    +0.000 S 
ATOM     14  H   UNL     1       3.319   8.011  16.601  0.00  0.00    +0.000 HD
ENDROOT
BRANCH   2  15
ATOM     15  C   UNL     1       4.318   5.801  18.990  0.00  0.00    +0.000 C 
BRANCH  15  16
ATOM     16  C   UNL     1       5.589   4.945  19.051  0.00  0.00    +0.000 C 
BRANCH  16  17
ATOM     17  C   UNL     1       5.285   3.500  18.645  0.00  0.00    +0.000 C 
BRANCH  17  18
ATOM     18  C   UNL     1       4.600   2.689  19.729  0.00  0.00    +0.000 C 
ATOM     19  O   UNL     1       5.211   1.950  20.495  0.00  0.00    +0.000 OA
BRANCH  18  20
ATOM     20  C   UNL     1       3.109   2.748  19.794  0.00  0.00    +0.000 A 
ATOM     21  C   UNL     1       2.377   2.419  18.647  0.00  0.00    +0.000 A 
ATOM     22  C   UNL     1       0.982   2.488  18.658  0.00  0.00    +0.000 A 
ATOM     23  C   UNL     1       0.311   2.874  19.818  0.00  0.00    +0.000 A 
ATOM     24  C   UNL     1       1.033   3.192  20.968  0.00  0.00    +0.000 A 
ATOM     25  C   UNL     1       2.427   3.131  20.957  0.00  0.00    +0.000 A 
ENDBRANCH  18  20
ENDBRANCH  17  18
ENDBRANCH  16  17
ENDBRANCH  15  16
ENDBRANCH   2  15
TORSDOF 5
ENDMDL
MODEL 3
REMARK VINA RESULT:      -7.9      5.896      8.396
REMARK  Name = 
REMARK  5 active torsions:
REMARK  status: ('A' for Active; 'I' for Inactive)
REMARK    1  A    between atoms: C_2  and  C_3
REMARK    2  A    between atoms: C_3  and  C_4
REMARK    3  A    between atoms: C_4  and  C_5
REMARK    4  A    between atoms: C_5  and  C_6
REMARK    5  A    between atoms: C_6  and  C_8
REMARK                            x       y       z     vdW  Elec       q    Type
REMARK                         _______ _______ _______ _____ _____    ______ ____
ROOT
ATOM      1  O   UNL     1       4.938   3.219  19.930  0.00  0.00    +0.000 OA
ATOM      2  C   UNL     1       4.942   3.259  18.695  0.00  0.00    +0.000 C 
ATOM      3  N   UNL     1       5.905   4.013  18.095  0.00  0.00    +0.000 N 
ATOM      4  C   UNL     1       6.137   4.122  16.758  0.00  0.00    +0.000 A 
ATOM      5  N   UNL     1       5.587   3.458  15.780  0.00  0.00    +0.000 NA
ATOM      6  C   UNL     1       6.113   3.887  14.577  0.00  0.00    +0.000 A 
ATOM      7  C   UNL     1       5.764   3.389  13.305  0.00  0.00    +0.000 A 
ATOM      8  C   UNL     1       6.379   3.916  12.166  0.00  0.00    +0.000 A 
ATOM      9  C   UNL     1       7.320   4.928  12.291  0.00  0.00    +0.000 A 
ATOM     10  F   UNL     1       7.898   5.418  11.187  0.00  0.00    +0.000 F 
ATOM     11  C   UNL     1       7.686   5.447  13.533  0.00  0.00    +0.000 A 
ATOM     12  C   UNL     1       7.072   4.902  14.671  0.00  0.00    +0.000 A 
ATOM     13  S   UNL     1       7.310   5.284  16.337  0.00  0.00    +0.000 S 
ATOM     14  H   UNL     1       6.505   4.534  18.719  0.00  0.00    +0.000 HD
ENDROOT
BRANCH   2  15
ATOM     15  C   UNL     1       3.895   2.518  17.872  0.00  0.00    +0.000 C 
BRANCH  15  16
ATOM     16  C   UNL     1       2.943   1.686  18.738  0.00  0.00    +0.000 C 
BRANCH  16  17
ATOM     17  C   UNL     1       1.539   2.299  18.735  0.00  0.00    +0.000 C 
BRANCH  17  18
ATOM     18  C   UNL     1       1.309   3.313  19.839  0.00  0.00    +0.000 C 
ATOM     19  O   UNL     1       0.795   3.021  20.916  0.00  0.00    +0.000 OA
BRANCH  18  20
ATOM     20  C   UNL     1       1.657   4.736  19.551  0.00  0.00    +0.000 A 
ATOM     21  C   UNL     1       1.824   5.125  18.216  0.00  0.00    +0.000 A 
ATOM     22  C   UNL     1       2.177   6.440  17.905  0.00  0.00    +0.000 A 
ATOM     23  C   UNL     1       2.353   7.376  18.924  0.00  0.00    +0.000 A 
ATOM     24  C   UNL     1       2.176   6.999  20.255  0.00  0.00    +0.000 A 
ATOM     25  C   UNL     1       1.831   5.683  20.569  0.00  0.00    +0.000 A 
ENDBRANCH  18  20
ENDBRANCH  17  18
ENDBRANCH  16  17
ENDBRANCH  15  16
ENDBRANCH   2  15
TORSDOF 5
ENDMDL
MODEL 4
REMARK VINA RESULT:      -7.7      4.000      6.822
REMARK  Name = 
REMARK  5 active torsions:
REMARK  status: ('A' for Active; 'I' for Inactive)
REMARK    1  A    between atoms: C_2  and  C_3
REMARK    2  A    between atoms: C_3  and  C_4
REMARK    3  A    between atoms: C_4  and  C_5
REMARK    4  A    between atoms: C_5  and  C_6
REMARK    5  A    between atoms: C_6  and  C_8
REMARK                            x       y       z     vdW  Elec       q    Type
REMARK                         _______ _______ _______ _____ _____    ______ ____
ROOT
ATOM      1  O   UNL     1       7.746   7.249  17.072  0.00  0.00    +0.000 OA
ATOM      2  C   UNL     1       7.031   6.273  17.320  0.00  0.00    +0.000 C 
ATOM      3  N   UNL     1       5.760   6.519  17.744  0.00  0.00    +0.000 N 
ATOM      4  C   UNL     1       4.790   5.594  17.987  0.00  0.00    +0.000 A 
ATOM      5  N   UNL     1       4.815   4.311  17.760  0.00  0.00    +0.000 NA
ATOM      6  C   UNL     1       3.618   3.748  18.158  0.00  0.00    +0.000 A 
ATOM      7  C   UNL     1       3.280   2.383  18.057  0.00  0.00    +0.000 A 
ATOM      8  C   UNL     1       2.028   1.948  18.500  0.00  0.00    +0.000 A 
ATOM      9  C   UNL     1       1.130   2.857  19.043  0.00  0.00    +0.000 A 
ATOM     10  F   UNL     1      -0.065   2.421  19.460  0.00  0.00    +0.000 F 
ATOM     11  C   UNL     1       1.433   4.213  19.162  0.00  0.00    +0.000 A 
ATOM     12  C   UNL     1       2.688   4.641  18.702  0.00  0.00    +0.000 A 
ATOM     13  S   UNL     1       3.365   6.228  18.672  0.00  0.00    +0.000 S 
ATOM     14  H   UNL     1       5.526   7.491  17.883  0.00  0.00    +0.000 HD
ENDROOT
BRANCH   2  15
ATOM     15  C   UNL     1       7.554   4.848  17.184  0.00  0.00    +0.000 C 
BRANCH  15  16
ATOM     16  C   UNL     1       7.142   4.192  15.861  0.00  0.00    +0.000 C 
BRANCH  16  17
ATOM     17  C   UNL     1       6.758   5.256  14.829  0.00  0.00    +0.000 C 
BRANCH  17  18
ATOM     18  C   UNL     1       7.343   5.014  13.451  0.00  0.00    +0.000 C 
ATOM     19  O   UNL     1       8.241   5.705  12.977  0.00  0.00    +0.000 OA
BRANCH  18  20
ATOM     20  C   UNL     1       6.729   3.933  12.622  0.00  0.00    +0.000 A 
ATOM     21  C   UNL     1       5.334   3.820  12.600  0.00  0.00    +0.000 A 
ATOM     22  C   UNL     1       4.722   2.806  11.860  0.00  0.00    +0.000 A 
ATOM     23  C   UNL     1       5.500   1.908  11.129  0.00  0.00    +0.000 A 
ATOM     24  C   UNL     1       6.889   2.022  11.136  0.00  0.00    +0.000 A 
ATOM     25  C   UNL     1       7.504   3.030  11.882  0.00  0.00    +0.000 A 
ENDBRANCH  18  20
ENDBRANCH  17  18
ENDBRANCH  16  17
ENDBRANCH  15  16
ENDBRANCH   2  15
TORSDOF 5
ENDMDL
MODEL 5
REMARK VINA RESULT:      -7.7      5.994      8.145
REMARK  Name = 
REMARK  5 active torsions:
REMARK  status: ('A' for Active; 'I' for Inactive)
REMARK    1  A    between atoms: C_2  and  C_3
REMARK    2  A    between atoms: C_3  and  C_4
REMARK    3  A    between atoms: C_4  and  C_5
REMARK    4  A    between atoms: C_5  and  C_6
REMARK    5  A    between atoms: C_6  and  C_8
REMARK                            x       y       z     vdW  Elec       q    Type
REMARK                         _______ _______ _______ _____ _____    ______ ____
ROOT
ATOM      1  O   UNL     1       3.057   6.744  17.850  0.00  0.00    +0.000 OA
ATOM      2  C   UNL     1       2.499   7.212  18.848  0.00  0.00    +0.000 C 
ATOM      3  N   UNL     1       1.973   8.464  18.743  0.00  0.00    +0.000 N 
ATOM      4  C   UNL     1       1.249   9.124  19.689  0.00  0.00    +0.000 A 
ATOM      5  N   UNL     1       0.802   8.678  20.829  0.00  0.00    +0.000 NA
ATOM      6  C   UNL     1       0.115   9.684  21.481  0.00  0.00    +0.000 A 
ATOM      7  C   UNL     1      -0.515   9.565  22.737  0.00  0.00    +0.000 A 
ATOM      8  C   UNL     1      -1.179  10.668  23.281  0.00  0.00    +0.000 A 
ATOM      9  C   UNL     1      -1.208  11.871  22.590  0.00  0.00    +0.000 A 
ATOM     10  F   UNL     1      -1.851  12.915  23.129  0.00  0.00    +0.000 F 
ATOM     11  C   UNL     1      -0.592  12.024  21.349  0.00  0.00    +0.000 A 
ATOM     12  C   UNL     1       0.061  10.908  20.806  0.00  0.00    +0.000 A 
ATOM     13  S   UNL     1       0.888  10.743  19.300  0.00  0.00    +0.000 S 
ATOM     14  H   UNL     1       2.140   8.937  17.866  0.00  0.00    +0.000 HD
ENDROOT
BRANCH   2  15
ATOM     15  C   UNL     1       2.424   6.434  20.156  0.00  0.00    +0.000 C 
BRANCH  15  16
ATOM     16  C   UNL     1       1.678   5.102  20.008  0.00  0.00    +0.000 C 
BRANCH  16  17
ATOM     17  C   UNL     1       2.564   3.937  20.460  0.00  0.00    +0.000 C 
BRANCH  17  18
ATOM     18  C   UNL     1       3.037   3.049  19.324  0.00  0.00    +0.000 C 
ATOM     19  O   UNL     1       2.618   1.908  19.151  0.00  0.00    +0.000 OA
BRANCH  18  20
ATOM     20  C   UNL     1       4.118   3.580  18.440  0.00  0.00    +0.000 A 
ATOM     21  C   UNL     1       5.252   4.144  19.038  0.00  0.00    +0.000 A 
ATOM     22  C   UNL     1       6.272   4.676  18.247  0.00  0.00    +0.000 A 
ATOM     23  C   UNL     1       6.171   4.637  16.856  0.00  0.00    +0.000 A 
ATOM     24  C   UNL     1       5.051   4.066  16.254  0.00  0.00    +0.000 A 
ATOM     25  C   UNL     1       4.026   3.541  17.043  0.00  0.00    +0.000 A 
ENDBRANCH  18  20
ENDBRANCH  17  18
ENDBRANCH  16  17
ENDBRANCH  15  16
ENDBRANCH   2  15
TORSDOF 5
ENDMDL
MODEL 6
REMARK VINA RESULT:      -7.6      6.024      8.797
REMARK  Name = 
REMARK  5 active torsions:
REMARK  status: ('A' for Active; 'I' for Inactive)
REMARK    1  A    between atoms: C_2  and  C_3
REMARK    2  A    between atoms: C_3  and  C_4
REMARK    3  A    between atoms: C_4  and  C_5
REMARK    4  A    between atoms: C_5  and  C_6
REMARK    5  A    between atoms: C_6  and  C_8
REMARK                            x       y       z     vdW  Elec       q    Type
REMARK                         _______ _______ _______ _____ _____    ______ ____
ROOT
ATOM      1  O   UNL     1       3.272   7.877  16.554  0.00  0.00    +0.000 OA
ATOM      2  C   UNL     1       2.771   8.025  17.674  0.00  0.00    +0.000 C 
ATOM      3  N   UNL     1       2.165   9.216  17.937  0.00  0.00    +0.000 N 
ATOM      4  C   UNL     1       1.483   9.549  19.067  0.00  0.00    +0.000 A 
ATOM      5  N   UNL     1       1.157   8.788  20.074  0.00  0.00    +0.000 NA
ATOM      6  C   UNL     1       0.467   9.534  21.012  0.00  0.00    +0.000 A 
ATOM      7  C   UNL     1      -0.051   9.044  22.228  0.00  0.00    +0.000 A 
ATOM      8  C   UNL     1      -0.732   9.912  23.086  0.00  0.00    +0.000 A 
ATOM      9  C   UNL     1      -0.887  11.248  22.742  0.00  0.00    +0.000 A 
ATOM     10  F   UNL     1      -1.544  12.062  23.577  0.00  0.00    +0.000 F 
ATOM     11  C   UNL     1      -0.383  11.766  21.549  0.00  0.00    +0.000 A 
ATOM     12  C   UNL     1       0.287  10.883  20.689  0.00  0.00    +0.000 A 
ATOM     13  S   UNL     1       0.997  11.181  19.145  0.00  0.00    +0.000 S 
ATOM     14  H   UNL     1       2.233   9.912  17.208  0.00  0.00    +0.000 HD
ENDROOT
BRANCH   2  15
ATOM     15  C   UNL     1       2.847   6.930  18.730  0.00  0.00    +0.000 C 
BRANCH  15  16
ATOM     16  C   UNL     1       4.014   5.963  18.496  0.00  0.00    +0.000 C 
BRANCH  16  17
ATOM     17  C   UNL     1       3.636   4.905  17.455  0.00  0.00    +0.000 C 
BRANCH  17  18
ATOM     18  C   UNL     1       3.616   3.489  17.998  0.00  0.00    +0.000 C 
ATOM     19  O   UNL     1       4.166   2.550  17.431  0.00  0.00    +0.000 OA
BRANCH  18  20
ATOM     20  C   UNL     1       2.819   3.238  19.237  0.00  0.00    +0.000 A 
ATOM     21  C   UNL     1       1.430   3.411  19.183  0.00  0.00    +0.000 A 
ATOM     22  C   UNL     1       0.653   3.213  20.327  0.00  0.00    +0.000 A 
ATOM     23  C   UNL     1       1.255   2.829  21.524  0.00  0.00    +0.000 A 
ATOM     24  C   UNL     1       2.636   2.643  21.581  0.00  0.00    +0.000 A 
ATOM     25  C   UNL     1       3.417   2.848  20.442  0.00  0.00    +0.000 A 
ENDBRANCH  18  20
ENDBRANCH  17  18
ENDBRANCH  16  17
ENDBRANCH  15  16
ENDBRANCH   2  15
TORSDOF 5
ENDMDL
MODEL 7
REMARK VINA RESULT:      -7.6      5.452      8.161
REMARK  Name = 
REMARK  5 active torsions:
REMARK  status: ('A' for Active; 'I' for Inactive)
REMARK    1  A    between atoms: C_2  and  C_3
REMARK    2  A    between atoms: C_3  and  C_4
REMARK    3  A    between atoms: C_4  and  C_5
REMARK    4  A    between atoms: C_5  and  C_6
REMARK    5  A    between atoms: C_6  and  C_8
REMARK                            x       y       z     vdW  Elec       q    Type
REMARK                         _______ _______ _______ _____ _____    ______ ____
ROOT
ATOM      1  O   UNL     1       4.603   6.533  16.396  0.00  0.00    +0.000 OA
ATOM      2  C   UNL     1       4.022   6.831  17.445  0.00  0.00    +0.000 C 
ATOM      3  N   UNL     1       3.171   7.894  17.409  0.00  0.00    +0.000 N 
ATOM      4  C   UNL     1       2.374   8.332  18.422  0.00  0.00    +0.000 A 
ATOM      5  N   UNL     1       2.157   7.780  19.583  0.00  0.00    +0.000 NA
ATOM      6  C   UNL     1       1.278   8.561  20.309  0.00  0.00    +0.000 A 
ATOM      7  C   UNL     1       0.806   8.274  21.606  0.00  0.00    +0.000 A 
ATOM      8  C   UNL     1      -0.085   9.155  22.225  0.00  0.00    +0.000 A 
ATOM      9  C   UNL     1      -0.493  10.307  21.567  0.00  0.00    +0.000 A 
ATOM     10  F   UNL     1      -1.348  11.137  22.177  0.00  0.00    +0.000 F 
ATOM     11  C   UNL     1      -0.042  10.623  20.285  0.00  0.00    +0.000 A 
ATOM     12  C   UNL     1       0.842   9.726  19.668  0.00  0.00    +0.000 A 
ATOM     13  S   UNL     1       1.560   9.794  18.100  0.00  0.00    +0.000 S 
ATOM     14  H   UNL     1       3.134   8.396  16.533  0.00  0.00    +0.000 HD
ENDROOT
BRANCH   2  15
ATOM     15  C   UNL     1       4.264   6.059  18.736  0.00  0.00    +0.000 C 
BRANCH  15  16
ATOM     16  C   UNL     1       5.619   5.342  18.750  0.00  0.00    +0.000 C 
BRANCH  16  17
ATOM     17  C   UNL     1       5.432   3.834  18.557  0.00  0.00    +0.000 C 
BRANCH  17  18
ATOM     18  C   UNL     1       4.015   3.433  18.191  0.00  0.00    +0.000 C 
ATOM     19  O   UNL     1       3.625   3.349  17.030  0.00  0.00    +0.000 OA
BRANCH  18  20
ATOM     20  C   UNL     1       3.052   3.212  19.311  0.00  0.00    +0.000 A 
ATOM     21  C   UNL     1       1.701   3.516  19.099  0.00  0.00    +0.000 A 
ATOM     22  C   UNL     1       0.773   3.350  20.129  0.00  0.00    +0.000 A 
ATOM     23  C   UNL     1       1.185   2.869  21.371  0.00  0.00    +0.000 A 
ATOM     24  C   UNL     1       2.526   2.553  21.586  0.00  0.00    +0.000 A 
ATOM     25  C   UNL     1       3.458   2.726  20.561  0.00  0.00    +0.000 A 
ENDBRANCH  18  20
ENDBRANCH  17  18
ENDBRANCH  16  17
ENDBRANCH  15  16
ENDBRANCH   2  15
TORSDOF 5
ENDMDL
MODEL 8
REMARK VINA RESULT:      -7.6      5.293      7.098
REMARK  Name = 
REMARK  5 active torsions:
REMARK  status: ('A' for Active; 'I' for Inactive)
REMARK    1  A    between atoms: C_2  and  C_3
REMARK    2  A    between atoms: C_3  and  C_4
REMARK    3  A    between atoms: C_4  and  C_5
REMARK    4  A    between atoms: C_5  and  C_6
REMARK    5  A    between atoms: C_6  and  C_8
REMARK                            x       y       z     vdW  Elec       q    Type
REMARK                         _______ _______ _______ _____ _____    ______ ____
ROOT
ATOM      1  O   UNL     1       4.293   4.765  19.512  0.00  0.00    +0.000 OA
ATOM      2  C   UNL     1       3.634   5.752  19.167  0.00  0.00    +0.000 C 
ATOM      3  N   UNL     1       2.862   6.352  20.116  0.00  0.00    +0.000 N 
ATOM      4  C   UNL     1       2.132   7.492  19.967  0.00  0.00    +0.000 A 
ATOM      5  N   UNL     1       2.101   8.312  18.954  0.00  0.00    +0.000 NA
ATOM      6  C   UNL     1       1.220   9.343  19.222  0.00  0.00    +0.000 A 
ATOM      7  C   UNL     1       0.934  10.421  18.360  0.00  0.00    +0.000 A 
ATOM      8  C   UNL     1       0.020  11.399  18.759  0.00  0.00    +0.000 A 
ATOM      9  C   UNL     1      -0.607  11.300  19.994  0.00  0.00    +0.000 A 
ATOM     10  F   UNL     1      -1.479  12.248  20.358  0.00  0.00    +0.000 F 
ATOM     11  C   UNL     1      -0.351  10.245  20.869  0.00  0.00    +0.000 A 
ATOM     12  C   UNL     1       0.578   9.276  20.463  0.00  0.00    +0.000 A 
ATOM     13  S   UNL     1       1.143   7.876  21.301  0.00  0.00    +0.000 S 
ATOM     14  H   UNL     1       2.844   5.898  21.017  0.00  0.00    +0.000 HD
ENDROOT
BRANCH   2  15
ATOM     15  C   UNL     1       3.659   6.263  17.732  0.00  0.00    +0.000 C 
BRANCH  15  16
ATOM     16  C   UNL     1       4.508   5.384  16.807  0.00  0.00    +0.000 C 
BRANCH  16  17
ATOM     17  C   UNL     1       5.907   5.981  16.631  0.00  0.00    +0.000 C 
BRANCH  17  18
ATOM     18  C   UNL     1       6.931   5.000  16.094  0.00  0.00    +0.000 C 
ATOM     19  O   UNL     1       7.790   4.478  16.800  0.00  0.00    +0.000 OA
BRANCH  18  20
ATOM     20  C   UNL     1       6.924   4.733  14.624  0.00  0.00    +0.000 A 
ATOM     21  C   UNL     1       6.044   3.765  14.125  0.00  0.00    +0.000 A 
ATOM     22  C   UNL     1       6.026   3.467  12.761  0.00  0.00    +0.000 A 
ATOM     23  C   UNL     1       6.877   4.142  11.887  0.00  0.00    +0.000 A 
ATOM     24  C   UNL     1       7.748   5.116  12.374  0.00  0.00    +0.000 A 
ATOM     25  C   UNL     1       7.773   5.410  13.739  0.00  0.00    +0.000 A 
ENDBRANCH  18  20
ENDBRANCH  17  18
ENDBRANCH  16  17
ENDBRANCH  15  16
ENDBRANCH   2  15
TORSDOF 5
ENDMDL
MODEL 9
REMARK VINA RESULT:      -7.6      5.314      7.385
REMARK  Name = 
REMARK  5 active torsions:
REMARK  status: ('A' for Active; 'I' for Inactive)
REMARK    1  A    between atoms: C_2  and  C_3
REMARK    2  A    between atoms: C_3  and  C_4
REMARK    3  A    between atoms: C_4  and  C_5
REMARK    4  A    between atoms: C_5  and  C_6
REMARK    5  A    between atoms: C_6  and  C_8
REMARK                            x       y       z     vdW  Elec       q    Type
REMARK                         _______ _______ _______ _____ _____    ______ ____
ROOT
ATOM      1  O   UNL     1       3.425   7.254  17.003  0.00  0.00    +0.000 OA
ATOM      2  C   UNL     1       2.900   7.545  18.083  0.00  0.00    +0.000 C 
ATOM      3  N   UNL     1       2.216   8.721  18.151  0.00  0.00    +0.000 N 
ATOM      4  C   UNL     1       1.498   9.184  19.212  0.00  0.00    +0.000 A 
ATOM      5  N   UNL     1       1.208   8.573  20.326  0.00  0.00    +0.000 NA
ATOM      6  C   UNL     1       0.460   9.411  21.130  0.00  0.00    +0.000 A 
ATOM      7  C   UNL     1      -0.043   9.089  22.408  0.00  0.00    +0.000 A 
ATOM      8  C   UNL     1      -0.790  10.035  23.114  0.00  0.00    +0.000 A 
ATOM      9  C   UNL     1      -1.025  11.286  22.561  0.00  0.00    +0.000 A 
ATOM     10  F   UNL     1      -1.744  12.178  23.253  0.00  0.00    +0.000 F 
ATOM     11  C   UNL     1      -0.540  11.640  21.302  0.00  0.00    +0.000 A 
ATOM     12  C   UNL     1       0.198  10.678  20.596  0.00  0.00    +0.000 A 
ATOM     13  S   UNL     1       0.908  10.772  19.026  0.00  0.00    +0.000 S 
ATOM     14  H   UNL     1       2.249   9.295  17.321  0.00  0.00    +0.000 HD
ENDROOT
BRANCH   2  15
ATOM     15  C   UNL     1       3.033   6.639  19.301  0.00  0.00    +0.000 C 
BRANCH  15  16
ATOM     16  C   UNL     1       2.581   5.202  19.020  0.00  0.00    +0.000 C 
BRANCH  16  17
ATOM     17  C   UNL     1       3.289   4.221  19.960  0.00  0.00    +0.000 C 
BRANCH  17  18
ATOM     18  C   UNL     1       4.464   3.502  19.326  0.00  0.00    +0.000 C 
ATOM     19  O   UNL     1       4.835   2.387  19.683  0.00  0.00    +0.000 OA
BRANCH  18  20
ATOM     20  C   UNL     1       5.235   4.235  18.277  0.00  0.00    +0.000 A 
ATOM     21  C   UNL     1       4.922   4.001  16.933  0.00  0.00    +0.000 A 
ATOM     22  C   UNL     1       5.639   4.646  15.922  0.00  0.00    +0.000 A 
ATOM     23  C   UNL     1       6.662   5.535  16.248  0.00  0.00    +0.000 A 
ATOM     24  C   UNL     1       6.971   5.782  17.585  0.00  0.00    +0.000 A 
ATOM     25  C   UNL     1       6.262   5.133  18.598  0.00  0.00    +0.000 A 
ENDBRANCH  18  20
ENDBRANCH  17  18
ENDBRANCH  16  17
ENDBRANCH  15  16
ENDBRANCH   2  15
TORSDOF 5
ENDMDL
