MODEL 1
REMARK VINA RESULT:      -8.0      0.000      0.000
REMARK  Name = 
REMARK  5 active torsions:
REMARK  status: ('A' for Active; 'I' for Inactive)
REMARK    1  A    between atoms: C_1  and  C_2
REMARK    2  A    between atoms: C_5  and  N_6
REMARK    3  A    between atoms: N_6  and  C_7
REMARK    4  A    between atoms: C_9  and  C_10
REMARK    5  A    between atoms: C_18  and  C_19
REMARK                            x       y       z     vdW  Elec       q    Type
REMARK                         _______ _______ _______ _____ _____    ______ ____
ROOT
ATOM      1  C   UNL     1       4.506   5.056  17.818  0.00  0.00    +0.000 A 
ATOM      2  N   UNL     1       5.281   5.220  16.722  0.00  0.00    +0.000 NA
ATOM      3  C   UNL     1       5.392   4.178  15.875  0.00  0.00    +0.000 A 
ATOM      4  N   UNL     1       4.807   2.985  16.099  0.00  0.00    +0.000 NA
ATOM      5  N   UNL     1       4.040   2.814  17.216  0.00  0.00    +0.000 NA
ATOM      6  C   UNL     1       3.862   3.840  18.080  0.00  0.00    +0.000 A 
ENDROOT
BRANCH   3   7
ATOM      7  C   UNL     1       6.132   4.386  14.610  0.00  0.00    +0.000 A 
ATOM      8  C   UNL     1       5.795   3.697  13.440  0.00  0.00    +0.000 A 
ATOM      9  C   UNL     1       6.541   3.899  12.281  0.00  0.00    +0.000 A 
ATOM     10  C   UNL     1       7.610   4.784  12.307  0.00  0.00    +0.000 A 
ATOM     11  C   UNL     1       7.888   5.433  13.495  0.00  0.00    +0.000 A 
ATOM     12  N   UNL     1       7.182   5.256  14.633  0.00  0.00    +0.000 NA
ENDBRANCH   3   7
BRANCH   6  13
ATOM     13  C   UNL     1       2.947   3.551  19.208  0.00  0.00    +0.000 A 
ATOM     14  C   UNL     1       1.563   3.798  19.163  0.00  0.00    +0.000 A 
ATOM     15  C   UNL     1       0.727   3.468  20.236  0.00  0.00    +0.000 A 
ATOM     16  C   UNL     1       1.261   2.913  21.393  0.00  0.00    +0.000 A 
ATOM     17  C   UNL     1       2.630   2.694  21.483  0.00  0.00    +0.000 A 
ATOM     18  C   UNL     1       3.460   3.005  20.403  0.00  0.00    +0.000 A 
ENDBRANCH   6  13
BRANCH   1  19
ATOM     19  N   UNL     1       4.343   6.179  18.665  0.00  0.00    +0.000 N 
ATOM     20  H   UNL     1       4.674   5.972  19.603  0.00  0.00    +0.000 HD
BRANCH  19  25
ATOM     21  C   UNL     1       0.254  10.110  18.415  0.00  0.00    +0.000 C 
ATOM     22  C   UNL     1       1.315   9.059  18.521  0.00  0.00    +0.000 A 
ATOM     23  C   UNL     1       1.421   8.244  19.644  0.00  0.00    +0.000 A 
ATOM     24  C   UNL     1       2.428   7.279  19.693  0.00  0.00    +0.000 A 
ATOM     25  C   UNL     1       3.299   7.119  18.615  0.00  0.00    +0.000 A 
ATOM     26  C   UNL     1       3.120   8.000  17.546  0.00  0.00    +0.000 A 
ATOM     27  N   UNL     1       2.159   8.952  17.472  0.00  0.00    +0.000 NA
ENDBRANCH  19  25
ENDBRANCH   1  19
TORSDOF 4
ENDMDL
MODEL 2
REMARK VINA RESULT:      -7.7      0.573      1.337
REMARK  Name = 
REMARK  5 active torsions:
REMARK  status: ('A' for Active; 'I' for Inactive)
REMARK    1  A    between atoms: C_1  and  C_2
REMARK    2  A    between atoms: C_5  and  N_6
REMARK    3  A    between atoms: N_6  and  C_7
REMARK    4  A    between atoms: C_9  and  C_10
REMARK    5  A    between atoms: C_18  and  C_19
REMARK                            x       y       z     vdW  Elec       q    Type
REMARK                         _______ _______ _______ _____ _____    ______ ____
ROOT
ATOM      1  C   UNL     1       4.577   4.950  17.899  0.00  0.00    +0.000 A 
ATOM      2  N   UNL     1       5.341   5.140  16.799  0.00  0.00    +0.000 NA
ATOM      3  C   UNL     1       5.417   4.130  15.911  0.00  0.00    +0.000 A 
ATOM      4  N   UNL     1       4.807   2.942  16.096  0.00  0.00    +0.000 NA
ATOM      5  N   UNL     1       4.051   2.745  17.216  0.00  0.00    +0.000 NA
ATOM      6  C   UNL     1       3.908   3.740  18.122  0.00  0.00    +0.000 A 
ENDROOT
BRANCH   3   7
ATOM      7  C   UNL     1       6.145   4.370  14.645  0.00  0.00    +0.000 A 
ATOM      8  C   UNL     1       5.810   3.697  13.466  0.00  0.00    +0.000 A 
ATOM      9  C   UNL     1       6.546   3.930  12.305  0.00  0.00    +0.000 A 
ATOM     10  C   UNL     1       7.601   4.830  12.339  0.00  0.00    +0.000 A 
ATOM     11  C   UNL     1       7.878   5.463  13.537  0.00  0.00    +0.000 A 
ATOM     12  N   UNL     1       7.182   5.255  14.677  0.00  0.00    +0.000 NA
ENDBRANCH   3   7
BRANCH   6  13
ATOM     13  C   UNL     1       3.001   3.427  19.250  0.00  0.00    +0.000 A 
ATOM     14  C   UNL     1       3.440   2.859  20.460  0.00  0.00    +0.000 A 
ATOM     15  C   UNL     1       2.556   2.621  21.518  0.00  0.00    +0.000 A 
ATOM     16  C   UNL     1       1.205   2.917  21.380  0.00  0.00    +0.000 A 
ATOM     17  C   UNL     1       0.735   3.443  20.183  0.00  0.00    +0.000 A 
ATOM     18  C   UNL     1       1.622   3.699  19.135  0.00  0.00    +0.000 A 
ENDBRANCH   6  13
BRANCH   1  19
ATOM     19  N   UNL     1       4.451   6.042  18.791  0.00  0.00    +0.000 N 
ATOM     20  H   UNL     1       4.759   5.781  19.724  0.00  0.00    +0.000 HD
BRANCH  19  25
ATOM     21  C   UNL     1       0.280   9.894  18.745  0.00  0.00    +0.000 C 
ATOM     22  C   UNL     1       1.394   8.894  18.716  0.00  0.00    +0.000 A 
ATOM     23  C   UNL     1       2.249   8.789  17.624  0.00  0.00    +0.000 A 
ATOM     24  C   UNL     1       3.273   7.842  17.648  0.00  0.00    +0.000 A 
ATOM     25  C   UNL     1       3.450   7.029  18.768  0.00  0.00    +0.000 A 
ATOM     26  C   UNL     1       2.526   7.199  19.801  0.00  0.00    +0.000 A 
ATOM     27  N   UNL     1       1.517   8.103  19.805  0.00  0.00    +0.000 NA
ENDBRANCH  19  25
ENDBRANCH   1  19
TORSDOF 4
ENDMDL
MODEL 3
REMARK VINA RESULT:      -7.5      5.169      9.400
REMARK  Name = 
REMARK  5 active torsions:
REMARK  status: ('A' for Active; 'I' for Inactive)
REMARK    1  A    between atoms: C_1  and  C_2
REMARK    2  A    between atoms: C_5  and  N_6
REMARK    3  A    between atoms: N_6  and  C_7
REMARK    4  A    between atoms: C_9  and  C_10
REMARK    5  A    between atoms: C_18  and  C_19
REMARK                            x       y       z     vdW  Elec       q    Type
REMARK                         _______ _______ _______ _____ _____    ______ ____
ROOT
ATOM      1  C   UNL     1      -0.874  11.711  20.680  0.00  0.00    +0.000 A 
ATOM      2  N   UNL     1      -0.118  10.854  19.956  0.00  0.00    +0.000 NA
ATOM      3  C   UNL     1       0.645   9.972  20.631  0.00  0.00    +0.000 A 
ATOM      4  N   UNL     1       0.716   9.943  21.977  0.00  0.00    +0.000 NA
ATOM      5  N   UNL     1      -0.033  10.820  22.707  0.00  0.00    +0.000 NA
ATOM      6  C   UNL     1      -0.847  11.702  22.080  0.00  0.00    +0.000 A 
ENDROOT
BRANCH   3   7
ATOM      7  C   UNL     1       1.377   8.948  19.853  0.00  0.00    +0.000 A 
ATOM      8  C   UNL     1       1.678   9.130  18.499  0.00  0.00    +0.000 A 
ATOM      9  C   UNL     1       2.339   8.124  17.798  0.00  0.00    +0.000 A 
ATOM     10  C   UNL     1       2.689   6.954  18.456  0.00  0.00    +0.000 A 
ATOM     11  C   UNL     1       2.363   6.839  19.795  0.00  0.00    +0.000 A 
ATOM     12  N   UNL     1       1.723   7.798  20.499  0.00  0.00    +0.000 NA
ENDBRANCH   3   7
BRANCH   6  13
ATOM     13  C   UNL     1      -1.664  12.544  22.984  0.00  0.00    +0.000 A 
ATOM     14  C   UNL     1      -1.270  13.825  23.412  0.00  0.00    +0.000 A 
ATOM     15  C   UNL     1      -2.094  14.606  24.231  0.00  0.00    +0.000 A 
ATOM     16  C   UNL     1      -3.316  14.111  24.668  0.00  0.00    +0.000 A 
ATOM     17  C   UNL     1      -3.715  12.834  24.294  0.00  0.00    +0.000 A 
ATOM     18  C   UNL     1      -2.902  12.064  23.459  0.00  0.00    +0.000 A 
ENDBRANCH   6  13
BRANCH   1  19
ATOM     19  N   UNL     1      -1.721  12.588  19.961  0.00  0.00    +0.000 N 
ATOM     20  H   UNL     1      -1.553  13.552  20.232  0.00  0.00    +0.000 HD
BRANCH  19  25
ATOM     21  C   UNL     1      -6.994  11.582  18.113  0.00  0.00    +0.000 C 
ATOM     22  C   UNL     1      -5.622  11.869  18.637  0.00  0.00    +0.000 A 
ATOM     23  C   UNL     1      -5.426  12.622  19.790  0.00  0.00    +0.000 A 
ATOM     24  C   UNL     1      -4.126  12.860  20.237  0.00  0.00    +0.000 A 
ATOM     25  C   UNL     1      -3.038  12.324  19.547  0.00  0.00    +0.000 A 
ATOM     26  C   UNL     1      -3.342  11.600  18.391  0.00  0.00    +0.000 A 
ATOM     27  N   UNL     1      -4.592  11.359  17.927  0.00  0.00    +0.000 NA
ENDBRANCH  19  25
ENDBRANCH   1  19
TORSDOF 4
ENDMDL
MODEL 4
REMARK VINA RESULT:      -7.5      3.120      6.578
REMARK  Name = 
REMARK  5 active torsions:
REMARK  status: ('A' for Active; 'I' for Inactive)
REMARK    1  A    between atoms: C_1  and  C_2
REMARK    2  A    between atoms: C_5  and  N_6
REMARK    3  A    between atoms: N_6  and  C_7
REMARK    4  A    between atoms: C_9  and  C_10
REMARK    5  A    between atoms: C_18  and  C_19
REMARK                            x       y       z     vdW  Elec       q    Type
REMARK                         _______ _______ _______ _____ _____    ______ ____
ROOT
ATOM      1  C   UNL     1       1.066   9.460  18.963  0.00  0.00    +0.000 A 
ATOM      2  N   UNL     1       1.704   8.491  18.267  0.00  0.00    +0.000 NA
ATOM      3  C   UNL     1       2.244   7.473  18.966  0.00  0.00    +0.000 A 
ATOM      4  N   UNL     1       2.211   7.410  20.312  0.00  0.00    +0.000 NA
ATOM      5  N   UNL     1       1.583   8.397  21.015  0.00  0.00    +0.000 NA
ATOM      6  C   UNL     1       0.991   9.423  20.361  0.00  0.00    +0.000 A 
ENDROOT
BRANCH   3   7
ATOM      7  C   UNL     1       2.831   6.346  18.209  0.00  0.00    +0.000 A 
ATOM      8  C   UNL     1       2.202   5.098  18.143  0.00  0.00    +0.000 A 
ATOM      9  C   UNL     1       2.809   4.055  17.447  0.00  0.00    +0.000 A 
ATOM     10  C   UNL     1       4.032   4.272  16.829  0.00  0.00    +0.000 A 
ATOM     11  C   UNL     1       4.599   5.528  16.933  0.00  0.00    +0.000 A 
ATOM     12  N   UNL     1       4.033   6.557  17.601  0.00  0.00    +0.000 NA
ENDBRANCH   3   7
BRANCH   6  13
ATOM     13  C   UNL     1       0.278  10.386  21.232  0.00  0.00    +0.000 A 
ATOM     14  C   UNL     1       0.412  11.781  21.114  0.00  0.00    +0.000 A 
ATOM     15  C   UNL     1      -0.315  12.656  21.928  0.00  0.00    +0.000 A 
ATOM     16  C   UNL     1      -1.170  12.157  22.904  0.00  0.00    +0.000 A 
ATOM     17  C   UNL     1      -1.294  10.782  23.071  0.00  0.00    +0.000 A 
ATOM     18  C   UNL     1      -0.583   9.910  22.243  0.00  0.00    +0.000 A 
ENDBRANCH   6  13
BRANCH   1  19
ATOM     19  N   UNL     1       0.446  10.489  18.214  0.00  0.00    +0.000 N 
ATOM     20  H   UNL     1       0.948  11.365  18.324  0.00  0.00    +0.000 HD
BRANCH  19  25
ATOM     21  C   UNL     1      -5.144  11.129  17.457  0.00  0.00    +0.000 C 
ATOM     22  C   UNL     1      -3.672  10.921  17.633  0.00  0.00    +0.000 A 
ATOM     23  C   UNL     1      -3.040   9.773  17.166  0.00  0.00    +0.000 A 
ATOM     24  C   UNL     1      -1.664   9.629  17.354  0.00  0.00    +0.000 A 
ATOM     25  C   UNL     1      -0.932  10.637  17.981  0.00  0.00    +0.000 A 
ATOM     26  C   UNL     1      -1.666  11.738  18.430  0.00  0.00    +0.000 A 
ATOM     27  N   UNL     1      -3.001  11.904  18.270  0.00  0.00    +0.000 NA
ENDBRANCH  19  25
ENDBRANCH   1  19
TORSDOF 4
ENDMDL
MODEL 5
REMARK VINA RESULT:      -7.4      2.674      6.917
REMARK  Name = 
REMARK  5 active torsions:
REMARK  status: ('A' for Active; 'I' for Inactive)
REMARK    1  A    between atoms: C_1  and  C_2
REMARK    2  A    between atoms: C_5  and  N_6
REMARK    3  A    between atoms: N_6  and  C_7
REMARK    4  A    between atoms: C_9  and  C_10
REMARK    5  A    between atoms: C_18  and  C_19
REMARK                            x       y       z     vdW  Elec       q    Type
REMARK                         _______ _______ _______ _____ _____    ______ ____
ROOT
ATOM      1  C   UNL     1       5.667   4.377  17.107  0.00  0.00    +0.000 A 
ATOM      2  N   UNL     1       4.923   4.213  18.225  0.00  0.00    +0.000 NA
ATOM      3  C   UNL     1       3.665   3.755  18.076  0.00  0.00    +0.000 A 
ATOM      4  N   UNL     1       3.115   3.500  16.872  0.00  0.00    +0.000 NA
ATOM      5  N   UNL     1       3.860   3.683  15.742  0.00  0.00    +0.000 NA
ATOM      6  C   UNL     1       5.143   4.105  15.837  0.00  0.00    +0.000 A 
ENDROOT
BRANCH   3   7
ATOM      7  C   UNL     1       2.887   3.451  19.297  0.00  0.00    +0.000 A 
ATOM      8  C   UNL     1       1.566   3.884  19.452  0.00  0.00    +0.000 A 
ATOM      9  C   UNL     1       0.883   3.604  20.634  0.00  0.00    +0.000 A 
ATOM     10  C   UNL     1       1.527   2.899  21.641  0.00  0.00    +0.000 A 
ATOM     11  C   UNL     1       2.833   2.501  21.423  0.00  0.00    +0.000 A 
ATOM     12  N   UNL     1       3.518   2.758  20.287  0.00  0.00    +0.000 NA
ENDBRANCH   3   7
BRANCH   6  13
ATOM     13  C   UNL     1       5.866   4.188  14.547  0.00  0.00    +0.000 A 
ATOM     14  C   UNL     1       6.994   5.004  14.345  0.00  0.00    +0.000 A 
ATOM     15  C   UNL     1       7.675   5.019  13.123  0.00  0.00    +0.000 A 
ATOM     16  C   UNL     1       7.224   4.243  12.062  0.00  0.00    +0.000 A 
ATOM     17  C   UNL     1       6.089   3.456  12.218  0.00  0.00    +0.000 A 
ATOM     18  C   UNL     1       5.423   3.427  13.446  0.00  0.00    +0.000 A 
ENDBRANCH   6  13
BRANCH   1  19
ATOM     19  N   UNL     1       7.008   4.796  17.281  0.00  0.00    +0.000 N 
ATOM     20  H   UNL     1       7.579   4.034  17.634  0.00  0.00    +0.000 HD
BRANCH  19  25
ATOM     21  C   UNL     1       8.836   9.977  18.713  0.00  0.00    +0.000 C 
ATOM     22  C   UNL     1       8.368   8.595  18.376  0.00  0.00    +0.000 A 
ATOM     23  C   UNL     1       8.574   7.527  19.243  0.00  0.00    +0.000 A 
ATOM     24  C   UNL     1       8.117   6.258  18.882  0.00  0.00    +0.000 A 
ATOM     25  C   UNL     1       7.439   6.074  17.677  0.00  0.00    +0.000 A 
ATOM     26  C   UNL     1       7.303   7.207  16.871  0.00  0.00    +0.000 A 
ATOM     27  N   UNL     1       7.742   8.448  17.188  0.00  0.00    +0.000 NA
ENDBRANCH  19  25
ENDBRANCH   1  19
TORSDOF 4
ENDMDL
MODEL 6
REMARK VINA RESULT:      -7.2      5.234      9.497
REMARK  Name = 
REMARK  5 active torsions:
REMARK  status: ('A' for Active; 'I' for Inactive)
REMARK    1  A    between atoms: C_1  and  C_2
REMARK    2  A    between atoms: C_5  and  N_6
REMARK    3  A    between atoms: N_6  and  C_7
REMARK    4  A    between atoms: C_9  and  C_10
REMARK    5  A    between atoms: C_18  and  C_19
REMARK                            x       y       z     vdW  Elec       q    Type
REMARK                         _______ _______ _______ _____ _____    ______ ____
ROOT
ATOM      1  C   UNL     1      -0.953  11.735  20.764  0.00  0.00    +0.000 A 
ATOM      2  N   UNL     1      -0.195  10.867  20.055  0.00  0.00    +0.000 NA
ATOM      3  C   UNL     1       0.544   9.976  20.745  0.00  0.00    +0.000 A 
ATOM      4  N   UNL     1       0.590   9.948  22.092  0.00  0.00    +0.000 NA
ATOM      5  N   UNL     1      -0.162  10.836  22.807  0.00  0.00    +0.000 NA
ATOM      6  C   UNL     1      -0.952  11.727  22.165  0.00  0.00    +0.000 A 
ENDROOT
BRANCH   3   7
ATOM      7  C   UNL     1       1.277   8.942  19.982  0.00  0.00    +0.000 A 
ATOM      8  C   UNL     1       1.655   7.728  20.566  0.00  0.00    +0.000 A 
ATOM      9  C   UNL     1       2.374   6.797  19.819  0.00  0.00    +0.000 A 
ATOM     10  C   UNL     1       2.705   7.091  18.504  0.00  0.00    +0.000 A 
ATOM     11  C   UNL     1       2.300   8.309  17.988  0.00  0.00    +0.000 A 
ATOM     12  N   UNL     1       1.603   9.229  18.690  0.00  0.00    +0.000 NA
ENDBRANCH   3   7
BRANCH   6  13
ATOM     13  C   UNL     1      -1.774  12.581  23.052  0.00  0.00    +0.000 A 
ATOM     14  C   UNL     1      -3.053  12.215  23.510  0.00  0.00    +0.000 A 
ATOM     15  C   UNL     1      -3.778  13.033  24.384  0.00  0.00    +0.000 A 
ATOM     16  C   UNL     1      -3.254  14.252  24.796  0.00  0.00    +0.000 A 
ATOM     17  C   UNL     1      -2.010  14.660  24.330  0.00  0.00    +0.000 A 
ATOM     18  C   UNL     1      -1.279  13.833  23.474  0.00  0.00    +0.000 A 
ENDBRANCH   6  13
BRANCH   1  19
ATOM     19  N   UNL     1      -1.775  12.621  20.028  0.00  0.00    +0.000 N 
ATOM     20  H   UNL     1      -1.642  13.578  20.342  0.00  0.00    +0.000 HD
BRANCH  19  25
ATOM     21  C   UNL     1      -7.022  11.460  18.195  0.00  0.00    +0.000 C 
ATOM     22  C   UNL     1      -5.622  11.744  18.642  0.00  0.00    +0.000 A 
ATOM     23  C   UNL     1      -4.523  11.259  17.941  0.00  0.00    +0.000 A 
ATOM     24  C   UNL     1      -3.237  11.554  18.398  0.00  0.00    +0.000 A 
ATOM     25  C   UNL     1      -3.061  12.349  19.531  0.00  0.00    +0.000 A 
ATOM     26  C   UNL     1      -4.229  12.768  20.173  0.00  0.00    +0.000 A 
ATOM     27  N   UNL     1      -5.489  12.492  19.759  0.00  0.00    +0.000 NA
ENDBRANCH  19  25
ENDBRANCH   1  19
TORSDOF 4
ENDMDL
MODEL 7
REMARK VINA RESULT:      -7.2      3.009      6.589
REMARK  Name = 
REMARK  5 active torsions:
REMARK  status: ('A' for Active; 'I' for Inactive)
REMARK    1  A    between atoms: C_1  and  C_2
REMARK    2  A    between atoms: C_5  and  N_6
REMARK    3  A    between atoms: N_6  and  C_7
REMARK    4  A    between atoms: C_9  and  C_10
REMARK    5  A    between atoms: C_18  and  C_19
REMARK                            x       y       z     vdW  Elec       q    Type
REMARK                         _______ _______ _______ _____ _____    ______ ____
ROOT
ATOM      1  C   UNL     1       1.051   9.340  18.723  0.00  0.00    +0.000 A 
ATOM      2  N   UNL     1       1.642   8.310  18.076  0.00  0.00    +0.000 NA
ATOM      3  C   UNL     1       2.221   7.352  18.826  0.00  0.00    +0.000 A 
ATOM      4  N   UNL     1       2.272   7.405  20.172  0.00  0.00    +0.000 NA
ATOM      5  N   UNL     1       1.692   8.455  20.824  0.00  0.00    +0.000 NA
ATOM      6  C   UNL     1       1.062   9.425  20.121  0.00  0.00    +0.000 A 
ENDROOT
BRANCH   3   7
ATOM      7  C   UNL     1       2.758   6.158  18.136  0.00  0.00    +0.000 A 
ATOM      8  C   UNL     1       2.024   4.972  18.042  0.00  0.00    +0.000 A 
ATOM      9  C   UNL     1       2.583   3.862  17.412  0.00  0.00    +0.000 A 
ATOM     10  C   UNL     1       3.864   3.953  16.887  0.00  0.00    +0.000 A 
ATOM     11  C   UNL     1       4.535   5.155  17.013  0.00  0.00    +0.000 A 
ATOM     12  N   UNL     1       4.017   6.246  17.618  0.00  0.00    +0.000 NA
ENDBRANCH   3   7
BRANCH   6  13
ATOM     13  C   UNL     1       0.407  10.465  20.948  0.00  0.00    +0.000 A 
ATOM     14  C   UNL     1      -0.638  10.192  21.849  0.00  0.00    +0.000 A 
ATOM     15  C   UNL     1      -1.199  11.198  22.644  0.00  0.00    +0.000 A 
ATOM     16  C   UNL     1      -0.750  12.508  22.533  0.00  0.00    +0.000 A 
ATOM     17  C   UNL     1       0.255  12.816  21.623  0.00  0.00    +0.000 A 
ATOM     18  C   UNL     1       0.828  11.807  20.845  0.00  0.00    +0.000 A 
ENDBRANCH   6  13
BRANCH   1  19
ATOM     19  N   UNL     1       0.389  10.306  17.928  0.00  0.00    +0.000 N 
ATOM     20  H   UNL     1       0.944  11.153  17.854  0.00  0.00    +0.000 HD
BRANCH  19  25
ATOM     21  C   UNL     1      -5.205  11.140  17.434  0.00  0.00    +0.000 C 
ATOM     22  C   UNL     1      -3.728  10.956  17.592  0.00  0.00    +0.000 A 
ATOM     23  C   UNL     1      -2.963  11.838  18.348  0.00  0.00    +0.000 A 
ATOM     24  C   UNL     1      -1.589  11.621  18.466  0.00  0.00    +0.000 A 
ATOM     25  C   UNL     1      -0.999  10.516  17.853  0.00  0.00    +0.000 A 
ATOM     26  C   UNL     1      -1.852   9.704  17.100  0.00  0.00    +0.000 A 
ATOM     27  N   UNL     1      -3.186   9.893  16.960  0.00  0.00    +0.000 NA
ENDBRANCH  19  25
ENDBRANCH   1  19
TORSDOF 4
ENDMDL
MODEL 8
REMARK VINA RESULT:      -7.2      4.945      9.149
REMARK  Name = 
REMARK  5 active torsions:
REMARK  status: ('A' for Active; 'I' for Inactive)
REMARK    1  A    between atoms: C_1  and  C_2
REMARK    2  A    between atoms: C_5  and  N_6
REMARK    3  A    between atoms: N_6  and  C_7
REMARK    4  A    between atoms: C_9  and  C_10
REMARK    5  A    between atoms: C_18  and  C_19
REMARK                            x       y       z     vdW  Elec       q    Type
REMARK                         _______ _______ _______ _____ _____    ______ ____
ROOT
ATOM      1  C   UNL     1      -0.721  11.449  20.494  0.00  0.00    +0.000 A 
ATOM      2  N   UNL     1       0.021  10.550  19.808  0.00  0.00    +0.000 NA
ATOM      3  C   UNL     1       0.781   9.695  20.520  0.00  0.00    +0.000 A 
ATOM      4  N   UNL     1       0.862   9.731  21.865  0.00  0.00    +0.000 NA
ATOM      5  N   UNL     1       0.127  10.651  22.556  0.00  0.00    +0.000 NA
ATOM      6  C   UNL     1      -0.683  11.508  21.893  0.00  0.00    +0.000 A 
ENDROOT
BRANCH   3   7
ATOM      7  C   UNL     1       1.497   8.627  19.787  0.00  0.00    +0.000 A 
ATOM      8  C   UNL     1       1.930   8.804  18.469  0.00  0.00    +0.000 A 
ATOM      9  C   UNL     1       2.571   7.758  17.807  0.00  0.00    +0.000 A 
ATOM     10  C   UNL     1       2.768   6.555  18.469  0.00  0.00    +0.000 A 
ATOM     11  C   UNL     1       2.316   6.447  19.772  0.00  0.00    +0.000 A 
ATOM     12  N   UNL     1       1.693   7.444  20.437  0.00  0.00    +0.000 NA
ENDBRANCH   3   7
BRANCH   6  13
ATOM     13  C   UNL     1      -1.485  12.402  22.760  0.00  0.00    +0.000 A 
ATOM     14  C   UNL     1      -2.725  12.034  23.314  0.00  0.00    +0.000 A 
ATOM     15  C   UNL     1      -3.428  12.893  24.165  0.00  0.00    +0.000 A 
ATOM     16  C   UNL     1      -2.924  14.155  24.458  0.00  0.00    +0.000 A 
ATOM     17  C   UNL     1      -1.721  14.562  23.895  0.00  0.00    +0.000 A 
ATOM     18  C   UNL     1      -1.009  13.695  23.062  0.00  0.00    +0.000 A 
ENDBRANCH   6  13
BRANCH   1  19
ATOM     19  N   UNL     1      -1.566  12.298  19.739  0.00  0.00    +0.000 N 
ATOM     20  H   UNL     1      -1.374  13.273  19.947  0.00  0.00    +0.000 HD
BRANCH  19  25
ATOM     21  C   UNL     1      -6.894  11.284  18.059  0.00  0.00    +0.000 C 
ATOM     22  C   UNL     1      -5.505  11.577  18.536  0.00  0.00    +0.000 A 
ATOM     23  C   UNL     1      -5.271  12.429  19.611  0.00  0.00    +0.000 A 
ATOM     24  C   UNL     1      -3.957  12.667  20.018  0.00  0.00    +0.000 A 
ATOM     25  C   UNL     1      -2.896  12.036  19.368  0.00  0.00    +0.000 A 
ATOM     26  C   UNL     1      -3.238  11.218  18.289  0.00  0.00    +0.000 A 
ATOM     27  N   UNL     1      -4.501  10.972  17.865  0.00  0.00    +0.000 NA
ENDBRANCH  19  25
ENDBRANCH   1  19
TORSDOF 4
ENDMDL
MODEL 9
REMARK VINA RESULT:      -7.1      4.043      8.203
REMARK  Name = 
REMARK  5 active torsions:
REMARK  status: ('A' for Active; 'I' for Inactive)
REMARK    1  A    between atoms: C_1  and  C_2
REMARK    2  A    between atoms: C_5  and  N_6
REMARK    3  A    between atoms: N_6  and  C_7
REMARK    4  A    between atoms: C_9  and  C_10
REMARK    5  A    between atoms: C_18  and  C_19
REMARK                            x       y       z     vdW  Elec       q    Type
REMARK                         _______ _______ _______ _____ _____    ______ ____
ROOT
ATOM      1  C   UNL     1       0.264  10.395  20.055  0.00  0.00    +0.000 A 
ATOM      2  N   UNL     1       0.885   9.295  19.571  0.00  0.00    +0.000 NA
ATOM      3  C   UNL     1       1.444   8.452  20.461  0.00  0.00    +0.000 A 
ATOM      4  N   UNL     1       1.446   8.682  21.789  0.00  0.00    +0.000 NA
ATOM      5  N   UNL     1       0.835   9.802  22.276  0.00  0.00    +0.000 NA
ATOM      6  C   UNL     1       0.224  10.663  21.429  0.00  0.00    +0.000 A 
ENDROOT
BRANCH   3   7
ATOM      7  C   UNL     1       2.013   7.184  19.953  0.00  0.00    +0.000 A 
ATOM      8  C   UNL     1       1.862   5.980  20.649  0.00  0.00    +0.000 A 
ATOM      9  C   UNL     1       2.445   4.817  20.150  0.00  0.00    +0.000 A 
ATOM     10  C   UNL     1       3.168   4.872  18.968  0.00  0.00    +0.000 A 
ATOM     11  C   UNL     1       3.279   6.094  18.330  0.00  0.00    +0.000 A 
ATOM     12  N   UNL     1       2.724   7.236  18.791  0.00  0.00    +0.000 NA
ENDBRANCH   3   7
BRANCH   6  13
ATOM     13  C   UNL     1      -0.467  11.796  22.088  0.00  0.00    +0.000 A 
ATOM     14  C   UNL     1      -0.032  13.130  21.989  0.00  0.00    +0.000 A 
ATOM     15  C   UNL     1      -0.741  14.176  22.590  0.00  0.00    +0.000 A 
ATOM     16  C   UNL     1      -1.885  13.908  23.332  0.00  0.00    +0.000 A 
ATOM     17  C   UNL     1      -2.318  12.596  23.480  0.00  0.00    +0.000 A 
ATOM     18  C   UNL     1      -1.621  11.556  22.862  0.00  0.00    +0.000 A 
ENDBRANCH   6  13
BRANCH   1  19
ATOM     19  N   UNL     1      -0.376  11.239  19.117  0.00  0.00    +0.000 N 
ATOM     20  H   UNL     1       0.034  12.168  19.130  0.00  0.00    +0.000 HD
BRANCH  19  25
ATOM     21  C   UNL     1      -5.914  11.135  17.868  0.00  0.00    +0.000 C 
ATOM     22  C   UNL     1      -4.447  11.128  18.168  0.00  0.00    +0.000 A 
ATOM     23  C   UNL     1      -3.594  10.187  17.600  0.00  0.00    +0.000 A 
ATOM     24  C   UNL     1      -2.234  10.225  17.910  0.00  0.00    +0.000 A 
ATOM     25  C   UNL     1      -1.736  11.212  18.761  0.00  0.00    +0.000 A 
ATOM     26  C   UNL     1      -2.679  12.095  19.294  0.00  0.00    +0.000 A 
ATOM     27  N   UNL     1      -4.005  12.079  19.018  0.00  0.00    +0.000 NA
ENDBRANCH  19  25
ENDBRANCH   1  19
TORSDOF 4
ENDMDL
