MODEL 1
REMARK VINA RESULT:      -8.6      0.000      0.000
REMARK  Name = 
REMARK  12 active torsions:
REMARK  status: ('A' for Active; 'I' for Inactive)
REMARK    1  A    between atoms: C_1  and  O_2
REMARK    2  A    between atoms: O_2  and  C_3
REMARK    3  A    between atoms: C_6  and  C_7
REMARK    4  A    between atoms: C_7  and  O_8
REMARK    5  A    between atoms: C_10  and  C_11
REMARK    6  A    between atoms: C_13  and  C_14
REMARK    7  A    between atoms: C_14  and  C_15
REMARK    8  A    between atoms: C_14  and  C_19
REMARK    9  A    between atoms: C_15  and  C_16
REMARK   10  A    between atoms: C_16  and  O_18
REMARK   11  A    between atoms: C_22  and  C_23
REMARK   12  A    between atoms: C_26  and  C_27
REMARK                            x       y       z     vdW  Elec       q    Type
REMARK                         _______ _______ _______ _____ _____    ______ ____
ROOT
ATOM      1  C   UNL     1       3.845   5.029  18.756  0.00  0.00    +0.000 A 
ATOM      2  C   UNL     1       3.402   6.319  19.121  0.00  0.00    +0.000 A 
ATOM      3  C   UNL     1       2.282   6.536  19.941  0.00  0.00    +0.000 A 
ATOM      4  C   UNL     1       1.537   5.428  20.358  0.00  0.00    +0.000 A 
ATOM      5  C   UNL     1       1.949   4.129  20.041  0.00  0.00    +0.000 A 
ATOM      6  C   UNL     1       3.102   3.944  19.254  0.00  0.00    +0.000 A 
ENDROOT
BRANCH   1  12
ATOM      7  C   UNL     1       6.380   4.935  18.267  0.00  0.00    +0.000 A 
ATOM      8  C   UNL     1       7.414   4.720  17.340  0.00  0.00    +0.000 A 
ATOM      9  C   UNL     1       7.137   4.493  15.992  0.00  0.00    +0.000 A 
ATOM     10  C   UNL     1       5.820   4.437  15.544  0.00  0.00    +0.000 A 
ATOM     11  C   UNL     1       4.790   4.607  16.478  0.00  0.00    +0.000 A 
ATOM     12  C   UNL     1       5.022   4.855  17.861  0.00  0.00    +0.000 A 
BRANCH   7  14
ATOM     13  C   UNL     1       7.992   5.662  19.843  0.00  0.00    +0.000 C 
ATOM     14  O   UNL     1       6.660   5.212  19.588  0.00  0.00    +0.000 OA
ENDBRANCH   7  14
BRANCH  10  15
ATOM     15  C   UNL     1       5.540   4.286  14.073  0.00  0.00    +0.000 C 
BRANCH  15  16
ATOM     16  O   UNL     1       6.326   3.260  13.482  0.00  0.00    +0.000 OA
ATOM     17  H   UNL     1       5.703   2.612  13.109  0.00  0.00    +0.000 HD
ENDBRANCH  15  16
ENDBRANCH  10  15
ENDBRANCH   1  12
BRANCH   5  18
ATOM     18  C   UNL     1       1.180   2.936  20.553  0.00  0.00    +0.000 C 
ATOM     19  F   UNL     1       1.760   1.744  20.231  0.00  0.00    +0.000 F 
ATOM     20  F   UNL     1       1.052   2.934  21.906  0.00  0.00    +0.000 F 
ATOM     21  F   UNL     1      -0.084   2.874  20.050  0.00  0.00    +0.000 F 
ENDBRANCH   5  18
BRANCH   3  22
ATOM     22  C   UNL     1       1.956   7.943  20.435  0.00  0.00    +0.000 C 
BRANCH  22  23
ATOM     23  C   UNL     1       1.462   8.820  19.330  0.00  0.00    +0.000 A 
ATOM     24  N   UNL     1       2.043   9.110  18.183  0.00  0.00    +0.000 NA
ATOM     25  N   UNL     1       1.163   9.911  17.491  0.00  0.00    +0.000 NA
ATOM     26  C   UNL     1       0.106  10.052  18.261  0.00  0.00    +0.000 A 
ATOM     27  C   UNL     1      -1.151  10.770  17.999  0.00  0.00    +0.000 C 
ATOM     28  O   UNL     1       0.219   9.385  19.453  0.00  0.00    +0.000 OA
ENDBRANCH  22  23
BRANCH  22  29
ATOM     29  C   UNL     1       0.896   7.905  21.554  0.00  0.00    +0.000 C 
BRANCH  29  30
ATOM     30  C   UNL     1       1.015   9.067  22.499  0.00  0.00    +0.000 C 
ATOM     31  O   UNL     1       0.071   9.686  22.963  0.00  0.00    +0.000 OA
BRANCH  30  32
ATOM     32  O   UNL     1       2.297   9.334  22.856  0.00  0.00    +0.000 OA
ATOM     33  H   UNL     1       2.873   9.646  22.133  0.00  0.00    +0.000 HD
ENDBRANCH  30  32
ENDBRANCH  29  30
ENDBRANCH  22  29
ENDBRANCH   3  22
TORSDOF 10
ENDMDL
MODEL 2
REMARK VINA RESULT:      -8.3      0.510      1.002
REMARK  Name = 
REMARK  12 active torsions:
REMARK  status: ('A' for Active; 'I' for Inactive)
REMARK    1  A    between atoms: C_1  and  O_2
REMARK    2  A    between atoms: O_2  and  C_3
REMARK    3  A    between atoms: C_6  and  C_7
REMARK    4  A    between atoms: C_7  and  O_8
REMARK    5  A    between atoms: C_10  and  C_11
REMARK    6  A    between atoms: C_13  and  C_14
REMARK    7  A    between atoms: C_14  and  C_15
REMARK    8  A    between atoms: C_14  and  C_19
REMARK    9  A    between atoms: C_15  and  C_16
REMARK   10  A    between atoms: C_16  and  O_18
REMARK   11  A    between atoms: C_22  and  C_23
REMARK   12  A    between atoms: C_26  and  C_27
REMARK                            x       y       z     vdW  Elec       q    Type
REMARK                         _______ _______ _______ _____ _____    ______ ____
ROOT
ATOM      1  C   UNL     1       3.833   4.933  18.665  0.00  0.00    +0.000 A 
ATOM      2  C   UNL     1       3.409   6.211  19.086  0.00  0.00    +0.000 A 
ATOM      3  C   UNL     1       2.287   6.409  19.910  0.00  0.00    +0.000 A 
ATOM      4  C   UNL     1       1.523   5.295  20.272  0.00  0.00    +0.000 A 
ATOM      5  C   UNL     1       1.916   4.005  19.897  0.00  0.00    +0.000 A 
ATOM      6  C   UNL     1       3.070   3.838  19.109  0.00  0.00    +0.000 A 
ENDROOT
BRANCH   1  12
ATOM      7  C   UNL     1       6.369   4.867  18.177  0.00  0.00    +0.000 A 
ATOM      8  C   UNL     1       7.406   4.674  17.249  0.00  0.00    +0.000 A 
ATOM      9  C   UNL     1       7.132   4.462  15.897  0.00  0.00    +0.000 A 
ATOM     10  C   UNL     1       5.817   4.400  15.448  0.00  0.00    +0.000 A 
ATOM     11  C   UNL     1       4.784   4.549  16.383  0.00  0.00    +0.000 A 
ATOM     12  C   UNL     1       5.012   4.781  17.769  0.00  0.00    +0.000 A 
BRANCH   7  14
ATOM     13  C   UNL     1       7.903   5.764  19.744  0.00  0.00    +0.000 C 
ATOM     14  O   UNL     1       6.646   5.130  19.503  0.00  0.00    +0.000 OA
ENDBRANCH   7  14
BRANCH  10  15
ATOM     15  C   UNL     1       5.539   4.266  13.975  0.00  0.00    +0.000 C 
BRANCH  15  16
ATOM     16  O   UNL     1       6.348   3.268  13.367  0.00  0.00    +0.000 OA
ATOM     17  H   UNL     1       7.166   3.711  13.079  0.00  0.00    +0.000 HD
ENDBRANCH  15  16
ENDBRANCH  10  15
ENDBRANCH   1  12
BRANCH   5  18
ATOM     18  C   UNL     1       1.125   2.803  20.351  0.00  0.00    +0.000 C 
ATOM     19  F   UNL     1      -0.091   2.698  19.741  0.00  0.00    +0.000 F 
ATOM     20  F   UNL     1       1.765   1.629  20.108  0.00  0.00    +0.000 F 
ATOM     21  F   UNL     1       0.861   2.825  21.687  0.00  0.00    +0.000 F 
ENDBRANCH   5  18
BRANCH   3  22
ATOM     22  C   UNL     1       1.982   7.796  20.467  0.00  0.00    +0.000 C 
BRANCH  22  23
ATOM     23  C   UNL     1       1.751   8.795  19.377  0.00  0.00    +0.000 A 
ATOM     24  N   UNL     1       2.048   8.702  18.096  0.00  0.00    +0.000 NA
ATOM     25  N   UNL     1       1.586   9.855  17.504  0.00  0.00    +0.000 NA
ATOM     26  C   UNL     1       1.038  10.570  18.463  0.00  0.00    +0.000 A 
ATOM     27  C   UNL     1       0.352  11.869  18.383  0.00  0.00    +0.000 C 
ATOM     28  O   UNL     1       1.103   9.961  19.689  0.00  0.00    +0.000 OA
ENDBRANCH  22  23
BRANCH  22  29
ATOM     29  C   UNL     1       0.743   7.764  21.384  0.00  0.00    +0.000 C 
BRANCH  29  30
ATOM     30  C   UNL     1       0.797   8.809  22.461  0.00  0.00    +0.000 C 
ATOM     31  O   UNL     1       1.803   9.417  22.793  0.00  0.00    +0.000 OA
BRANCH  30  32
ATOM     32  O   UNL     1      -0.418   9.077  23.005  0.00  0.00    +0.000 OA
ATOM     33  H   UNL     1      -0.528   8.799  23.934  0.00  0.00    +0.000 HD
ENDBRANCH  30  32
ENDBRANCH  29  30
ENDBRANCH  22  29
ENDBRANCH   3  22
TORSDOF 10
ENDMDL
MODEL 3
REMARK VINA RESULT:      -8.2      1.488      2.544
REMARK  Name = 
REMARK  12 active torsions:
REMARK  status: ('A' for Active; 'I' for Inactive)
REMARK    1  A    between atoms: C_1  and  O_2
REMARK    2  A    between atoms: O_2  and  C_3
REMARK    3  A    between atoms: C_6  and  C_7
REMARK    4  A    between atoms: C_7  and  O_8
REMARK    5  A    between atoms: C_10  and  C_11
REMARK    6  A    between atoms: C_13  and  C_14
REMARK    7  A    between atoms: C_14  and  C_15
REMARK    8  A    between atoms: C_14  and  C_19
REMARK    9  A    between atoms: C_15  and  C_16
REMARK   10  A    between atoms: C_16  and  O_18
REMARK   11  A    between atoms: C_22  and  C_23
REMARK   12  A    between atoms: C_26  and  C_27
REMARK                            x       y       z     vdW  Elec       q    Type
REMARK                         _______ _______ _______ _____ _____    ______ ____
ROOT
ATOM      1  C   UNL     1       3.973   5.105  18.516  0.00  0.00    +0.000 A 
ATOM      2  C   UNL     1       3.227   6.300  18.430  0.00  0.00    +0.000 A 
ATOM      3  C   UNL     1       2.114   6.563  19.248  0.00  0.00    +0.000 A 
ATOM      4  C   UNL     1       1.691   5.570  20.137  0.00  0.00    +0.000 A 
ATOM      5  C   UNL     1       2.411   4.379  20.273  0.00  0.00    +0.000 A 
ATOM      6  C   UNL     1       3.549   4.164  19.471  0.00  0.00    +0.000 A 
ENDROOT
BRANCH   1  12
ATOM      7  C   UNL     1       6.494   4.898  17.989  0.00  0.00    +0.000 A 
ATOM      8  C   UNL     1       7.503   4.621  17.052  0.00  0.00    +0.000 A 
ATOM      9  C   UNL     1       7.195   4.373  15.714  0.00  0.00    +0.000 A 
ATOM     10  C   UNL     1       5.870   4.359  15.289  0.00  0.00    +0.000 A 
ATOM     11  C   UNL     1       4.863   4.592  16.234  0.00  0.00    +0.000 A 
ATOM     12  C   UNL     1       5.127   4.863  17.606  0.00  0.00    +0.000 A 
BRANCH   7  14
ATOM     13  C   UNL     1       8.115   5.734  19.502  0.00  0.00    +0.000 C 
ATOM     14  O   UNL     1       6.807   5.195  19.299  0.00  0.00    +0.000 OA
ENDBRANCH   7  14
BRANCH  10  15
ATOM     15  C   UNL     1       5.559   4.185  13.826  0.00  0.00    +0.000 C 
BRANCH  15  16
ATOM     16  O   UNL     1       6.375   3.191  13.222  0.00  0.00    +0.000 OA
ATOM     17  H   UNL     1       7.190   3.637  12.934  0.00  0.00    +0.000 HD
ENDBRANCH  15  16
ENDBRANCH  10  15
ENDBRANCH   1  12
BRANCH   5  18
ATOM     18  C   UNL     1       1.989   3.342  21.285  0.00  0.00    +0.000 C 
ATOM     19  F   UNL     1       2.292   3.689  22.569  0.00  0.00    +0.000 F 
ATOM     20  F   UNL     1       0.652   3.105  21.270  0.00  0.00    +0.000 F 
ATOM     21  F   UNL     1       2.593   2.138  21.082  0.00  0.00    +0.000 F 
ENDBRANCH   5  18
BRANCH   3  22
ATOM     22  C   UNL     1       1.456   7.940  19.222  0.00  0.00    +0.000 C 
BRANCH  22  23
ATOM     23  C   UNL     1       1.277   8.497  20.599  0.00  0.00    +0.000 A 
ATOM     24  N   UNL     1       2.168   8.617  21.563  0.00  0.00    +0.000 NA
ATOM     25  N   UNL     1       1.527   9.237  22.611  0.00  0.00    +0.000 NA
ATOM     26  C   UNL     1       0.292   9.454  22.215  0.00  0.00    +0.000 A 
ATOM     27  C   UNL     1      -0.811  10.125  22.920  0.00  0.00    +0.000 C 
ATOM     28  O   UNL     1       0.053   9.010  20.940  0.00  0.00    +0.000 OA
ENDBRANCH  22  23
BRANCH  22  29
ATOM     29  C   UNL     1       2.285   8.935  18.386  0.00  0.00    +0.000 C 
BRANCH  29  30
ATOM     30  C   UNL     1       1.573  10.241  18.173  0.00  0.00    +0.000 C 
ATOM     31  O   UNL     1       2.109  11.337  18.194  0.00  0.00    +0.000 OA
BRANCH  30  32
ATOM     32  O   UNL     1       0.257  10.088  17.879  0.00  0.00    +0.000 OA
ATOM     33  H   UNL     1       0.011   9.217  17.513  0.00  0.00    +0.000 HD
ENDBRANCH  30  32
ENDBRANCH  29  30
ENDBRANCH  22  29
ENDBRANCH   3  22
TORSDOF 10
ENDMDL
MODEL 4
REMARK VINA RESULT:      -8.2      2.318      7.267
REMARK  Name = 
REMARK  12 active torsions:
REMARK  status: ('A' for Active; 'I' for Inactive)
REMARK    1  A    between atoms: C_1  and  O_2
REMARK    2  A    between atoms: O_2  and  C_3
REMARK    3  A    between atoms: C_6  and  C_7
REMARK    4  A    between atoms: C_7  and  O_8
REMARK    5  A    between atoms: C_10  and  C_11
REMARK    6  A    between atoms: C_13  and  C_14
REMARK    7  A    between atoms: C_14  and  C_15
REMARK    8  A    between atoms: C_14  and  C_19
REMARK    9  A    between atoms: C_15  and  C_16
REMARK   10  A    between atoms: C_16  and  O_18
REMARK   11  A    between atoms: C_22  and  C_23
REMARK   12  A    between atoms: C_26  and  C_27
REMARK                            x       y       z     vdW  Elec       q    Type
REMARK                         _______ _______ _______ _____ _____    ______ ____
ROOT
ATOM      1  C   UNL     1       2.200   6.737  19.819  0.00  0.00    +0.000 A 
ATOM      2  C   UNL     1       3.277   6.745  18.907  0.00  0.00    +0.000 A 
ATOM      3  C   UNL     1       3.991   5.586  18.561  0.00  0.00    +0.000 A 
ATOM      4  C   UNL     1       3.663   4.386  19.200  0.00  0.00    +0.000 A 
ATOM      5  C   UNL     1       2.590   4.323  20.095  0.00  0.00    +0.000 A 
ATOM      6  C   UNL     1       1.864   5.494  20.386  0.00  0.00    +0.000 A 
ENDROOT
BRANCH   1  12
ATOM      7  C   UNL     1       1.269   9.088  19.289  0.00  0.00    +0.000 A 
ATOM      8  C   UNL     1       0.559  10.221  19.722  0.00  0.00    +0.000 A 
ATOM      9  C   UNL     1       0.118  10.334  21.041  0.00  0.00    +0.000 A 
ATOM     10  C   UNL     1       0.343   9.304  21.948  0.00  0.00    +0.000 A 
ATOM     11  C   UNL     1       1.013   8.157  21.503  0.00  0.00    +0.000 A 
ATOM     12  C   UNL     1       1.493   7.999  20.173  0.00  0.00    +0.000 A 
BRANCH   7  14
ATOM     13  C   UNL     1       2.473  10.148  17.546  0.00  0.00    +0.000 C 
ATOM     14  O   UNL     1       1.748   9.003  17.999  0.00  0.00    +0.000 OA
ENDBRANCH   7  14
BRANCH  10  15
ATOM     15  C   UNL     1      -0.053   9.481  23.390  0.00  0.00    +0.000 C 
BRANCH  15  16
ATOM     16  O   UNL     1      -0.807  10.669  23.593  0.00  0.00    +0.000 OA
ATOM     17  H   UNL     1      -0.957  10.742  24.552  0.00  0.00    +0.000 HD
ENDBRANCH  15  16
ENDBRANCH  10  15
ENDBRANCH   1  12
BRANCH   5  18
ATOM     18  C   UNL     1       2.197   3.010  20.727  0.00  0.00    +0.000 C 
ATOM     19  F   UNL     1       3.115   2.550  21.625  0.00  0.00    +0.000 F 
ATOM     20  F   UNL     1       1.020   3.081  21.402  0.00  0.00    +0.000 F 
ATOM     21  F   UNL     1       2.052   2.012  19.811  0.00  0.00    +0.000 F 
ENDBRANCH   5  18
BRANCH   3  22
ATOM     22  C   UNL     1       5.031   5.632  17.445  0.00  0.00    +0.000 C 
BRANCH  22  23
ATOM     23  C   UNL     1       6.272   6.351  17.870  0.00  0.00    +0.000 A 
ATOM     24  N   UNL     1       7.222   5.944  18.688  0.00  0.00    +0.000 NA
ATOM     25  N   UNL     1       8.171   6.941  18.709  0.00  0.00    +0.000 NA
ATOM     26  C   UNL     1       7.736   7.884  17.902  0.00  0.00    +0.000 A 
ATOM     27  C   UNL     1       8.375   9.153  17.519  0.00  0.00    +0.000 C 
ATOM     28  O   UNL     1       6.530   7.582  17.327  0.00  0.00    +0.000 OA
ENDBRANCH  22  23
BRANCH  22  29
ATOM     29  C   UNL     1       5.411   4.211  16.983  0.00  0.00    +0.000 C 
BRANCH  29  30
ATOM     30  C   UNL     1       6.508   4.214  15.957  0.00  0.00    +0.000 C 
ATOM     31  O   UNL     1       6.350   4.441  14.768  0.00  0.00    +0.000 OA
BRANCH  30  32
ATOM     32  O   UNL     1       7.738   4.002  16.492  0.00  0.00    +0.000 OA
ATOM     33  H   UNL     1       8.010   4.646  17.174  0.00  0.00    +0.000 HD
ENDBRANCH  30  32
ENDBRANCH  29  30
ENDBRANCH  22  29
ENDBRANCH   3  22
TORSDOF 10
ENDMDL
MODEL 5
REMARK VINA RESULT:      -8.1      3.485      5.526
REMARK  Name = 
REMARK  12 active torsions:
REMARK  status: ('A' for Active; 'I' for Inactive)
REMARK    1  A    between atoms: C_1  and  O_2
REMARK    2  A    between atoms: O_2  and  C_3
REMARK    3  A    between atoms: C_6  and  C_7
REMARK    4  A    between atoms: C_7  and  O_8
REMARK    5  A    between atoms: C_10  and  C_11
REMARK    6  A    between atoms: C_13  and  C_14
REMARK    7  A    between atoms: C_14  and  C_15
REMARK    8  A    between atoms: C_14  and  C_19
REMARK    9  A    between atoms: C_15  and  C_16
REMARK   10  A    between atoms: C_16  and  O_18
REMARK   11  A    between atoms: C_22  and  C_23
REMARK   12  A    between atoms: C_26  and  C_27
REMARK                            x       y       z     vdW  Elec       q    Type
REMARK                         _______ _______ _______ _____ _____    ______ ____
ROOT
ATOM      1  C   UNL     1       5.844   4.948  15.604  0.00  0.00    +0.000 A 
ATOM      2  C   UNL     1       4.525   5.120  16.077  0.00  0.00    +0.000 A 
ATOM      3  C   UNL     1       4.232   5.463  17.408  0.00  0.00    +0.000 A 
ATOM      4  C   UNL     1       5.290   5.572  18.316  0.00  0.00    +0.000 A 
ATOM      5  C   UNL     1       6.615   5.433  17.889  0.00  0.00    +0.000 A 
ATOM      6  C   UNL     1       6.877   5.134  16.539  0.00  0.00    +0.000 A 
ENDROOT
BRANCH   1  12
ATOM      7  C   UNL     1       7.265   4.881  13.447  0.00  0.00    +0.000 A 
ATOM      8  C   UNL     1       7.414   4.430  12.124  0.00  0.00    +0.000 A 
ATOM      9  C   UNL     1       6.399   3.716  11.488  0.00  0.00    +0.000 A 
ATOM     10  C   UNL     1       5.226   3.403  12.169  0.00  0.00    +0.000 A 
ATOM     11  C   UNL     1       5.097   3.816  13.501  0.00  0.00    +0.000 A 
ATOM     12  C   UNL     1       6.098   4.557  14.190  0.00  0.00    +0.000 A 
BRANCH   7  14
ATOM     13  C   UNL     1       9.331   6.013  13.203  0.00  0.00    +0.000 C 
ATOM     14  O   UNL     1       8.249   5.632  14.054  0.00  0.00    +0.000 OA
ENDBRANCH   7  14
BRANCH  10  15
ATOM     15  C   UNL     1       4.102   2.717  11.439  0.00  0.00    +0.000 C 
BRANCH  15  16
ATOM     16  O   UNL     1       3.457   3.584  10.517  0.00  0.00    +0.000 OA
ATOM     17  H   UNL     1       2.855   4.145  11.037  0.00  0.00    +0.000 HD
ENDBRANCH  15  16
ENDBRANCH  10  15
ENDBRANCH   1  12
BRANCH   5  18
ATOM     18  C   UNL     1       7.755   5.622  18.860  0.00  0.00    +0.000 C 
ATOM     19  F   UNL     1       7.365   5.557  20.166  0.00  0.00    +0.000 F 
ATOM     20  F   UNL     1       8.730   4.687  18.716  0.00  0.00    +0.000 F 
ATOM     21  F   UNL     1       8.363   6.833  18.722  0.00  0.00    +0.000 F 
ENDBRANCH   5  18
BRANCH   3  22
ATOM     22  C   UNL     1       2.800   5.799  17.814  0.00  0.00    +0.000 C 
BRANCH  22  23
ATOM     23  C   UNL     1       2.088   4.610  18.378  0.00  0.00    +0.000 A 
ATOM     24  N   UNL     1       1.465   3.641  17.739  0.00  0.00    +0.000 NA
ATOM     25  N   UNL     1       1.024   2.760  18.699  0.00  0.00    +0.000 NA
ATOM     26  C   UNL     1       1.411   3.251  19.858  0.00  0.00    +0.000 A 
ATOM     27  C   UNL     1       1.245   2.694  21.209  0.00  0.00    +0.000 C 
ATOM     28  O   UNL     1       2.096   4.431  19.737  0.00  0.00    +0.000 OA
ENDBRANCH  22  23
BRANCH  22  29
ATOM     29  C   UNL     1       2.771   6.937  18.854  0.00  0.00    +0.000 C 
BRANCH  29  30
ATOM     30  C   UNL     1       2.278   8.233  18.276  0.00  0.00    +0.000 C 
ATOM     31  O   UNL     1       2.498   8.616  17.138  0.00  0.00    +0.000 OA
BRANCH  30  32
ATOM     32  O   UNL     1       1.488   8.930  19.130  0.00  0.00    +0.000 OA
ATOM     33  H   UNL     1       1.918   9.207  19.962  0.00  0.00    +0.000 HD
ENDBRANCH  30  32
ENDBRANCH  29  30
ENDBRANCH  22  29
ENDBRANCH   3  22
TORSDOF 10
ENDMDL
MODEL 6
REMARK VINA RESULT:      -8.1      1.830      6.929
REMARK  Name = 
REMARK  12 active torsions:
REMARK  status: ('A' for Active; 'I' for Inactive)
REMARK    1  A    between atoms: C_1  and  O_2
REMARK    2  A    between atoms: O_2  and  C_3
REMARK    3  A    between atoms: C_6  and  C_7
REMARK    4  A    between atoms: C_7  and  O_8
REMARK    5  A    between atoms: C_10  and  C_11
REMARK    6  A    between atoms: C_13  and  C_14
REMARK    7  A    between atoms: C_14  and  C_15
REMARK    8  A    between atoms: C_14  and  C_19
REMARK    9  A    between atoms: C_15  and  C_16
REMARK   10  A    between atoms: C_16  and  O_18
REMARK   11  A    between atoms: C_22  and  C_23
REMARK   12  A    between atoms: C_26  and  C_27
REMARK                            x       y       z     vdW  Elec       q    Type
REMARK                         _______ _______ _______ _____ _____    ______ ____
ROOT
ATOM      1  C   UNL     1       2.107   6.284  19.978  0.00  0.00    +0.000 A 
ATOM      2  C   UNL     1       3.445   6.138  19.551  0.00  0.00    +0.000 A 
ATOM      3  C   UNL     1       4.045   4.884  19.344  0.00  0.00    +0.000 A 
ATOM      4  C   UNL     1       3.305   3.734  19.639  0.00  0.00    +0.000 A 
ATOM      5  C   UNL     1       1.969   3.829  20.044  0.00  0.00    +0.000 A 
ATOM      6  C   UNL     1       1.383   5.100  20.198  0.00  0.00    +0.000 A 
ENDROOT
BRANCH   1  12
ATOM      7  C   UNL     1       1.388   8.648  19.223  0.00  0.00    +0.000 A 
ATOM      8  C   UNL     1       0.794   9.881  19.546  0.00  0.00    +0.000 A 
ATOM      9  C   UNL     1       0.393  10.166  20.851  0.00  0.00    +0.000 A 
ATOM     10  C   UNL     1       0.539   9.215  21.856  0.00  0.00    +0.000 A 
ATOM     11  C   UNL     1       1.091   7.971  21.522  0.00  0.00    +0.000 A 
ATOM     12  C   UNL     1       1.528   7.637  20.209  0.00  0.00    +0.000 A 
BRANCH   7  14
ATOM     13  C   UNL     1       2.951   9.172  17.522  0.00  0.00    +0.000 C 
ATOM     14  O   UNL     1       1.832   8.390  17.943  0.00  0.00    +0.000 OA
ENDBRANCH   7  14
BRANCH  10  15
ATOM     15  C   UNL     1       0.190   9.572  23.276  0.00  0.00    +0.000 C 
BRANCH  15  16
ATOM     16  O   UNL     1      -0.441  10.842  23.367  0.00  0.00    +0.000 OA
ATOM     17  H   UNL     1      -1.360  10.677  23.643  0.00  0.00    +0.000 HD
ENDBRANCH  15  16
ENDBRANCH  10  15
ENDBRANCH   1  12
BRANCH   5  18
ATOM     18  C   UNL     1       1.155   2.582  20.293  0.00  0.00    +0.000 C 
ATOM     19  F   UNL     1       0.873   2.379  21.612  0.00  0.00    +0.000 F 
ATOM     20  F   UNL     1      -0.044   2.600  19.654  0.00  0.00    +0.000 F 
ATOM     21  F   UNL     1       1.792   1.452  19.879  0.00  0.00    +0.000 F 
ENDBRANCH   5  18
BRANCH   3  22
ATOM     22  C   UNL     1       5.435   4.795  18.721  0.00  0.00    +0.000 C 
BRANCH  22  23
ATOM     23  C   UNL     1       5.419   5.155  17.270  0.00  0.00    +0.000 A 
ATOM     24  N   UNL     1       5.118   6.309  16.709  0.00  0.00    +0.000 NA
ATOM     25  N   UNL     1       5.306   6.146  15.356  0.00  0.00    +0.000 NA
ATOM     26  C   UNL     1       5.712   4.906  15.184  0.00  0.00    +0.000 A 
ATOM     27  C   UNL     1       6.100   4.214  13.946  0.00  0.00    +0.000 C 
ATOM     28  O   UNL     1       5.809   4.208  16.360  0.00  0.00    +0.000 OA
ENDBRANCH  22  23
BRANCH  22  29
ATOM     29  C   UNL     1       6.430   5.718  19.453  0.00  0.00    +0.000 C 
BRANCH  29  30
ATOM     30  C   UNL     1       7.755   5.808  18.751  0.00  0.00    +0.000 C 
ATOM     31  O   UNL     1       8.377   6.843  18.570  0.00  0.00    +0.000 OA
BRANCH  30  32
ATOM     32  O   UNL     1       8.247   4.598  18.386  0.00  0.00    +0.000 OA
ATOM     33  H   UNL     1       8.762   4.134  19.073  0.00  0.00    +0.000 HD
ENDBRANCH  30  32
ENDBRANCH  29  30
ENDBRANCH  22  29
ENDBRANCH   3  22
TORSDOF 10
ENDMDL
MODEL 7
REMARK VINA RESULT:      -8.1      2.711      7.165
REMARK  Name = 
REMARK  12 active torsions:
REMARK  status: ('A' for Active; 'I' for Inactive)
REMARK    1  A    between atoms: C_1  and  O_2
REMARK    2  A    between atoms: O_2  and  C_3
REMARK    3  A    between atoms: C_6  and  C_7
REMARK    4  A    between atoms: C_7  and  O_8
REMARK    5  A    between atoms: C_10  and  C_11
REMARK    6  A    between atoms: C_13  and  C_14
REMARK    7  A    between atoms: C_14  and  C_15
REMARK    8  A    between atoms: C_14  and  C_19
REMARK    9  A    between atoms: C_15  and  C_16
REMARK   10  A    between atoms: C_16  and  O_18
REMARK   11  A    between atoms: C_22  and  C_23
REMARK   12  A    between atoms: C_26  and  C_27
REMARK                            x       y       z     vdW  Elec       q    Type
REMARK                         _______ _______ _______ _____ _____    ______ ____
ROOT
ATOM      1  C   UNL     1       2.964   6.222  18.392  0.00  0.00    +0.000 A 
ATOM      2  C   UNL     1       4.235   6.521  17.854  0.00  0.00    +0.000 A 
ATOM      3  C   UNL     1       5.009   5.576  17.159  0.00  0.00    +0.000 A 
ATOM      4  C   UNL     1       4.527   4.267  17.055  0.00  0.00    +0.000 A 
ATOM      5  C   UNL     1       3.264   3.929  17.553  0.00  0.00    +0.000 A 
ATOM      6  C   UNL     1       2.494   4.911  18.205  0.00  0.00    +0.000 A 
ENDROOT
BRANCH   1  12
ATOM      7  C   UNL     1       1.704   7.103  20.468  0.00  0.00    +0.000 A 
ATOM      8  C   UNL     1       1.018   8.157  21.096  0.00  0.00    +0.000 A 
ATOM      9  C   UNL     1       0.746   9.345  20.416  0.00  0.00    +0.000 A 
ATOM     10  C   UNL     1       1.185   9.522  19.107  0.00  0.00    +0.000 A 
ATOM     11  C   UNL     1       1.906   8.487  18.499  0.00  0.00    +0.000 A 
ATOM     12  C   UNL     1       2.197   7.253  19.145  0.00  0.00    +0.000 A 
BRANCH   7  14
ATOM     13  C   UNL     1       1.038   4.849  20.767  0.00  0.00    +0.000 C 
ATOM     14  O   UNL     1       1.924   5.911  21.126  0.00  0.00    +0.000 OA
ENDBRANCH   7  14
BRANCH  10  15
ATOM     15  C   UNL     1       0.801  10.769  18.356  0.00  0.00    +0.000 C 
BRANCH  15  16
ATOM     16  O   UNL     1      -0.566  10.756  17.965  0.00  0.00    +0.000 OA
ATOM     17  H   UNL     1      -1.087  10.650  18.780  0.00  0.00    +0.000 HD
ENDBRANCH  15  16
ENDBRANCH  10  15
ENDBRANCH   1  12
BRANCH   5  18
ATOM     18  C   UNL     1       2.721   2.532  17.376  0.00  0.00    +0.000 C 
ATOM     19  F   UNL     1       1.583   2.302  18.093  0.00  0.00    +0.000 F 
ATOM     20  F   UNL     1       2.410   2.248  16.084  0.00  0.00    +0.000 F 
ATOM     21  F   UNL     1       3.603   1.574  17.776  0.00  0.00    +0.000 F 
ENDBRANCH   5  18
BRANCH   3  22
ATOM     22  C   UNL     1       6.294   6.007  16.457  0.00  0.00    +0.000 C 
BRANCH  22  23
ATOM     23  C   UNL     1       7.168   6.827  17.352  0.00  0.00    +0.000 A 
ATOM     24  N   UNL     1       7.860   6.446  18.406  0.00  0.00    +0.000 NA
ATOM     25  N   UNL     1       8.541   7.556  18.849  0.00  0.00    +0.000 NA
ATOM     26  C   UNL     1       8.219   8.538  18.034  0.00  0.00    +0.000 A 
ATOM     27  C   UNL     1       8.692   9.931  18.018  0.00  0.00    +0.000 C 
ATOM     28  O   UNL     1       7.346   8.152  17.050  0.00  0.00    +0.000 OA
ENDBRANCH  22  23
BRANCH  22  29
ATOM     29  C   UNL     1       7.092   4.783  15.965  0.00  0.00    +0.000 C 
BRANCH  29  30
ATOM     30  C   UNL     1       7.177   4.716  14.467  0.00  0.00    +0.000 C 
ATOM     31  O   UNL     1       7.812   5.491  13.770  0.00  0.00    +0.000 OA
BRANCH  30  32
ATOM     32  O   UNL     1       6.524   3.647  13.945  0.00  0.00    +0.000 OA
ATOM     33  H   UNL     1       6.815   2.778  14.281  0.00  0.00    +0.000 HD
ENDBRANCH  30  32
ENDBRANCH  29  30
ENDBRANCH  22  29
ENDBRANCH   3  22
TORSDOF 10
ENDMDL
MODEL 8
REMARK VINA RESULT:      -8.0      2.486      7.264
REMARK  Name = 
REMARK  12 active torsions:
REMARK  status: ('A' for Active; 'I' for Inactive)
REMARK    1  A    between atoms: C_1  and  O_2
REMARK    2  A    between atoms: O_2  and  C_3
REMARK    3  A    between atoms: C_6  and  C_7
REMARK    4  A    between atoms: C_7  and  O_8
REMARK    5  A    between atoms: C_10  and  C_11
REMARK    6  A    between atoms: C_13  and  C_14
REMARK    7  A    between atoms: C_14  and  C_15
REMARK    8  A    between atoms: C_14  and  C_19
REMARK    9  A    between atoms: C_15  and  C_16
REMARK   10  A    between atoms: C_16  and  O_18
REMARK   11  A    between atoms: C_22  and  C_23
REMARK   12  A    between atoms: C_26  and  C_27
REMARK                            x       y       z     vdW  Elec       q    Type
REMARK                         _______ _______ _______ _____ _____    ______ ____
ROOT
ATOM      1  C   UNL     1       2.414   6.712  18.811  0.00  0.00    +0.000 A 
ATOM      2  C   UNL     1       3.646   6.843  18.135  0.00  0.00    +0.000 A 
ATOM      3  C   UNL     1       4.319   5.751  17.560  0.00  0.00    +0.000 A 
ATOM      4  C   UNL     1       3.776   4.472  17.724  0.00  0.00    +0.000 A 
ATOM      5  C   UNL     1       2.546   4.295  18.367  0.00  0.00    +0.000 A 
ATOM      6  C   UNL     1       1.875   5.416  18.893  0.00  0.00    +0.000 A 
ENDROOT
BRANCH   1  12
ATOM      7  C   UNL     1       1.667   9.185  18.836  0.00  0.00    +0.000 A 
ATOM      8  C   UNL     1       0.992  10.226  19.495  0.00  0.00    +0.000 A 
ATOM      9  C   UNL     1       0.454  10.042  20.769  0.00  0.00    +0.000 A 
ATOM     10  C   UNL     1       0.545   8.805  21.399  0.00  0.00    +0.000 A 
ATOM     11  C   UNL     1       1.180   7.756  20.722  0.00  0.00    +0.000 A 
ATOM     12  C   UNL     1       1.756   7.897  19.427  0.00  0.00    +0.000 A 
BRANCH   7  14
ATOM     13  C   UNL     1       2.730  10.710  17.367  0.00  0.00    +0.000 C 
ATOM     14  O   UNL     1       2.243   9.387  17.599  0.00  0.00    +0.000 OA
ENDBRANCH   7  14
BRANCH  10  15
ATOM     15  C   UNL     1       0.045   8.649  22.810  0.00  0.00    +0.000 C 
BRANCH  15  16
ATOM     16  O   UNL     1       0.463   9.721  23.646  0.00  0.00    +0.000 OA
ATOM     17  H   UNL     1       0.876  10.382  23.063  0.00  0.00    +0.000 HD
ENDBRANCH  15  16
ENDBRANCH  10  15
ENDBRANCH   1  12
BRANCH   5  18
ATOM     18  C   UNL     1       1.932   2.921  18.479  0.00  0.00    +0.000 C 
ATOM     19  F   UNL     1       2.275   2.095  17.448  0.00  0.00    +0.000 F 
ATOM     20  F   UNL     1       2.297   2.272  19.614  0.00  0.00    +0.000 F 
ATOM     21  F   UNL     1       0.570   2.956  18.479  0.00  0.00    +0.000 F 
ENDBRANCH   5  18
BRANCH   3  22
ATOM     22  C   UNL     1       5.558   5.983  16.699  0.00  0.00    +0.000 C 
BRANCH  22  23
ATOM     23  C   UNL     1       6.639   6.683  17.459  0.00  0.00    +0.000 A 
ATOM     24  N   UNL     1       7.453   6.198  18.374  0.00  0.00    +0.000 NA
ATOM     25  N   UNL     1       8.300   7.223  18.727  0.00  0.00    +0.000 NA
ATOM     26  C   UNL     1       7.947   8.262  18.002  0.00  0.00    +0.000 A 
ATOM     27  C   UNL     1       8.543   9.606  17.944  0.00  0.00    +0.000 C 
ATOM     28  O   UNL     1       6.893   7.998  17.166  0.00  0.00    +0.000 OA
ENDBRANCH  22  23
BRANCH  22  29
ATOM     29  C   UNL     1       6.112   4.650  16.157  0.00  0.00    +0.000 C 
BRANCH  29  30
ATOM     30  C   UNL     1       6.459   4.723  14.697  0.00  0.00    +0.000 C 
ATOM     31  O   UNL     1       5.801   4.220  13.800  0.00  0.00    +0.000 OA
BRANCH  30  32
ATOM     32  O   UNL     1       7.561   5.474  14.448  0.00  0.00    +0.000 OA
ATOM     33  H   UNL     1       7.522   6.012  13.634  0.00  0.00    +0.000 HD
ENDBRANCH  30  32
ENDBRANCH  29  30
ENDBRANCH  22  29
ENDBRANCH   3  22
TORSDOF 10
ENDMDL
MODEL 9
REMARK VINA RESULT:      -7.9      0.710      1.029
REMARK  Name = 
REMARK  12 active torsions:
REMARK  status: ('A' for Active; 'I' for Inactive)
REMARK    1  A    between atoms: C_1  and  O_2
REMARK    2  A    between atoms: O_2  and  C_3
REMARK    3  A    between atoms: C_6  and  C_7
REMARK    4  A    between atoms: C_7  and  O_8
REMARK    5  A    between atoms: C_10  and  C_11
REMARK    6  A    between atoms: C_13  and  C_14
REMARK    7  A    between atoms: C_14  and  C_15
REMARK    8  A    between atoms: C_14  and  C_19
REMARK    9  A    between atoms: C_15  and  C_16
REMARK   10  A    between atoms: C_16  and  O_18
REMARK   11  A    between atoms: C_22  and  C_23
REMARK   12  A    between atoms: C_26  and  C_27
REMARK                            x       y       z     vdW  Elec       q    Type
REMARK                         _______ _______ _______ _____ _____    ______ ____
ROOT
ATOM      1  C   UNL     1       3.869   5.189  18.046  0.00  0.00    +0.000 A 
ATOM      2  C   UNL     1       3.468   6.431  18.582  0.00  0.00    +0.000 A 
ATOM      3  C   UNL     1       2.379   6.566  19.460  0.00  0.00    +0.000 A 
ATOM      4  C   UNL     1       1.622   5.429  19.761  0.00  0.00    +0.000 A 
ATOM      5  C   UNL     1       1.993   4.172  19.271  0.00  0.00    +0.000 A 
ATOM      6  C   UNL     1       3.117   4.065  18.429  0.00  0.00    +0.000 A 
ENDROOT
BRANCH   1  12
ATOM      7  C   UNL     1       6.334   5.556  17.363  0.00  0.00    +0.000 A 
ATOM      8  C   UNL     1       7.348   5.397  16.403  0.00  0.00    +0.000 A 
ATOM      9  C   UNL     1       7.071   4.857  15.146  0.00  0.00    +0.000 A 
ATOM     10  C   UNL     1       5.784   4.430  14.832  0.00  0.00    +0.000 A 
ATOM     11  C   UNL     1       4.785   4.550  15.806  0.00  0.00    +0.000 A 
ATOM     12  C   UNL     1       5.014   5.105  17.097  0.00  0.00    +0.000 A 
BRANCH   7  14
ATOM     13  C   UNL     1       7.784   5.667  19.233  0.00  0.00    +0.000 C 
ATOM     14  O   UNL     1       6.601   6.138  18.584  0.00  0.00    +0.000 OA
ENDBRANCH   7  14
BRANCH  10  15
ATOM     15  C   UNL     1       5.481   3.941  13.442  0.00  0.00    +0.000 C 
BRANCH  15  16
ATOM     16  O   UNL     1       6.496   3.077  12.946  0.00  0.00    +0.000 OA
ATOM     17  H   UNL     1       6.650   3.332  12.020  0.00  0.00    +0.000 HD
ENDBRANCH  15  16
ENDBRANCH  10  15
ENDBRANCH   1  12
BRANCH   5  18
ATOM     18  C   UNL     1       1.212   2.940  19.657  0.00  0.00    +0.000 C 
ATOM     19  F   UNL     1       0.497   3.096  20.808  0.00  0.00    +0.000 F 
ATOM     20  F   UNL     1       0.314   2.567  18.708  0.00  0.00    +0.000 F 
ATOM     21  F   UNL     1       2.014   1.859  19.870  0.00  0.00    +0.000 F 
ENDBRANCH   5  18
BRANCH   3  22
ATOM     22  C   UNL     1       2.102   7.906  20.136  0.00  0.00    +0.000 C 
BRANCH  22  23
ATOM     23  C   UNL     1       1.540   8.907  19.177  0.00  0.00    +0.000 A 
ATOM     24  N   UNL     1       2.141   9.522  18.180  0.00  0.00    +0.000 NA
ATOM     25  N   UNL     1       1.185  10.300  17.567  0.00  0.00    +0.000 NA
ATOM     26  C   UNL     1       0.066  10.103  18.232  0.00  0.00    +0.000 A 
ATOM     27  C   UNL     1      -1.277  10.649  17.981  0.00  0.00    +0.000 C 
ATOM     28  O   UNL     1       0.210   9.225  19.275  0.00  0.00    +0.000 OA
ENDBRANCH  22  23
BRANCH  22  29
ATOM     29  C   UNL     1       1.123   7.739  21.315  0.00  0.00    +0.000 C 
BRANCH  29  30
ATOM     30  C   UNL     1       1.139   8.917  22.248  0.00  0.00    +0.000 C 
ATOM     31  O   UNL     1       0.147   9.523  22.621  0.00  0.00    +0.000 OA
BRANCH  30  32
ATOM     32  O   UNL     1       2.381   9.216  22.706  0.00  0.00    +0.000 OA
ATOM     33  H   UNL     1       3.014   9.515  22.026  0.00  0.00    +0.000 HD
ENDBRANCH  30  32
ENDBRANCH  29  30
ENDBRANCH  22  29
ENDBRANCH   3  22
TORSDOF 10
ENDMDL
