MODEL 1
REMARK VINA RESULT:      -7.6      0.000      0.000
REMARK  Name = 
REMARK  9 active torsions:
REMARK  status: ('A' for Active; 'I' for Inactive)
REMARK    1  A    between atoms: C_1  and  C_2
REMARK    2  A    between atoms: C_2  and  C_3
REMARK    3  A    between atoms: C_3  and  C_4
REMARK    4  A    between atoms: C_4  and  N_5
REMARK    5  A    between atoms: C_9  and  C_10
REMARK    6  A    between atoms: N_12  and  C_13
REMARK    7  A    between atoms: C_19  and  N_20
REMARK    8  A    between atoms: N_20  and  C_21
REMARK    9  A    between atoms: C_24  and  O_25
REMARK                            x       y       z     vdW  Elec       q    Type
REMARK                         _______ _______ _______ _____ _____    ______ ____
ROOT
ATOM      1  N   UNL     1       8.291   8.082  17.493  0.00  0.00    +0.000 N 
ATOM      2  C   UNL     1       7.241   7.212  17.691  0.00  0.00    +0.000 A 
ATOM      3  N   UNL     1       7.610   5.992  18.083  0.00  0.00    +0.000 NA
ATOM      4  C   UNL     1       6.638   5.058  18.103  0.00  0.00    +0.000 A 
ATOM      5  C   UNL     1       5.319   5.294  17.769  0.00  0.00    +0.000 A 
ATOM      6  C   UNL     1       5.006   6.620  17.462  0.00  0.00    +0.000 A 
ATOM      7  N   UNL     1       5.972   7.571  17.442  0.00  0.00    +0.000 NA
ATOM      8  H   UNL     1       9.090   7.728  18.006  0.00  0.00    +0.000 HD
ENDROOT
BRANCH   5   9
ATOM      9  C   UNL     1       4.379   4.144  17.677  0.00  0.00    +0.000 C 
ATOM     10  O   UNL     1       4.445   3.394  16.708  0.00  0.00    +0.000 OA
ATOM     11  N   UNL     1       3.519   3.929  18.740  0.00  0.00    +0.000 N 
ATOM     12  H   UNL     1       3.293   4.698  19.356  0.00  0.00    +0.000 HD
BRANCH  11  13
ATOM     13  C   UNL     1       2.642   2.750  18.816  0.00  0.00    +0.000 C 
ATOM     14  C   UNL     1       3.001   1.836  19.999  0.00  0.00    +0.000 C 
ATOM     15  C   UNL     1       2.650   2.446  21.356  0.00  0.00    +0.000 C 
ATOM     16  C   UNL     1       1.185   2.863  21.418  0.00  0.00    +0.000 C 
ATOM     17  C   UNL     1       0.793   3.763  20.248  0.00  0.00    +0.000 C 
ATOM     18  C   UNL     1       1.164   3.154  18.895  0.00  0.00    +0.000 C 
ENDBRANCH  11  13
ENDBRANCH   5   9
BRANCH   6  19
ATOM     19  N   UNL     1       3.689   7.035  17.250  0.00  0.00    +0.000 N 
ATOM     20  H   UNL     1       3.459   7.141  16.263  0.00  0.00    +0.000 HD
BRANCH  19  21
ATOM     21  C   UNL     1       3.044   7.924  18.212  0.00  0.00    +0.000 C 
ATOM     22  C   UNL     1       2.003   8.879  17.610  0.00  0.00    +0.000 C 
ATOM     23  C   UNL     1       1.473   9.821  18.701  0.00  0.00    +0.000 C 
ATOM     24  C   UNL     1       0.856   9.046  19.868  0.00  0.00    +0.000 C 
ATOM     25  C   UNL     1       1.808   7.982  20.416  0.00  0.00    +0.000 C 
ATOM     26  C   UNL     1       2.362   7.084  19.309  0.00  0.00    +0.000 C 
BRANCH  24  27
ATOM     27  O   UNL     1       0.500   9.949  20.911  0.00  0.00    +0.000 OA
ATOM     28  H   UNL     1       0.826  10.834  20.676  0.00  0.00    +0.000 HD
ENDBRANCH  24  27
ENDBRANCH  19  21
ENDBRANCH   6  19
BRANCH   1  29
ATOM     29  C   UNL     1       8.031   9.501  17.556  0.00  0.00    +0.000 C 
BRANCH  29  30
ATOM     30  C   UNL     1       8.928  10.135  18.626  0.00  0.00    +0.000 C 
BRANCH  30  32
ATOM     31  C   UNL     1      10.765  11.645  17.778  0.00  0.00    +0.000 C 
ATOM     32  C   UNL     1       9.334  11.573  18.285  0.00  0.00    +0.000 C 
ENDBRANCH  30  32
ENDBRANCH  29  30
ENDBRANCH   1  29
TORSDOF 8
ENDMDL
MODEL 2
REMARK VINA RESULT:      -7.3      2.740      7.012
REMARK  Name = 
REMARK  9 active torsions:
REMARK  status: ('A' for Active; 'I' for Inactive)
REMARK    1  A    between atoms: C_1  and  C_2
REMARK    2  A    between atoms: C_2  and  C_3
REMARK    3  A    between atoms: C_3  and  C_4
REMARK    4  A    between atoms: C_4  and  N_5
REMARK    5  A    between atoms: C_9  and  C_10
REMARK    6  A    between atoms: N_12  and  C_13
REMARK    7  A    between atoms: C_19  and  N_20
REMARK    8  A    between atoms: N_20  and  C_21
REMARK    9  A    between atoms: C_24  and  O_25
REMARK                            x       y       z     vdW  Elec       q    Type
REMARK                         _______ _______ _______ _____ _____    ______ ____
ROOT
ATOM      1  N   UNL     1      -0.364   9.276  20.922  0.00  0.00    +0.000 N 
ATOM      2  C   UNL     1       0.758   8.901  20.217  0.00  0.00    +0.000 A 
ATOM      3  N   UNL     1       1.044   9.693  19.183  0.00  0.00    +0.000 NA
ATOM      4  C   UNL     1       2.015   9.258  18.355  0.00  0.00    +0.000 A 
ATOM      5  C   UNL     1       2.720   8.084  18.525  0.00  0.00    +0.000 A 
ATOM      6  C   UNL     1       2.419   7.365  19.684  0.00  0.00    +0.000 A 
ATOM      7  N   UNL     1       1.448   7.793  20.529  0.00  0.00    +0.000 NA
ATOM      8  H   UNL     1      -0.544  10.255  20.725  0.00  0.00    +0.000 HD
ENDROOT
BRANCH   5   9
ATOM      9  C   UNL     1       3.653   7.638  17.454  0.00  0.00    +0.000 C 
ATOM     10  O   UNL     1       3.307   7.736  16.281  0.00  0.00    +0.000 OA
ATOM     11  N   UNL     1       4.910   7.202  17.836  0.00  0.00    +0.000 N 
ATOM     12  H   UNL     1       5.051   6.867  18.779  0.00  0.00    +0.000 HD
BRANCH  11  13
ATOM     13  C   UNL     1       5.956   6.864  16.858  0.00  0.00    +0.000 C 
ATOM     14  C   UNL     1       7.369   7.098  17.417  0.00  0.00    +0.000 C 
ATOM     15  C   UNL     1       7.760   6.091  18.499  0.00  0.00    +0.000 C 
ATOM     16  C   UNL     1       7.601   4.655  18.009  0.00  0.00    +0.000 C 
ATOM     17  C   UNL     1       6.210   4.395  17.435  0.00  0.00    +0.000 C 
ATOM     18  C   UNL     1       5.819   5.417  16.367  0.00  0.00    +0.000 C 
ENDBRANCH  11  13
ENDBRANCH   5   9
BRANCH   6  19
ATOM     19  N   UNL     1       3.152   6.239  20.064  0.00  0.00    +0.000 N 
ATOM     20  H   UNL     1       4.160   6.386  20.022  0.00  0.00    +0.000 HD
BRANCH  19  21
ATOM     21  C   UNL     1       2.635   4.904  19.778  0.00  0.00    +0.000 C 
ATOM     22  C   UNL     1       1.541   4.417  20.738  0.00  0.00    +0.000 C 
ATOM     23  C   UNL     1       1.153   2.972  20.392  0.00  0.00    +0.000 C 
ATOM     24  C   UNL     1       0.670   2.846  18.945  0.00  0.00    +0.000 C 
ATOM     25  C   UNL     1       1.668   3.445  17.954  0.00  0.00    +0.000 C 
ATOM     26  C   UNL     1       2.077   4.867  18.341  0.00  0.00    +0.000 C 
BRANCH  24  27
ATOM     27  O   UNL     1       0.448   1.475  18.629  0.00  0.00    +0.000 OA
ATOM     28  H   UNL     1      -0.507   1.336  18.512  0.00  0.00    +0.000 HD
ENDBRANCH  24  27
ENDBRANCH  19  21
ENDBRANCH   6  19
BRANCH   1  29
ATOM     29  C   UNL     1      -0.497   8.835  22.291  0.00  0.00    +0.000 C 
BRANCH  29  30
ATOM     30  C   UNL     1      -0.462  10.052  23.223  0.00  0.00    +0.000 C 
BRANCH  30  32
ATOM     31  C   UNL     1      -2.241  11.842  23.190  0.00  0.00    +0.000 C 
ATOM     32  C   UNL     1      -0.961  11.333  22.547  0.00  0.00    +0.000 C 
ENDBRANCH  30  32
ENDBRANCH  29  30
ENDBRANCH   1  29
TORSDOF 8
ENDMDL
MODEL 3
REMARK VINA RESULT:      -7.1      4.159      7.195
REMARK  Name = 
REMARK  9 active torsions:
REMARK  status: ('A' for Active; 'I' for Inactive)
REMARK    1  A    between atoms: C_1  and  C_2
REMARK    2  A    between atoms: C_2  and  C_3
REMARK    3  A    between atoms: C_3  and  C_4
REMARK    4  A    between atoms: C_4  and  N_5
REMARK    5  A    between atoms: C_9  and  C_10
REMARK    6  A    between atoms: N_12  and  C_13
REMARK    7  A    between atoms: C_19  and  N_20
REMARK    8  A    between atoms: N_20  and  C_21
REMARK    9  A    between atoms: C_24  and  O_25
REMARK                            x       y       z     vdW  Elec       q    Type
REMARK                         _______ _______ _______ _____ _____    ______ ____
ROOT
ATOM      1  N   UNL     1      -0.144  10.372  22.932  0.00  0.00    +0.000 N 
ATOM      2  C   UNL     1       0.236   9.734  21.772  0.00  0.00    +0.000 A 
ATOM      3  N   UNL     1       1.060   8.702  21.961  0.00  0.00    +0.000 NA
ATOM      4  C   UNL     1       1.607   8.171  20.849  0.00  0.00    +0.000 A 
ATOM      5  C   UNL     1       1.353   8.610  19.565  0.00  0.00    +0.000 A 
ATOM      6  C   UNL     1       0.407   9.632  19.457  0.00  0.00    +0.000 A 
ATOM      7  N   UNL     1      -0.155  10.174  20.566  0.00  0.00    +0.000 NA
ATOM      8  H   UNL     1       0.002   9.730  23.703  0.00  0.00    +0.000 HD
ENDROOT
BRANCH   5   9
ATOM      9  C   UNL     1       2.143   8.045  18.437  0.00  0.00    +0.000 C 
ATOM     10  O   UNL     1       2.316   8.723  17.429  0.00  0.00    +0.000 OA
ATOM     11  N   UNL     1       2.716   6.798  18.615  0.00  0.00    +0.000 N 
ATOM     12  H   UNL     1       2.327   6.169  19.305  0.00  0.00    +0.000 HD
BRANCH  11  13
ATOM     13  C   UNL     1       3.624   6.201  17.623  0.00  0.00    +0.000 C 
ATOM     14  C   UNL     1       5.096   6.286  18.059  0.00  0.00    +0.000 C 
ATOM     15  C   UNL     1       5.428   5.361  19.230  0.00  0.00    +0.000 C 
ATOM     16  C   UNL     1       5.033   3.918  18.931  0.00  0.00    +0.000 C 
ATOM     17  C   UNL     1       3.578   3.803  18.482  0.00  0.00    +0.000 C 
ATOM     18  C   UNL     1       3.249   4.744  17.323  0.00  0.00    +0.000 C 
ENDBRANCH  11  13
ENDBRANCH   5   9
BRANCH   6  19
ATOM     19  N   UNL     1      -0.059  10.075  18.217  0.00  0.00    +0.000 N 
ATOM     20  H   UNL     1       0.596  10.695  17.743  0.00  0.00    +0.000 HD
BRANCH  19  21
ATOM     21  C   UNL     1      -1.489  10.292  18.013  0.00  0.00    +0.000 C 
ATOM     22  C   UNL     1      -1.957  11.740  18.214  0.00  0.00    +0.000 C 
ATOM     23  C   UNL     1      -3.484  11.815  18.069  0.00  0.00    +0.000 C 
ATOM     24  C   UNL     1      -3.949  11.302  16.704  0.00  0.00    +0.000 C 
ATOM     25  C   UNL     1      -3.393   9.911  16.395  0.00  0.00    +0.000 C 
ATOM     26  C   UNL     1      -1.878   9.844  16.590  0.00  0.00    +0.000 C 
BRANCH  24  27
ATOM     27  O   UNL     1      -5.373  11.266  16.663  0.00  0.00    +0.000 OA
ATOM     28  H   UNL     1      -5.659  11.453  15.753  0.00  0.00    +0.000 HD
ENDBRANCH  24  27
ENDBRANCH  19  21
ENDBRANCH   6  19
BRANCH   1  29
ATOM     29  C   UNL     1      -1.365  11.143  22.926  0.00  0.00    +0.000 C 
BRANCH  29  30
ATOM     30  C   UNL     1      -1.025  12.634  22.811  0.00  0.00    +0.000 C 
BRANCH  30  32
ATOM     31  C   UNL     1      -3.327  12.803  21.789  0.00  0.00    +0.000 C 
ATOM     32  C   UNL     1      -1.917  13.371  21.807  0.00  0.00    +0.000 C 
ENDBRANCH  30  32
ENDBRANCH  29  30
ENDBRANCH   1  29
TORSDOF 8
ENDMDL
MODEL 4
REMARK VINA RESULT:      -7.1      0.723      1.285
REMARK  Name = 
REMARK  9 active torsions:
REMARK  status: ('A' for Active; 'I' for Inactive)
REMARK    1  A    between atoms: C_1  and  C_2
REMARK    2  A    between atoms: C_2  and  C_3
REMARK    3  A    between atoms: C_3  and  C_4
REMARK    4  A    between atoms: C_4  and  N_5
REMARK    5  A    between atoms: C_9  and  C_10
REMARK    6  A    between atoms: N_12  and  C_13
REMARK    7  A    between atoms: C_19  and  N_20
REMARK    8  A    between atoms: N_20  and  C_21
REMARK    9  A    between atoms: C_24  and  O_25
REMARK                            x       y       z     vdW  Elec       q    Type
REMARK                         _______ _______ _______ _____ _____    ______ ____
ROOT
ATOM      1  N   UNL     1       8.494   8.117  18.023  0.00  0.00    +0.000 N 
ATOM      2  C   UNL     1       7.455   7.228  18.189  0.00  0.00    +0.000 A 
ATOM      3  N   UNL     1       7.764   6.158  18.922  0.00  0.00    +0.000 NA
ATOM      4  C   UNL     1       6.843   5.174  18.951  0.00  0.00    +0.000 A 
ATOM      5  C   UNL     1       5.627   5.222  18.299  0.00  0.00    +0.000 A 
ATOM      6  C   UNL     1       5.350   6.417  17.633  0.00  0.00    +0.000 A 
ATOM      7  N   UNL     1       6.265   7.418  17.599  0.00  0.00    +0.000 NA
ATOM      8  H   UNL     1       9.168   7.952  18.762  0.00  0.00    +0.000 HD
ENDROOT
BRANCH   5   9
ATOM      9  C   UNL     1       4.770   4.006  18.278  0.00  0.00    +0.000 C 
ATOM     10  O   UNL     1       4.663   3.367  17.236  0.00  0.00    +0.000 OA
ATOM     11  N   UNL     1       4.190   3.606  19.470  0.00  0.00    +0.000 N 
ATOM     12  H   UNL     1       4.060   4.285  20.207  0.00  0.00    +0.000 HD
BRANCH  11  13
ATOM     13  C   UNL     1       3.434   2.351  19.595  0.00  0.00    +0.000 C 
ATOM     14  C   UNL     1       2.948   2.107  21.033  0.00  0.00    +0.000 C 
ATOM     15  C   UNL     1       1.836   3.066  21.461  0.00  0.00    +0.000 C 
ATOM     16  C   UNL     1       0.667   3.037  20.481  0.00  0.00    +0.000 C 
ATOM     17  C   UNL     1       1.120   3.263  19.040  0.00  0.00    +0.000 C 
ATOM     18  C   UNL     1       2.244   2.313  18.626  0.00  0.00    +0.000 C 
ENDBRANCH  11  13
ENDBRANCH   5   9
BRANCH   6  19
ATOM     19  N   UNL     1       4.102   6.666  17.056  0.00  0.00    +0.000 N 
ATOM     20  H   UNL     1       4.168   7.026  16.105  0.00  0.00    +0.000 HD
BRANCH  19  21
ATOM     21  C   UNL     1       2.990   7.112  17.891  0.00  0.00    +0.000 C 
ATOM     22  C   UNL     1       3.159   6.834  19.391  0.00  0.00    +0.000 C 
ATOM     23  C   UNL     1       1.888   7.259  20.142  0.00  0.00    +0.000 C 
ATOM     24  C   UNL     1       1.567   8.739  19.919  0.00  0.00    +0.000 C 
ATOM     25  C   UNL     1       1.524   9.098  18.434  0.00  0.00    +0.000 C 
ATOM     26  C   UNL     1       2.777   8.626  17.694  0.00  0.00    +0.000 C 
BRANCH  24  27
ATOM     27  O   UNL     1       0.315   9.055  20.522  0.00  0.00    +0.000 OA
ATOM     28  H   UNL     1       0.471   9.697  21.236  0.00  0.00    +0.000 HD
ENDBRANCH  24  27
ENDBRANCH  19  21
ENDBRANCH   6  19
BRANCH   1  29
ATOM     29  C   UNL     1       8.181   9.490  17.699  0.00  0.00    +0.000 C 
BRANCH  29  30
ATOM     30  C   UNL     1       8.963  10.423  18.630  0.00  0.00    +0.000 C 
BRANCH  30  32
ATOM     31  C   UNL     1      11.154  11.655  18.871  0.00  0.00    +0.000 C 
ATOM     32  C   UNL     1      10.074  11.191  17.907  0.00  0.00    +0.000 C 
ENDBRANCH  30  32
ENDBRANCH  29  30
ENDBRANCH   1  29
TORSDOF 8
ENDMDL
MODEL 5
REMARK VINA RESULT:      -6.9      3.047      7.918
REMARK  Name = 
REMARK  9 active torsions:
REMARK  status: ('A' for Active; 'I' for Inactive)
REMARK    1  A    between atoms: C_1  and  C_2
REMARK    2  A    between atoms: C_2  and  C_3
REMARK    3  A    between atoms: C_3  and  C_4
REMARK    4  A    between atoms: C_4  and  N_5
REMARK    5  A    between atoms: C_9  and  C_10
REMARK    6  A    between atoms: N_12  and  C_13
REMARK    7  A    between atoms: C_19  and  N_20
REMARK    8  A    between atoms: N_20  and  C_21
REMARK    9  A    between atoms: C_24  and  O_25
REMARK                            x       y       z     vdW  Elec       q    Type
REMARK                         _______ _______ _______ _____ _____    ______ ____
ROOT
ATOM      1  N   UNL     1       1.657   4.338  20.868  0.00  0.00    +0.000 N 
ATOM      2  C   UNL     1       1.904   5.583  20.333  0.00  0.00    +0.000 A 
ATOM      3  N   UNL     1       1.352   6.589  21.012  0.00  0.00    +0.000 NA
ATOM      4  C   UNL     1       1.405   7.801  20.423  0.00  0.00    +0.000 A 
ATOM      5  C   UNL     1       2.000   8.052  19.203  0.00  0.00    +0.000 A 
ATOM      6  C   UNL     1       2.634   6.959  18.608  0.00  0.00    +0.000 A 
ATOM      7  N   UNL     1       2.592   5.735  19.191  0.00  0.00    +0.000 NA
ATOM      8  H   UNL     1       1.399   4.462  21.841  0.00  0.00    +0.000 HD
ENDROOT
BRANCH   5   9
ATOM      9  C   UNL     1       1.849   9.399  18.589  0.00  0.00    +0.000 C 
ATOM     10  O   UNL     1       2.213   9.572  17.430  0.00  0.00    +0.000 OA
ATOM     11  N   UNL     1       1.227  10.382  19.339  0.00  0.00    +0.000 N 
ATOM     12  H   UNL     1       1.210  10.298  20.346  0.00  0.00    +0.000 HD
BRANCH  11  13
ATOM     13  C   UNL     1       0.908  11.708  18.787  0.00  0.00    +0.000 C 
ATOM     14  C   UNL     1      -0.412  12.266  19.346  0.00  0.00    +0.000 C 
ATOM     15  C   UNL     1      -0.317  12.668  20.817  0.00  0.00    +0.000 C 
ATOM     16  C   UNL     1       0.830  13.646  21.056  0.00  0.00    +0.000 C 
ATOM     17  C   UNL     1       2.153  13.126  20.499  0.00  0.00    +0.000 C 
ATOM     18  C   UNL     1       2.045  12.708  19.033  0.00  0.00    +0.000 C 
ENDBRANCH  11  13
ENDBRANCH   5   9
BRANCH   6  19
ATOM     19  N   UNL     1       3.401   7.094  17.449  0.00  0.00    +0.000 N 
ATOM     20  H   UNL     1       2.842   7.087  16.598  0.00  0.00    +0.000 HD
BRANCH  19  21
ATOM     21  C   UNL     1       4.748   6.532  17.399  0.00  0.00    +0.000 C 
ATOM     22  C   UNL     1       5.230   5.897  18.711  0.00  0.00    +0.000 C 
ATOM     23  C   UNL     1       6.686   5.433  18.557  0.00  0.00    +0.000 C 
ATOM     24  C   UNL     1       6.845   4.436  17.406  0.00  0.00    +0.000 C 
ATOM     25  C   UNL     1       6.252   4.969  16.102  0.00  0.00    +0.000 C 
ATOM     26  C   UNL     1       4.818   5.469  16.285  0.00  0.00    +0.000 C 
BRANCH  24  27
ATOM     27  O   UNL     1       8.225   4.137  17.216  0.00  0.00    +0.000 OA
ATOM     28  H   UNL     1       8.721   4.472  17.982  0.00  0.00    +0.000 HD
ENDBRANCH  24  27
ENDBRANCH  19  21
ENDBRANCH   6  19
BRANCH   1  29
ATOM     29  C   UNL     1       2.562   3.259  20.549  0.00  0.00    +0.000 C 
BRANCH  29  30
ATOM     30  C   UNL     1       1.825   2.208  19.711  0.00  0.00    +0.000 C 
BRANCH  30  32
ATOM     31  C   UNL     1       3.708   2.468  18.050  0.00  0.00    +0.000 C 
ATOM     32  C   UNL     1       2.215   2.248  18.230  0.00  0.00    +0.000 C 
ENDBRANCH  30  32
ENDBRANCH  29  30
ENDBRANCH   1  29
TORSDOF 8
ENDMDL
MODEL 6
REMARK VINA RESULT:      -6.8      2.999      7.853
REMARK  Name = 
REMARK  9 active torsions:
REMARK  status: ('A' for Active; 'I' for Inactive)
REMARK    1  A    between atoms: C_1  and  C_2
REMARK    2  A    between atoms: C_2  and  C_3
REMARK    3  A    between atoms: C_3  and  C_4
REMARK    4  A    between atoms: C_4  and  N_5
REMARK    5  A    between atoms: C_9  and  C_10
REMARK    6  A    between atoms: N_12  and  C_13
REMARK    7  A    between atoms: C_19  and  N_20
REMARK    8  A    between atoms: N_20  and  C_21
REMARK    9  A    between atoms: C_24  and  O_25
REMARK                            x       y       z     vdW  Elec       q    Type
REMARK                         _______ _______ _______ _____ _____    ______ ____
ROOT
ATOM      1  N   UNL     1       1.703   4.431  21.023  0.00  0.00    +0.000 N 
ATOM      2  C   UNL     1       1.904   5.676  20.471  0.00  0.00    +0.000 A 
ATOM      3  N   UNL     1       1.281   6.665  21.113  0.00  0.00    +0.000 NA
ATOM      4  C   UNL     1       1.292   7.867  20.502  0.00  0.00    +0.000 A 
ATOM      5  C   UNL     1       1.910   8.125  19.295  0.00  0.00    +0.000 A 
ATOM      6  C   UNL     1       2.615   7.055  18.741  0.00  0.00    +0.000 A 
ATOM      7  N   UNL     1       2.618   5.842  19.347  0.00  0.00    +0.000 NA
ATOM      8  H   UNL     1       1.410   4.559  21.985  0.00  0.00    +0.000 HD
ENDROOT
BRANCH   5   9
ATOM      9  C   UNL     1       1.711   9.451  18.650  0.00  0.00    +0.000 C 
ATOM     10  O   UNL     1       1.929   9.571  17.448  0.00  0.00    +0.000 OA
ATOM     11  N   UNL     1       1.210  10.478  19.431  0.00  0.00    +0.000 N 
ATOM     12  H   UNL     1       1.319  10.433  20.435  0.00  0.00    +0.000 HD
BRANCH  11  13
ATOM     13  C   UNL     1       0.851  11.790  18.870  0.00  0.00    +0.000 C 
ATOM     14  C   UNL     1      -0.645  11.885  18.530  0.00  0.00    +0.000 C 
ATOM     15  C   UNL     1      -1.539  11.935  19.768  0.00  0.00    +0.000 C 
ATOM     16  C   UNL     1      -1.125  13.060  20.711  0.00  0.00    +0.000 C 
ATOM     17  C   UNL     1       0.361  13.001  21.058  0.00  0.00    +0.000 C 
ATOM     18  C   UNL     1       1.248  12.933  19.814  0.00  0.00    +0.000 C 
ENDBRANCH  11  13
ENDBRANCH   5   9
BRANCH   6  19
ATOM     19  N   UNL     1       3.410   7.208  17.602  0.00  0.00    +0.000 N 
ATOM     20  H   UNL     1       2.914   7.641  16.825  0.00  0.00    +0.000 HD
BRANCH  19  21
ATOM     21  C   UNL     1       4.445   6.222  17.301  0.00  0.00    +0.000 C 
ATOM     22  C   UNL     1       5.109   6.384  15.926  0.00  0.00    +0.000 C 
ATOM     23  C   UNL     1       6.102   5.236  15.693  0.00  0.00    +0.000 C 
ATOM     24  C   UNL     1       7.173   5.182  16.785  0.00  0.00    +0.000 C 
ATOM     25  C   UNL     1       6.560   5.159  18.186  0.00  0.00    +0.000 C 
ATOM     26  C   UNL     1       5.540   6.281  18.384  0.00  0.00    +0.000 C 
BRANCH  24  27
ATOM     27  O   UNL     1       7.989   4.029  16.603  0.00  0.00    +0.000 OA
ATOM     28  H   UNL     1       7.725   3.359  17.256  0.00  0.00    +0.000 HD
ENDBRANCH  24  27
ENDBRANCH  19  21
ENDBRANCH   6  19
BRANCH   1  29
ATOM     29  C   UNL     1       2.669   3.393  20.752  0.00  0.00    +0.000 C 
BRANCH  29  30
ATOM     30  C   UNL     1       2.133   2.471  19.651  0.00  0.00    +0.000 C 
BRANCH  30  32
ATOM     31  C   UNL     1       3.341   2.685  17.445  0.00  0.00    +0.000 C 
ATOM     32  C   UNL     1       3.239   1.913  18.751  0.00  0.00    +0.000 C 
ENDBRANCH  30  32
ENDBRANCH  29  30
ENDBRANCH   1  29
TORSDOF 8
ENDMDL
MODEL 7
REMARK VINA RESULT:      -6.7      3.175      6.828
REMARK  Name = 
REMARK  9 active torsions:
REMARK  status: ('A' for Active; 'I' for Inactive)
REMARK    1  A    between atoms: C_1  and  C_2
REMARK    2  A    between atoms: C_2  and  C_3
REMARK    3  A    between atoms: C_3  and  C_4
REMARK    4  A    between atoms: C_4  and  N_5
REMARK    5  A    between atoms: C_9  and  C_10
REMARK    6  A    between atoms: N_12  and  C_13
REMARK    7  A    between atoms: C_19  and  N_20
REMARK    8  A    between atoms: N_20  and  C_21
REMARK    9  A    between atoms: C_24  and  O_25
REMARK                            x       y       z     vdW  Elec       q    Type
REMARK                         _______ _______ _______ _____ _____    ______ ____
ROOT
ATOM      1  N   UNL     1       0.485  10.016  18.026  0.00  0.00    +0.000 N 
ATOM      2  C   UNL     1       1.503   9.123  18.280  0.00  0.00    +0.000 A 
ATOM      3  N   UNL     1       2.530   9.211  17.435  0.00  0.00    +0.000 NA
ATOM      4  C   UNL     1       3.456   8.235  17.526  0.00  0.00    +0.000 A 
ATOM      5  C   UNL     1       3.410   7.195  18.432  0.00  0.00    +0.000 A 
ATOM      6  C   UNL     1       2.349   7.235  19.339  0.00  0.00    +0.000 A 
ATOM      7  N   UNL     1       1.412   8.213  19.262  0.00  0.00    +0.000 NA
ATOM      8  H   UNL     1       0.867  10.774  17.471  0.00  0.00    +0.000 HD
ENDROOT
BRANCH   5   9
ATOM      9  C   UNL     1       4.408   6.096  18.323  0.00  0.00    +0.000 C 
ATOM     10  O   UNL     1       4.993   5.717  19.332  0.00  0.00    +0.000 OA
ATOM     11  N   UNL     1       4.570   5.496  17.086  0.00  0.00    +0.000 N 
ATOM     12  H   UNL     1       4.307   6.003  16.252  0.00  0.00    +0.000 HD
BRANCH  11  13
ATOM     13  C   UNL     1       5.429   4.317  16.891  0.00  0.00    +0.000 C 
ATOM     14  C   UNL     1       5.111   3.579  15.580  0.00  0.00    +0.000 C 
ATOM     15  C   UNL     1       5.538   4.357  14.335  0.00  0.00    +0.000 C 
ATOM     16  C   UNL     1       7.012   4.744  14.397  0.00  0.00    +0.000 C 
ATOM     17  C   UNL     1       7.362   5.468  15.695  0.00  0.00    +0.000 C 
ATOM     18  C   UNL     1       6.916   4.691  16.934  0.00  0.00    +0.000 C 
ENDBRANCH  11  13
ENDBRANCH   5   9
BRANCH   6  19
ATOM     19  N   UNL     1       2.255   6.335  20.403  0.00  0.00    +0.000 N 
ATOM     20  H   UNL     1       3.004   6.445  21.085  0.00  0.00    +0.000 HD
BRANCH  19  21
ATOM     21  C   UNL     1       1.713   4.998  20.179  0.00  0.00    +0.000 C 
ATOM     22  C   UNL     1       1.595   4.589  18.704  0.00  0.00    +0.000 C 
ATOM     23  C   UNL     1       0.925   3.212  18.600  0.00  0.00    +0.000 C 
ATOM     24  C   UNL     1       1.700   2.144  19.377  0.00  0.00    +0.000 C 
ATOM     25  C   UNL     1       1.964   2.567  20.822  0.00  0.00    +0.000 C 
ATOM     26  C   UNL     1       2.589   3.960  20.907  0.00  0.00    +0.000 C 
BRANCH  24  27
ATOM     27  O   UNL     1       0.975   0.918  19.364  0.00  0.00    +0.000 OA
ATOM     28  H   UNL     1       1.375   0.317  20.015  0.00  0.00    +0.000 HD
ENDBRANCH  24  27
ENDBRANCH  19  21
ENDBRANCH   6  19
BRANCH   1  29
ATOM     29  C   UNL     1      -0.412  10.363  19.103  0.00  0.00    +0.000 C 
BRANCH  29  30
ATOM     30  C   UNL     1      -1.602  11.150  18.541  0.00  0.00    +0.000 C 
BRANCH  30  32
ATOM     31  C   UNL     1      -3.257   9.647  17.368  0.00  0.00    +0.000 C 
ATOM     32  C   UNL     1      -2.091  10.607  17.195  0.00  0.00    +0.000 C 
ENDBRANCH  30  32
ENDBRANCH  29  30
ENDBRANCH   1  29
TORSDOF 8
ENDMDL
MODEL 8
REMARK VINA RESULT:      -6.7      3.105      7.695
REMARK  Name = 
REMARK  9 active torsions:
REMARK  status: ('A' for Active; 'I' for Inactive)
REMARK    1  A    between atoms: C_1  and  C_2
REMARK    2  A    between atoms: C_2  and  C_3
REMARK    3  A    between atoms: C_3  and  C_4
REMARK    4  A    between atoms: C_4  and  N_5
REMARK    5  A    between atoms: C_9  and  C_10
REMARK    6  A    between atoms: N_12  and  C_13
REMARK    7  A    between atoms: C_19  and  N_20
REMARK    8  A    between atoms: N_20  and  C_21
REMARK    9  A    between atoms: C_24  and  O_25
REMARK                            x       y       z     vdW  Elec       q    Type
REMARK                         _______ _______ _______ _____ _____    ______ ____
ROOT
ATOM      1  N   UNL     1       1.225   3.674  20.829  0.00  0.00    +0.000 N 
ATOM      2  C   UNL     1       1.604   4.915  20.366  0.00  0.00    +0.000 A 
ATOM      3  N   UNL     1       1.254   5.925  21.163  0.00  0.00    +0.000 NA
ATOM      4  C   UNL     1       1.432   7.164  20.662  0.00  0.00    +0.000 A 
ATOM      5  C   UNL     1       1.960   7.435  19.415  0.00  0.00    +0.000 A 
ATOM      6  C   UNL     1       2.385   6.321  18.689  0.00  0.00    +0.000 A 
ATOM      7  N   UNL     1       2.216   5.069  19.182  0.00  0.00    +0.000 NA
ATOM      8  H   UNL     1       1.064   3.749  21.827  0.00  0.00    +0.000 HD
ENDROOT
BRANCH   5   9
ATOM      9  C   UNL     1       1.954   8.837  18.916  0.00  0.00    +0.000 C 
ATOM     10  O   UNL     1       2.523   9.099  17.861  0.00  0.00    +0.000 OA
ATOM     11  N   UNL     1       1.233   9.773  19.637  0.00  0.00    +0.000 N 
ATOM     12  H   UNL     1       1.034   9.599  20.613  0.00  0.00    +0.000 HD
BRANCH  11  13
ATOM     13  C   UNL     1       1.050  11.155  19.168  0.00  0.00    +0.000 C 
ATOM     14  C   UNL     1      -0.325  11.367  18.512  0.00  0.00    +0.000 C 
ATOM     15  C   UNL     1      -1.479  11.330  19.513  0.00  0.00    +0.000 C 
ATOM     16  C   UNL     1      -1.262  12.323  20.651  0.00  0.00    +0.000 C 
ATOM     17  C   UNL     1       0.102  12.147  21.315  0.00  0.00    +0.000 C 
ATOM     18  C   UNL     1       1.249  12.166  20.304  0.00  0.00    +0.000 C 
ENDBRANCH  11  13
ENDBRANCH   5   9
BRANCH   6  19
ATOM     19  N   UNL     1       3.072   6.448  17.479  0.00  0.00    +0.000 N 
ATOM     20  H   UNL     1       2.478   6.293  16.665  0.00  0.00    +0.000 HD
BRANCH  19  21
ATOM     21  C   UNL     1       4.477   6.060  17.396  0.00  0.00    +0.000 C 
ATOM     22  C   UNL     1       5.140   5.747  18.745  0.00  0.00    +0.000 C 
ATOM     23  C   UNL     1       6.631   5.451  18.533  0.00  0.00    +0.000 C 
ATOM     24  C   UNL     1       6.845   4.284  17.564  0.00  0.00    +0.000 C 
ATOM     25  C   UNL     1       6.088   4.486  16.251  0.00  0.00    +0.000 C 
ATOM     26  C   UNL     1       4.615   4.826  16.484  0.00  0.00    +0.000 C 
BRANCH  24  27
ATOM     27  O   UNL     1       8.235   4.131  17.295  0.00  0.00    +0.000 OA
ATOM     28  H   UNL     1       8.682   3.873  18.119  0.00  0.00    +0.000 HD
ENDBRANCH  24  27
ENDBRANCH  19  21
ENDBRANCH   6  19
BRANCH   1  29
ATOM     29  C   UNL     1       1.940   2.513  20.353  0.00  0.00    +0.000 C 
BRANCH  29  30
ATOM     30  C   UNL     1       3.419   2.634  20.738  0.00  0.00    +0.000 C 
BRANCH  30  32
ATOM     31  C   UNL     1       3.629   1.824  18.356  0.00  0.00    +0.000 C 
ATOM     32  C   UNL     1       4.360   2.076  19.665  0.00  0.00    +0.000 C 
ENDBRANCH  30  32
ENDBRANCH  29  30
ENDBRANCH   1  29
TORSDOF 8
ENDMDL
MODEL 9
REMARK VINA RESULT:      -6.6      2.911      7.224
REMARK  Name = 
REMARK  9 active torsions:
REMARK  status: ('A' for Active; 'I' for Inactive)
REMARK    1  A    between atoms: C_1  and  C_2
REMARK    2  A    between atoms: C_2  and  C_3
REMARK    3  A    between atoms: C_3  and  C_4
REMARK    4  A    between atoms: C_4  and  N_5
REMARK    5  A    between atoms: C_9  and  C_10
REMARK    6  A    between atoms: N_12  and  C_13
REMARK    7  A    between atoms: C_19  and  N_20
REMARK    8  A    between atoms: N_20  and  C_21
REMARK    9  A    between atoms: C_24  and  O_25
REMARK                            x       y       z     vdW  Elec       q    Type
REMARK                         _______ _______ _______ _____ _____    ______ ____
ROOT
ATOM      1  N   UNL     1      -0.282  10.417  21.051  0.00  0.00    +0.000 N 
ATOM      2  C   UNL     1       0.630   9.567  20.467  0.00  0.00    +0.000 A 
ATOM      3  N   UNL     1       1.062   9.967  19.271  0.00  0.00    +0.000 NA
ATOM      4  C   UNL     1       1.803   9.077  18.581  0.00  0.00    +0.000 A 
ATOM      5  C   UNL     1       2.146   7.821  19.040  0.00  0.00    +0.000 A 
ATOM      6  C   UNL     1       1.729   7.523  20.339  0.00  0.00    +0.000 A 
ATOM      7  N   UNL     1       0.986   8.410  21.047  0.00  0.00    +0.000 NA
ATOM      8  H   UNL     1      -0.182  11.328  20.617  0.00  0.00    +0.000 HD
ENDROOT
BRANCH   5   9
ATOM      9  C   UNL     1       2.831   6.876  18.117  0.00  0.00    +0.000 C 
ATOM     10  O   UNL     1       2.169   6.020  17.537  0.00  0.00    +0.000 OA
ATOM     11  N   UNL     1       4.185   7.060  17.897  0.00  0.00    +0.000 N 
ATOM     12  H   UNL     1       4.734   7.559  18.583  0.00  0.00    +0.000 HD
BRANCH  11  13
ATOM     13  C   UNL     1       4.935   6.270  16.907  0.00  0.00    +0.000 C 
ATOM     14  C   UNL     1       6.265   6.938  16.520  0.00  0.00    +0.000 C 
ATOM     15  C   UNL     1       7.301   6.905  17.644  0.00  0.00    +0.000 C 
ATOM     16  C   UNL     1       7.533   5.484  18.147  0.00  0.00    +0.000 C 
ATOM     17  C   UNL     1       6.228   4.789  18.527  0.00  0.00    +0.000 C 
ATOM     18  C   UNL     1       5.191   4.842  17.405  0.00  0.00    +0.000 C 
ENDBRANCH  11  13
ENDBRANCH   5   9
BRANCH   6  19
ATOM     19  N   UNL     1       2.127   6.353  20.989  0.00  0.00    +0.000 N 
ATOM     20  H   UNL     1       2.830   6.515  21.708  0.00  0.00    +0.000 HD
BRANCH  19  21
ATOM     21  C   UNL     1       2.164   5.090  20.256  0.00  0.00    +0.000 C 
ATOM     22  C   UNL     1       3.260   4.115  20.707  0.00  0.00    +0.000 C 
ATOM     23  C   UNL     1       3.256   2.876  19.800  0.00  0.00    +0.000 C 
ATOM     24  C   UNL     1       1.897   2.172  19.808  0.00  0.00    +0.000 C 
ATOM     25  C   UNL     1       0.751   3.136  19.499  0.00  0.00    +0.000 C 
ATOM     26  C   UNL     1       0.799   4.385  20.381  0.00  0.00    +0.000 C 
BRANCH  24  27
ATOM     27  O   UNL     1       1.898   1.112  18.857  0.00  0.00    +0.000 OA
ATOM     28  H   UNL     1       1.576   0.305  19.294  0.00  0.00    +0.000 HD
ENDBRANCH  24  27
ENDBRANCH  19  21
ENDBRANCH   6  19
BRANCH   1  29
ATOM     29  C   UNL     1      -0.443  10.375  22.486  0.00  0.00    +0.000 C 
BRANCH  29  30
ATOM     30  C   UNL     1      -1.379  11.507  22.926  0.00  0.00    +0.000 C 
BRANCH  30  32
ATOM     31  C   UNL     1      -3.138  13.161  22.190  0.00  0.00    +0.000 C 
ATOM     32  C   UNL     1      -1.994  12.263  21.745  0.00  0.00    +0.000 C 
ENDBRANCH  30  32
ENDBRANCH  29  30
ENDBRANCH   1  29
TORSDOF 8
ENDMDL
