MODEL 1
REMARK VINA RESULT:      -6.0      0.000      0.000
REMARK  Name = 
REMARK  18 active torsions:
REMARK  status: ('A' for Active; 'I' for Inactive)
REMARK    1  A    between atoms: C_1  and  C_2
REMARK    2  A    between atoms: C_2  and  C_3
REMARK    3  A    between atoms: C_3  and  C_4
REMARK    4  A    between atoms: C_4  and  C_5
REMARK    5  A    between atoms: C_5  and  C_6
REMARK    6  A    between atoms: C_6  and  C_7
REMARK    7  A    between atoms: C_7  and  C_8
REMARK    8  A    between atoms: C_8  and  C_9
REMARK    9  A    between atoms: C_9  and  C_10
REMARK   10  A    between atoms: C_10  and  C_11
REMARK   11  A    between atoms: C_11  and  C_12
REMARK   12  A    between atoms: C_12  and  C_13
REMARK   13  A    between atoms: C_13  and  C_14
REMARK   14  A    between atoms: C_14  and  C_15
REMARK   15  A    between atoms: C_15  and  C_16
REMARK   16  A    between atoms: N_18  and  C_19
REMARK   17  A    between atoms: C_19  and  C_20
REMARK   18  A    between atoms: C_20  and  C_21
REMARK                            x       y       z     vdW  Elec       q    Type
REMARK                         _______ _______ _______ _____ _____    ______ ____
ROOT
ATOM      1  C   UNL     1       2.097   2.302  18.890  0.00  0.00    +0.000 C 
ATOM      2  O   UNL     1       1.291   2.421  17.972  0.00  0.00    +0.000 OA
ATOM      3  N   UNL     1       3.443   2.562  18.722  0.00  0.00    +0.000 N 
ATOM      4  H   UNL     1       4.097   2.454  19.481  0.00  0.00    +0.000 HD
ENDROOT
BRANCH   3   5
ATOM      5  C   UNL     1       3.926   2.991  17.421  0.00  0.00    +0.000 C 
BRANCH   5   6
ATOM      6  C   UNL     1       3.480   4.403  17.053  0.00  0.00    +0.000 C 
BRANCH   6   7
ATOM      7  C   UNL     1       4.647   5.327  16.854  0.00  0.00    +0.000 A 
ATOM      8  C   UNL     1       4.926   6.078  15.727  0.00  0.00    +0.000 A 
ATOM      9  N   UNL     1       6.095   6.757  15.942  0.00  0.00    +0.000 N 
ATOM     10  C   UNL     1       6.605   6.455  17.182  0.00  0.00    +0.000 A 
ATOM     11  C   UNL     1       7.780   6.888  17.809  0.00  0.00    +0.000 A 
ATOM     12  C   UNL     1       8.056   6.390  19.087  0.00  0.00    +0.000 A 
ATOM     13  C   UNL     1       7.180   5.509  19.715  0.00  0.00    +0.000 A 
ATOM     14  C   UNL     1       6.003   5.095  19.080  0.00  0.00    +0.000 A 
ATOM     15  C   UNL     1       5.710   5.568  17.785  0.00  0.00    +0.000 A 
ATOM     16  H   UNL     1       6.532   7.376  15.274  0.00  0.00    +0.000 HD
ENDBRANCH   6   7
ENDBRANCH   5   6
ENDBRANCH   3   5
BRANCH   1  17
ATOM     17  C   UNL     1       1.704   1.866  20.285  0.00  0.00    +0.000 C 
BRANCH  17  18
ATOM     18  C   UNL     1       1.155   3.060  21.063  0.00  0.00    +0.000 C 
BRANCH  18  19
ATOM     19  C   UNL     1       2.240   4.064  21.425  0.00  0.00    +0.000 C 
BRANCH  19  20
ATOM     20  C   UNL     1       1.770   5.483  21.110  0.00  0.00    +0.000 C 
BRANCH  20  21
ATOM     21  C   UNL     1       1.994   5.806  19.641  0.00  0.00    +0.000 C 
BRANCH  21  22
ATOM     22  C   UNL     1       2.428   7.254  19.474  0.00  0.00    +0.000 C 
BRANCH  22  23
ATOM     23  C   UNL     1       1.934   7.798  18.144  0.00  0.00    +0.000 C 
BRANCH  23  24
ATOM     24  C   UNL     1       2.534   9.169  17.880  0.00  0.00    +0.000 C 
BRANCH  24  25
ATOM     25  C   UNL     1       1.483  10.247  18.082  0.00  0.00    +0.000 C 
BRANCH  25  26
ATOM     26  C   UNL     1       0.093   9.658  17.911  0.00  0.00    +0.000 C 
BRANCH  26  27
ATOM     27  C   UNL     1      -0.883  10.331  18.863  0.00  0.00    +0.000 C 
BRANCH  27  28
ATOM     28  C   UNL     1      -0.267  10.454  20.248  0.00  0.00    +0.000 C 
BRANCH  28  29
ATOM     29  C   UNL     1      -0.418   9.146  21.012  0.00  0.00    +0.000 C 
BRANCH  29  31
ATOM     30  C   UNL     1       1.597   9.130  22.494  0.00  0.00    +0.000 C 
ATOM     31  C   UNL     1       0.089   9.295  22.440  0.00  0.00    +0.000 C 
ENDBRANCH  29  31
ENDBRANCH  28  29
ENDBRANCH  27  28
ENDBRANCH  26  27
ENDBRANCH  25  26
ENDBRANCH  24  25
ENDBRANCH  23  24
ENDBRANCH  22  23
ENDBRANCH  21  22
ENDBRANCH  20  21
ENDBRANCH  19  20
ENDBRANCH  18  19
ENDBRANCH  17  18
ENDBRANCH   1  17
TORSDOF 17
ENDMDL
MODEL 2
REMARK VINA RESULT:      -6.0      3.268      8.275
REMARK  Name = 
REMARK  18 active torsions:
REMARK  status: ('A' for Active; 'I' for Inactive)
REMARK    1  A    between atoms: C_1  and  C_2
REMARK    2  A    between atoms: C_2  and  C_3
REMARK    3  A    between atoms: C_3  and  C_4
REMARK    4  A    between atoms: C_4  and  C_5
REMARK    5  A    between atoms: C_5  and  C_6
REMARK    6  A    between atoms: C_6  and  C_7
REMARK    7  A    between atoms: C_7  and  C_8
REMARK    8  A    between atoms: C_8  and  C_9
REMARK    9  A    between atoms: C_9  and  C_10
REMARK   10  A    between atoms: C_10  and  C_11
REMARK   11  A    between atoms: C_11  and  C_12
REMARK   12  A    between atoms: C_12  and  C_13
REMARK   13  A    between atoms: C_13  and  C_14
REMARK   14  A    between atoms: C_14  and  C_15
REMARK   15  A    between atoms: C_15  and  C_16
REMARK   16  A    between atoms: N_18  and  C_19
REMARK   17  A    between atoms: C_19  and  C_20
REMARK   18  A    between atoms: C_20  and  C_21
REMARK                            x       y       z     vdW  Elec       q    Type
REMARK                         _______ _______ _______ _____ _____    ______ ____
ROOT
ATOM      1  C   UNL     1       1.726   8.552  19.429  0.00  0.00    +0.000 C 
ATOM      2  O   UNL     1       1.725   8.659  20.652  0.00  0.00    +0.000 OA
ATOM      3  N   UNL     1       1.228   9.543  18.607  0.00  0.00    +0.000 N 
ATOM      4  H   UNL     1       1.227   9.444  17.605  0.00  0.00    +0.000 HD
ENDROOT
BRANCH   3   5
ATOM      5  C   UNL     1       0.685  10.753  19.202  0.00  0.00    +0.000 C 
BRANCH   5   6
ATOM      6  C   UNL     1      -0.623  10.517  19.951  0.00  0.00    +0.000 C 
BRANCH   6   7
ATOM      7  C   UNL     1      -1.789  11.168  19.265  0.00  0.00    +0.000 A 
ATOM      8  C   UNL     1      -2.568  12.201  19.753  0.00  0.00    +0.000 A 
ATOM      9  N   UNL     1      -3.544  12.477  18.834  0.00  0.00    +0.000 N 
ATOM     10  C   UNL     1      -3.437  11.633  17.754  0.00  0.00    +0.000 A 
ATOM     11  C   UNL     1      -4.227  11.533  16.601  0.00  0.00    +0.000 A 
ATOM     12  C   UNL     1      -3.887  10.551  15.665  0.00  0.00    +0.000 A 
ATOM     13  C   UNL     1      -2.792   9.716  15.870  0.00  0.00    +0.000 A 
ATOM     14  C   UNL     1      -2.005   9.837  17.021  0.00  0.00    +0.000 A 
ATOM     15  C   UNL     1      -2.337  10.807  17.989  0.00  0.00    +0.000 A 
ATOM     16  H   UNL     1      -4.254  13.186  18.943  0.00  0.00    +0.000 HD
ENDBRANCH   6   7
ENDBRANCH   5   6
ENDBRANCH   3   5
BRANCH   1  17
ATOM     17  C   UNL     1       2.269   7.340  18.704  0.00  0.00    +0.000 C 
BRANCH  17  18
ATOM     18  C   UNL     1       2.810   6.333  19.717  0.00  0.00    +0.000 C 
BRANCH  18  19
ATOM     19  C   UNL     1       1.715   5.450  20.298  0.00  0.00    +0.000 C 
BRANCH  19  20
ATOM     20  C   UNL     1       2.327   4.362  21.177  0.00  0.00    +0.000 C 
BRANCH  20  21
ATOM     21  C   UNL     1       1.475   3.103  21.139  0.00  0.00    +0.000 C 
BRANCH  21  22
ATOM     22  C   UNL     1       1.735   2.323  19.859  0.00  0.00    +0.000 C 
BRANCH  22  23
ATOM     23  C   UNL     1       3.162   2.553  19.388  0.00  0.00    +0.000 C 
BRANCH  23  24
ATOM     24  C   UNL     1       3.369   1.935  18.015  0.00  0.00    +0.000 C 
BRANCH  24  25
ATOM     25  C   UNL     1       3.022   2.941  16.932  0.00  0.00    +0.000 C 
BRANCH  25  26
ATOM     26  C   UNL     1       3.713   4.266  17.209  0.00  0.00    +0.000 C 
BRANCH  26  27
ATOM     27  C   UNL     1       4.913   4.433  16.292  0.00  0.00    +0.000 C 
BRANCH  27  28
ATOM     28  C   UNL     1       5.173   5.908  16.027  0.00  0.00    +0.000 C 
BRANCH  28  29
ATOM     29  C   UNL     1       5.658   6.595  17.296  0.00  0.00    +0.000 C 
BRANCH  29  31
ATOM     30  C   UNL     1       6.821   5.484  19.211  0.00  0.00    +0.000 C 
ATOM     31  C   UNL     1       6.961   5.974  17.781  0.00  0.00    +0.000 C 
ENDBRANCH  29  31
ENDBRANCH  28  29
ENDBRANCH  27  28
ENDBRANCH  26  27
ENDBRANCH  25  26
ENDBRANCH  24  25
ENDBRANCH  23  24
ENDBRANCH  22  23
ENDBRANCH  21  22
ENDBRANCH  20  21
ENDBRANCH  19  20
ENDBRANCH  18  19
ENDBRANCH  17  18
ENDBRANCH   1  17
TORSDOF 17
ENDMDL
MODEL 3
REMARK VINA RESULT:      -5.9      4.657      7.730
REMARK  Name = 
REMARK  18 active torsions:
REMARK  status: ('A' for Active; 'I' for Inactive)
REMARK    1  A    between atoms: C_1  and  C_2
REMARK    2  A    between atoms: C_2  and  C_3
REMARK    3  A    between atoms: C_3  and  C_4
REMARK    4  A    between atoms: C_4  and  C_5
REMARK    5  A    between atoms: C_5  and  C_6
REMARK    6  A    between atoms: C_6  and  C_7
REMARK    7  A    between atoms: C_7  and  C_8
REMARK    8  A    between atoms: C_8  and  C_9
REMARK    9  A    between atoms: C_9  and  C_10
REMARK   10  A    between atoms: C_10  and  C_11
REMARK   11  A    between atoms: C_11  and  C_12
REMARK   12  A    between atoms: C_12  and  C_13
REMARK   13  A    between atoms: C_13  and  C_14
REMARK   14  A    between atoms: C_14  and  C_15
REMARK   15  A    between atoms: C_15  and  C_16
REMARK   16  A    between atoms: N_18  and  C_19
REMARK   17  A    between atoms: C_19  and  C_20
REMARK   18  A    between atoms: C_20  and  C_21
REMARK                            x       y       z     vdW  Elec       q    Type
REMARK                         _______ _______ _______ _____ _____    ______ ____
ROOT
ATOM      1  C   UNL     1       6.748   6.558  17.145  0.00  0.00    +0.000 C 
ATOM      2  O   UNL     1       6.085   7.171  16.314  0.00  0.00    +0.000 OA
ATOM      3  N   UNL     1       6.645   5.189  17.299  0.00  0.00    +0.000 N 
ATOM      4  H   UNL     1       7.189   4.696  17.989  0.00  0.00    +0.000 HD
ENDROOT
BRANCH   3   5
ATOM      5  C   UNL     1       5.727   4.446  16.452  0.00  0.00    +0.000 C 
BRANCH   5   6
ATOM      6  C   UNL     1       4.301   4.423  16.992  0.00  0.00    +0.000 C 
BRANCH   6   7
ATOM      7  C   UNL     1       4.203   3.680  18.293  0.00  0.00    +0.000 A 
ATOM      8  C   UNL     1       5.141   2.815  18.825  0.00  0.00    +0.000 A 
ATOM      9  N   UNL     1       4.654   2.325  20.006  0.00  0.00    +0.000 N 
ATOM     10  C   UNL     1       3.402   2.835  20.257  0.00  0.00    +0.000 A 
ATOM     11  C   UNL     1       2.522   2.596  21.320  0.00  0.00    +0.000 A 
ATOM     12  C   UNL     1       1.287   3.252  21.301  0.00  0.00    +0.000 A 
ATOM     13  C   UNL     1       0.957   4.124  20.267  0.00  0.00    +0.000 A 
ATOM     14  C   UNL     1       1.852   4.362  19.218  0.00  0.00    +0.000 A 
ATOM     15  C   UNL     1       3.097   3.700  19.204  0.00  0.00    +0.000 A 
ATOM     16  H   UNL     1       5.136   1.666  20.600  0.00  0.00    +0.000 HD
ENDBRANCH   6   7
ENDBRANCH   5   6
ENDBRANCH   3   5
BRANCH   1  17
ATOM     17  C   UNL     1       7.735   7.228  18.075  0.00  0.00    +0.000 C 
BRANCH  17  18
ATOM     18  C   UNL     1       8.150   8.581  17.499  0.00  0.00    +0.000 C 
BRANCH  18  19
ATOM     19  C   UNL     1       8.692   9.523  18.564  0.00  0.00    +0.000 C 
BRANCH  19  20
ATOM     20  C   UNL     1       8.637  10.965  18.069  0.00  0.00    +0.000 C 
BRANCH  20  21
ATOM     21  C   UNL     1      10.028  11.582  18.066  0.00  0.00    +0.000 C 
BRANCH  21  22
ATOM     22  C   UNL     1      10.842  11.066  19.243  0.00  0.00    +0.000 C 
BRANCH  22  23
ATOM     23  C   UNL     1      11.825  12.129  19.705  0.00  0.00    +0.000 C 
BRANCH  23  24
ATOM     24  C   UNL     1      11.205  13.511  19.572  0.00  0.00    +0.000 C 
BRANCH  24  25
ATOM     25  C   UNL     1      10.697  13.986  20.922  0.00  0.00    +0.000 C 
BRANCH  25  26
ATOM     26  C   UNL     1       9.211  14.298  20.840  0.00  0.00    +0.000 C 
BRANCH  26  27
ATOM     27  C   UNL     1       8.396  13.057  21.163  0.00  0.00    +0.000 C 
BRANCH  27  28
ATOM     28  C   UNL     1       9.048  12.278  22.296  0.00  0.00    +0.000 C 
BRANCH  28  29
ATOM     29  C   UNL     1       8.379  12.614  23.621  0.00  0.00    +0.000 C 
BRANCH  29  31
ATOM     30  C   UNL     1       6.370  11.467  24.571  0.00  0.00    +0.000 C 
ATOM     31  C   UNL     1       6.869  12.443  23.522  0.00  0.00    +0.000 C 
ENDBRANCH  29  31
ENDBRANCH  28  29
ENDBRANCH  27  28
ENDBRANCH  26  27
ENDBRANCH  25  26
ENDBRANCH  24  25
ENDBRANCH  23  24
ENDBRANCH  22  23
ENDBRANCH  21  22
ENDBRANCH  20  21
ENDBRANCH  19  20
ENDBRANCH  18  19
ENDBRANCH  17  18
ENDBRANCH   1  17
TORSDOF 17
ENDMDL
MODEL 4
REMARK VINA RESULT:      -5.8      3.421      8.530
REMARK  Name = 
REMARK  18 active torsions:
REMARK  status: ('A' for Active; 'I' for Inactive)
REMARK    1  A    between atoms: C_1  and  C_2
REMARK    2  A    between atoms: C_2  and  C_3
REMARK    3  A    between atoms: C_3  and  C_4
REMARK    4  A    between atoms: C_4  and  C_5
REMARK    5  A    between atoms: C_5  and  C_6
REMARK    6  A    between atoms: C_6  and  C_7
REMARK    7  A    between atoms: C_7  and  C_8
REMARK    8  A    between atoms: C_8  and  C_9
REMARK    9  A    between atoms: C_9  and  C_10
REMARK   10  A    between atoms: C_10  and  C_11
REMARK   11  A    between atoms: C_11  and  C_12
REMARK   12  A    between atoms: C_12  and  C_13
REMARK   13  A    between atoms: C_13  and  C_14
REMARK   14  A    between atoms: C_14  and  C_15
REMARK   15  A    between atoms: C_15  and  C_16
REMARK   16  A    between atoms: N_18  and  C_19
REMARK   17  A    between atoms: C_19  and  C_20
REMARK   18  A    between atoms: C_20  and  C_21
REMARK                            x       y       z     vdW  Elec       q    Type
REMARK                         _______ _______ _______ _____ _____    ______ ____
ROOT
ATOM      1  C   UNL     1       2.582   6.162  20.123  0.00  0.00    +0.000 C 
ATOM      2  O   UNL     1       3.062   6.871  19.244  0.00  0.00    +0.000 OA
ATOM      3  N   UNL     1       1.660   6.644  21.031  0.00  0.00    +0.000 N 
ATOM      4  H   UNL     1       1.277   6.055  21.753  0.00  0.00    +0.000 HD
ENDROOT
BRANCH   3   5
ATOM      5  C   UNL     1       1.241   8.033  20.948  0.00  0.00    +0.000 C 
BRANCH   5   6
ATOM      6  C   UNL     1      -0.114   8.289  21.600  0.00  0.00    +0.000 C 
BRANCH   6   7
ATOM      7  C   UNL     1      -0.378   9.754  21.792  0.00  0.00    +0.000 A 
ATOM      8  C   UNL     1      -0.528  10.419  22.994  0.00  0.00    +0.000 A 
ATOM      9  N   UNL     1      -0.788  11.736  22.729  0.00  0.00    +0.000 N 
ATOM     10  C   UNL     1      -0.832  11.953  21.372  0.00  0.00    +0.000 A 
ATOM     11  C   UNL     1      -1.091  13.124  20.649  0.00  0.00    +0.000 A 
ATOM     12  C   UNL     1      -1.089  13.039  19.253  0.00  0.00    +0.000 A 
ATOM     13  C   UNL     1      -0.822  11.833  18.611  0.00  0.00    +0.000 A 
ATOM     14  C   UNL     1      -0.553  10.674  19.347  0.00  0.00    +0.000 A 
ATOM     15  C   UNL     1      -0.566  10.728  20.756  0.00  0.00    +0.000 A 
ATOM     16  H   UNL     1      -0.945  12.445  23.431  0.00  0.00    +0.000 HD
ENDBRANCH   6   7
ENDBRANCH   5   6
ENDBRANCH   3   5
BRANCH   1  17
ATOM     17  C   UNL     1       2.943   4.703  20.299  0.00  0.00    +0.000 C 
BRANCH  17  18
ATOM     18  C   UNL     1       1.912   4.021  21.197  0.00  0.00    +0.000 C 
BRANCH  18  19
ATOM     19  C   UNL     1       1.114   2.957  20.457  0.00  0.00    +0.000 C 
BRANCH  19  20
ATOM     20  C   UNL     1       1.063   3.280  18.966  0.00  0.00    +0.000 C 
BRANCH  20  21
ATOM     21  C   UNL     1       2.067   2.431  18.201  0.00  0.00    +0.000 C 
BRANCH  21  22
ATOM     22  C   UNL     1       2.669   3.225  17.051  0.00  0.00    +0.000 C 
BRANCH  22  23
ATOM     23  C   UNL     1       4.183   3.262  17.178  0.00  0.00    +0.000 C 
BRANCH  23  24
ATOM     24  C   UNL     1       4.686   4.691  17.056  0.00  0.00    +0.000 C 
BRANCH  24  25
ATOM     25  C   UNL     1       5.115   4.973  15.627  0.00  0.00    +0.000 C 
BRANCH  25  26
ATOM     26  C   UNL     1       6.355   4.162  15.285  0.00  0.00    +0.000 C 
BRANCH  26  27
ATOM     27  C   UNL     1       6.499   4.034  13.777  0.00  0.00    +0.000 C 
BRANCH  27  28
ATOM     28  C   UNL     1       5.129   3.984  13.119  0.00  0.00    +0.000 C 
BRANCH  28  29
ATOM     29  C   UNL     1       5.159   3.064  11.906  0.00  0.00    +0.000 C 
BRANCH  29  31
ATOM     30  C   UNL     1       6.505   1.125  11.080  0.00  0.00    +0.000 C 
ATOM     31  C   UNL     1       6.562   2.519  11.678  0.00  0.00    +0.000 C 
ENDBRANCH  29  31
ENDBRANCH  28  29
ENDBRANCH  27  28
ENDBRANCH  26  27
ENDBRANCH  25  26
ENDBRANCH  24  25
ENDBRANCH  23  24
ENDBRANCH  22  23
ENDBRANCH  21  22
ENDBRANCH  20  21
ENDBRANCH  19  20
ENDBRANCH  18  19
ENDBRANCH  17  18
ENDBRANCH   1  17
TORSDOF 17
ENDMDL
MODEL 5
REMARK VINA RESULT:      -5.8      6.216      8.916
REMARK  Name = 
REMARK  18 active torsions:
REMARK  status: ('A' for Active; 'I' for Inactive)
REMARK    1  A    between atoms: C_1  and  C_2
REMARK    2  A    between atoms: C_2  and  C_3
REMARK    3  A    between atoms: C_3  and  C_4
REMARK    4  A    between atoms: C_4  and  C_5
REMARK    5  A    between atoms: C_5  and  C_6
REMARK    6  A    between atoms: C_6  and  C_7
REMARK    7  A    between atoms: C_7  and  C_8
REMARK    8  A    between atoms: C_8  and  C_9
REMARK    9  A    between atoms: C_9  and  C_10
REMARK   10  A    between atoms: C_10  and  C_11
REMARK   11  A    between atoms: C_11  and  C_12
REMARK   12  A    between atoms: C_12  and  C_13
REMARK   13  A    between atoms: C_13  and  C_14
REMARK   14  A    between atoms: C_14  and  C_15
REMARK   15  A    between atoms: C_15  and  C_16
REMARK   16  A    between atoms: N_18  and  C_19
REMARK   17  A    between atoms: C_19  and  C_20
REMARK   18  A    between atoms: C_20  and  C_21
REMARK                            x       y       z     vdW  Elec       q    Type
REMARK                         _______ _______ _______ _____ _____    ______ ____
ROOT
ATOM      1  C   UNL     1       7.666   7.145  17.828  0.00  0.00    +0.000 C 
ATOM      2  O   UNL     1       8.033   6.581  18.854  0.00  0.00    +0.000 OA
ATOM      3  N   UNL     1       7.033   6.467  16.805  0.00  0.00    +0.000 N 
ATOM      4  H   UNL     1       6.742   6.938  15.963  0.00  0.00    +0.000 HD
ENDROOT
BRANCH   3   5
ATOM      5  C   UNL     1       6.790   5.041  16.943  0.00  0.00    +0.000 C 
BRANCH   5   6
ATOM      6  C   UNL     1       5.485   4.591  16.293  0.00  0.00    +0.000 C 
BRANCH   6   7
ATOM      7  C   UNL     1       4.290   4.928  17.138  0.00  0.00    +0.000 A 
ATOM      8  C   UNL     1       3.904   6.185  17.564  0.00  0.00    +0.000 A 
ATOM      9  N   UNL     1       2.783   6.052  18.338  0.00  0.00    +0.000 N 
ATOM     10  C   UNL     1       2.430   4.728  18.447  0.00  0.00    +0.000 A 
ATOM     11  C   UNL     1       1.381   4.125  19.153  0.00  0.00    +0.000 A 
ATOM     12  C   UNL     1       1.277   2.731  19.097  0.00  0.00    +0.000 A 
ATOM     13  C   UNL     1       2.178   1.977  18.349  0.00  0.00    +0.000 A 
ATOM     14  C   UNL     1       3.213   2.595  17.639  0.00  0.00    +0.000 A 
ATOM     15  C   UNL     1       3.351   3.998  17.694  0.00  0.00    +0.000 A 
ATOM     16  H   UNL     1       2.296   6.817  18.782  0.00  0.00    +0.000 HD
ENDBRANCH   6   7
ENDBRANCH   5   6
ENDBRANCH   3   5
BRANCH   1  17
ATOM     17  C   UNL     1       7.865   8.625  17.580  0.00  0.00    +0.000 C 
BRANCH  17  18
ATOM     18  C   UNL     1       8.701   9.229  18.707  0.00  0.00    +0.000 C 
BRANCH  18  19
ATOM     19  C   UNL     1       9.304  10.573  18.324  0.00  0.00    +0.000 C 
BRANCH  19  20
ATOM     20  C   UNL     1      10.240  11.063  19.426  0.00  0.00    +0.000 C 
BRANCH  20  21
ATOM     21  C   UNL     1      10.952  12.336  18.994  0.00  0.00    +0.000 C 
BRANCH  21  22
ATOM     22  C   UNL     1      11.555  12.166  17.608  0.00  0.00    +0.000 C 
BRANCH  22  23
ATOM     23  C   UNL     1      11.333  13.423  16.784  0.00  0.00    +0.000 C 
BRANCH  23  24
ATOM     24  C   UNL     1      11.506  14.658  17.653  0.00  0.00    +0.000 C 
BRANCH  24  25
ATOM     25  C   UNL     1      11.206  15.910  16.846  0.00  0.00    +0.000 C 
BRANCH  25  26
ATOM     26  C   UNL     1      11.423  17.147  17.702  0.00  0.00    +0.000 C 
BRANCH  26  27
ATOM     27  C   UNL     1      10.425  18.229  17.324  0.00  0.00    +0.000 C 
BRANCH  27  28
ATOM     28  C   UNL     1       9.205  18.162  18.230  0.00  0.00    +0.000 C 
BRANCH  28  29
ATOM     29  C   UNL     1       9.576  17.543  19.570  0.00  0.00    +0.000 C 
BRANCH  29  31
ATOM     30  C   UNL     1       8.596  15.281  19.991  0.00  0.00    +0.000 C 
ATOM     31  C   UNL     1       8.397  16.777  20.155  0.00  0.00    +0.000 C 
ENDBRANCH  29  31
ENDBRANCH  28  29
ENDBRANCH  27  28
ENDBRANCH  26  27
ENDBRANCH  25  26
ENDBRANCH  24  25
ENDBRANCH  23  24
ENDBRANCH  22  23
ENDBRANCH  21  22
ENDBRANCH  20  21
ENDBRANCH  19  20
ENDBRANCH  18  19
ENDBRANCH  17  18
ENDBRANCH   1  17
TORSDOF 17
ENDMDL
MODEL 6
REMARK VINA RESULT:      -5.8      2.012      5.226
REMARK  Name = 
REMARK  18 active torsions:
REMARK  status: ('A' for Active; 'I' for Inactive)
REMARK    1  A    between atoms: C_1  and  C_2
REMARK    2  A    between atoms: C_2  and  C_3
REMARK    3  A    between atoms: C_3  and  C_4
REMARK    4  A    between atoms: C_4  and  C_5
REMARK    5  A    between atoms: C_5  and  C_6
REMARK    6  A    between atoms: C_6  and  C_7
REMARK    7  A    between atoms: C_7  and  C_8
REMARK    8  A    between atoms: C_8  and  C_9
REMARK    9  A    between atoms: C_9  and  C_10
REMARK   10  A    between atoms: C_10  and  C_11
REMARK   11  A    between atoms: C_11  and  C_12
REMARK   12  A    between atoms: C_12  and  C_13
REMARK   13  A    between atoms: C_13  and  C_14
REMARK   14  A    between atoms: C_14  and  C_15
REMARK   15  A    between atoms: C_15  and  C_16
REMARK   16  A    between atoms: N_18  and  C_19
REMARK   17  A    between atoms: C_19  and  C_20
REMARK   18  A    between atoms: C_20  and  C_21
REMARK                            x       y       z     vdW  Elec       q    Type
REMARK                         _______ _______ _______ _____ _____    ______ ____
ROOT
ATOM      1  C   UNL     1       2.560   7.507  18.183  0.00  0.00    +0.000 C 
ATOM      2  O   UNL     1       1.841   6.668  17.649  0.00  0.00    +0.000 OA
ATOM      3  N   UNL     1       3.930   7.515  18.010  0.00  0.00    +0.000 N 
ATOM      4  H   UNL     1       4.512   8.206  18.457  0.00  0.00    +0.000 HD
ENDROOT
BRANCH   3   5
ATOM      5  C   UNL     1       4.545   6.502  17.170  0.00  0.00    +0.000 C 
BRANCH   5   6
ATOM      6  C   UNL     1       5.182   5.368  17.968  0.00  0.00    +0.000 C 
BRANCH   6   7
ATOM      7  C   UNL     1       4.249   4.203  18.131  0.00  0.00    +0.000 A 
ATOM      8  C   UNL     1       4.096   3.136  17.265  0.00  0.00    +0.000 A 
ATOM      9  N   UNL     1       3.125   2.312  17.765  0.00  0.00    +0.000 N 
ATOM     10  C   UNL     1       2.618   2.823  18.936  0.00  0.00    +0.000 A 
ATOM     11  C   UNL     1       1.603   2.339  19.772  0.00  0.00    +0.000 A 
ATOM     12  C   UNL     1       1.281   3.093  20.906  0.00  0.00    +0.000 A 
ATOM     13  C   UNL     1       1.961   4.272  21.196  0.00  0.00    +0.000 A 
ATOM     14  C   UNL     1       2.981   4.736  20.358  0.00  0.00    +0.000 A 
ATOM     15  C   UNL     1       3.314   4.005  19.199  0.00  0.00    +0.000 A 
ATOM     16  H   UNL     1       2.810   1.460  17.324  0.00  0.00    +0.000 HD
ENDBRANCH   6   7
ENDBRANCH   5   6
ENDBRANCH   3   5
BRANCH   1  17
ATOM     17  C   UNL     1       2.027   8.609  19.073  0.00  0.00    +0.000 C 
BRANCH  17  18
ATOM     18  C   UNL     1       0.995   8.034  20.042  0.00  0.00    +0.000 C 
BRANCH  18  19
ATOM     19  C   UNL     1       1.082   8.668  21.423  0.00  0.00    +0.000 C 
BRANCH  19  20
ATOM     20  C   UNL     1      -0.316   9.007  21.935  0.00  0.00    +0.000 C 
BRANCH  20  21
ATOM     21  C   UNL     1      -0.234   9.955  23.122  0.00  0.00    +0.000 C 
BRANCH  21  22
ATOM     22  C   UNL     1      -1.376  10.959  23.082  0.00  0.00    +0.000 C 
BRANCH  22  23
ATOM     23  C   UNL     1      -0.847  12.338  22.720  0.00  0.00    +0.000 C 
BRANCH  23  24
ATOM     24  C   UNL     1      -1.246  12.698  21.299  0.00  0.00    +0.000 C 
BRANCH  24  25
ATOM     25  C   UNL     1      -0.018  12.738  20.406  0.00  0.00    +0.000 C 
BRANCH  25  26
ATOM     26  C   UNL     1      -0.150  11.714  19.290  0.00  0.00    +0.000 C 
BRANCH  26  27
ATOM     27  C   UNL     1      -1.600  11.281  19.146  0.00  0.00    +0.000 C 
BRANCH  27  28
ATOM     28  C   UNL     1      -1.685   9.973  18.372  0.00  0.00    +0.000 C 
BRANCH  28  29
ATOM     29  C   UNL     1      -2.956   9.935  17.537  0.00  0.00    +0.000 C 
BRANCH  29  31
ATOM     30  C   UNL     1      -3.196  10.867  15.228  0.00  0.00    +0.000 C 
ATOM     31  C   UNL     1      -2.627   9.734  16.064  0.00  0.00    +0.000 C 
ENDBRANCH  29  31
ENDBRANCH  28  29
ENDBRANCH  27  28
ENDBRANCH  26  27
ENDBRANCH  25  26
ENDBRANCH  24  25
ENDBRANCH  23  24
ENDBRANCH  22  23
ENDBRANCH  21  22
ENDBRANCH  20  21
ENDBRANCH  19  20
ENDBRANCH  18  19
ENDBRANCH  17  18
ENDBRANCH   1  17
TORSDOF 17
ENDMDL
MODEL 7
REMARK VINA RESULT:      -5.8      3.391      8.529
REMARK  Name = 
REMARK  18 active torsions:
REMARK  status: ('A' for Active; 'I' for Inactive)
REMARK    1  A    between atoms: C_1  and  C_2
REMARK    2  A    between atoms: C_2  and  C_3
REMARK    3  A    between atoms: C_3  and  C_4
REMARK    4  A    between atoms: C_4  and  C_5
REMARK    5  A    between atoms: C_5  and  C_6
REMARK    6  A    between atoms: C_6  and  C_7
REMARK    7  A    between atoms: C_7  and  C_8
REMARK    8  A    between atoms: C_8  and  C_9
REMARK    9  A    between atoms: C_9  and  C_10
REMARK   10  A    between atoms: C_10  and  C_11
REMARK   11  A    between atoms: C_11  and  C_12
REMARK   12  A    between atoms: C_12  and  C_13
REMARK   13  A    between atoms: C_13  and  C_14
REMARK   14  A    between atoms: C_14  and  C_15
REMARK   15  A    between atoms: C_15  and  C_16
REMARK   16  A    between atoms: N_18  and  C_19
REMARK   17  A    between atoms: C_19  and  C_20
REMARK   18  A    between atoms: C_20  and  C_21
REMARK                            x       y       z     vdW  Elec       q    Type
REMARK                         _______ _______ _______ _____ _____    ______ ____
ROOT
ATOM      1  C   UNL     1       1.554   8.228  20.470  0.00  0.00    +0.000 C 
ATOM      2  O   UNL     1       1.280   8.395  21.655  0.00  0.00    +0.000 OA
ATOM      3  N   UNL     1       1.316   9.201  19.519  0.00  0.00    +0.000 N 
ATOM      4  H   UNL     1       1.539   9.052  18.548  0.00  0.00    +0.000 HD
ENDROOT
BRANCH   3   5
ATOM      5  C   UNL     1       0.725  10.464  19.928  0.00  0.00    +0.000 C 
BRANCH   5   6
ATOM      6  C   UNL     1       0.225  11.299  18.753  0.00  0.00    +0.000 C 
BRANCH   6   7
ATOM      7  C   UNL     1      -1.209  11.710  18.925  0.00  0.00    +0.000 A 
ATOM      8  C   UNL     1      -1.758  12.369  20.009  0.00  0.00    +0.000 A 
ATOM      9  N   UNL     1      -3.099  12.525  19.783  0.00  0.00    +0.000 N 
ATOM     10  C   UNL     1      -3.451  11.965  18.578  0.00  0.00    +0.000 A 
ATOM     11  C   UNL     1      -4.703  11.864  17.957  0.00  0.00    +0.000 A 
ATOM     12  C   UNL     1      -4.763  11.213  16.721  0.00  0.00    +0.000 A 
ATOM     13  C   UNL     1      -3.614  10.700  16.126  0.00  0.00    +0.000 A 
ATOM     14  C   UNL     1      -2.369  10.819  16.754  0.00  0.00    +0.000 A 
ATOM     15  C   UNL     1      -2.283  11.455  18.009  0.00  0.00    +0.000 A 
ATOM     16  H   UNL     1      -3.742  12.970  20.422  0.00  0.00    +0.000 HD
ENDBRANCH   6   7
ENDBRANCH   5   6
ENDBRANCH   3   5
BRANCH   1  17
ATOM     17  C   UNL     1       2.175   6.957  19.935  0.00  0.00    +0.000 C 
BRANCH  17  18
ATOM     18  C   UNL     1       1.586   5.749  20.661  0.00  0.00    +0.000 C 
BRANCH  18  19
ATOM     19  C   UNL     1       2.651   4.919  21.364  0.00  0.00    +0.000 C 
BRANCH  19  20
ATOM     20  C   UNL     1       2.200   3.465  21.470  0.00  0.00    +0.000 C 
BRANCH  20  21
ATOM     21  C   UNL     1       0.963   3.226  20.618  0.00  0.00    +0.000 C 
BRANCH  21  22
ATOM     22  C   UNL     1       1.170   2.030  19.701  0.00  0.00    +0.000 C 
BRANCH  22  23
ATOM     23  C   UNL     1       1.026   2.455  18.248  0.00  0.00    +0.000 C 
BRANCH  23  24
ATOM     24  C   UNL     1       2.389   2.776  17.657  0.00  0.00    +0.000 C 
BRANCH  24  25
ATOM     25  C   UNL     1       2.536   4.276  17.468  0.00  0.00    +0.000 C 
BRANCH  25  26
ATOM     26  C   UNL     1       3.992   4.681  17.631  0.00  0.00    +0.000 C 
BRANCH  26  27
ATOM     27  C   UNL     1       4.669   4.764  16.273  0.00  0.00    +0.000 C 
BRANCH  27  28
ATOM     28  C   UNL     1       5.897   3.867  16.240  0.00  0.00    +0.000 C 
BRANCH  28  29
ATOM     29  C   UNL     1       7.165   4.705  16.328  0.00  0.00    +0.000 C 
BRANCH  29  31
ATOM     30  C   UNL     1       7.622   5.967  18.439  0.00  0.00    +0.000 C 
ATOM     31  C   UNL     1       7.762   4.633  17.728  0.00  0.00    +0.000 C 
ENDBRANCH  29  31
ENDBRANCH  28  29
ENDBRANCH  27  28
ENDBRANCH  26  27
ENDBRANCH  25  26
ENDBRANCH  24  25
ENDBRANCH  23  24
ENDBRANCH  22  23
ENDBRANCH  21  22
ENDBRANCH  20  21
ENDBRANCH  19  20
ENDBRANCH  18  19
ENDBRANCH  17  18
ENDBRANCH   1  17
TORSDOF 17
ENDMDL
MODEL 8
REMARK VINA RESULT:      -5.7      2.039      4.978
REMARK  Name = 
REMARK  18 active torsions:
REMARK  status: ('A' for Active; 'I' for Inactive)
REMARK    1  A    between atoms: C_1  and  C_2
REMARK    2  A    between atoms: C_2  and  C_3
REMARK    3  A    between atoms: C_3  and  C_4
REMARK    4  A    between atoms: C_4  and  C_5
REMARK    5  A    between atoms: C_5  and  C_6
REMARK    6  A    between atoms: C_6  and  C_7
REMARK    7  A    between atoms: C_7  and  C_8
REMARK    8  A    between atoms: C_8  and  C_9
REMARK    9  A    between atoms: C_9  and  C_10
REMARK   10  A    between atoms: C_10  and  C_11
REMARK   11  A    between atoms: C_11  and  C_12
REMARK   12  A    between atoms: C_12  and  C_13
REMARK   13  A    between atoms: C_13  and  C_14
REMARK   14  A    between atoms: C_14  and  C_15
REMARK   15  A    between atoms: C_15  and  C_16
REMARK   16  A    between atoms: N_18  and  C_19
REMARK   17  A    between atoms: C_19  and  C_20
REMARK   18  A    between atoms: C_20  and  C_21
REMARK                            x       y       z     vdW  Elec       q    Type
REMARK                         _______ _______ _______ _____ _____    ______ ____
ROOT
ATOM      1  C   UNL     1       4.413   6.758  17.174  0.00  0.00    +0.000 C 
ATOM      2  O   UNL     1       4.835   6.816  16.023  0.00  0.00    +0.000 OA
ATOM      3  N   UNL     1       4.796   5.758  18.045  0.00  0.00    +0.000 N 
ATOM      4  H   UNL     1       4.438   5.715  18.986  0.00  0.00    +0.000 HD
ENDROOT
BRANCH   3   5
ATOM      5  C   UNL     1       5.729   4.740  17.592  0.00  0.00    +0.000 C 
BRANCH   5   6
ATOM      6  C   UNL     1       5.113   3.345  17.537  0.00  0.00    +0.000 C 
BRANCH   6   7
ATOM      7  C   UNL     1       3.648   3.364  17.862  0.00  0.00    +0.000 A 
ATOM      8  C   UNL     1       2.609   3.647  16.995  0.00  0.00    +0.000 A 
ATOM      9  N   UNL     1       1.435   3.588  17.695  0.00  0.00    +0.000 N 
ATOM     10  C   UNL     1       1.678   3.290  19.015  0.00  0.00    +0.000 A 
ATOM     11  C   UNL     1       0.792   3.157  20.092  0.00  0.00    +0.000 A 
ATOM     12  C   UNL     1       1.335   2.864  21.347  0.00  0.00    +0.000 A 
ATOM     13  C   UNL     1       2.707   2.694  21.510  0.00  0.00    +0.000 A 
ATOM     14  C   UNL     1       3.578   2.818  20.422  0.00  0.00    +0.000 A 
ATOM     15  C   UNL     1       3.058   3.131  19.149  0.00  0.00    +0.000 A 
ATOM     16  H   UNL     1       0.521   3.760  17.302  0.00  0.00    +0.000 HD
ENDBRANCH   6   7
ENDBRANCH   5   6
ENDBRANCH   3   5
BRANCH   1  17
ATOM     17  C   UNL     1       3.442   7.765  17.751  0.00  0.00    +0.000 C 
BRANCH  17  18
ATOM     18  C   UNL     1       2.213   7.042  18.298  0.00  0.00    +0.000 C 
BRANCH  18  19
ATOM     19  C   UNL     1       2.143   7.086  19.818  0.00  0.00    +0.000 C 
BRANCH  19  20
ATOM     20  C   UNL     1       1.662   8.458  20.283  0.00  0.00    +0.000 C 
BRANCH  20  21
ATOM     21  C   UNL     1       1.124   8.382  21.704  0.00  0.00    +0.000 C 
BRANCH  21  22
ATOM     22  C   UNL     1       0.797   9.773  22.225  0.00  0.00    +0.000 C 
BRANCH  22  23
ATOM     23  C   UNL     1      -0.692   9.885  22.513  0.00  0.00    +0.000 C 
BRANCH  23  24
ATOM     24  C   UNL     1      -1.045  11.311  22.904  0.00  0.00    +0.000 C 
BRANCH  24  25
ATOM     25  C   UNL     1      -0.844  12.242  21.722  0.00  0.00    +0.000 C 
BRANCH  25  26
ATOM     26  C   UNL     1      -1.916  11.994  20.674  0.00  0.00    +0.000 C 
BRANCH  26  27
ATOM     27  C   UNL     1      -1.330  12.139  19.279  0.00  0.00    +0.000 C 
BRANCH  27  28
ATOM     28  C   UNL     1      -0.741  10.815  18.814  0.00  0.00    +0.000 C 
BRANCH  28  29
ATOM     29  C   UNL     1      -1.788  10.007  18.061  0.00  0.00    +0.000 C 
BRANCH  29  31
ATOM     30  C   UNL     1      -2.618  10.474  15.748  0.00  0.00    +0.000 C 
ATOM     31  C   UNL     1      -2.654  10.916  17.200  0.00  0.00    +0.000 C 
ENDBRANCH  29  31
ENDBRANCH  28  29
ENDBRANCH  27  28
ENDBRANCH  26  27
ENDBRANCH  25  26
ENDBRANCH  24  25
ENDBRANCH  23  24
ENDBRANCH  22  23
ENDBRANCH  21  22
ENDBRANCH  20  21
ENDBRANCH  19  20
ENDBRANCH  18  19
ENDBRANCH  17  18
ENDBRANCH   1  17
TORSDOF 17
ENDMDL
MODEL 9
REMARK VINA RESULT:      -5.7      3.152      8.405
REMARK  Name = 
REMARK  18 active torsions:
REMARK  status: ('A' for Active; 'I' for Inactive)
REMARK    1  A    between atoms: C_1  and  C_2
REMARK    2  A    between atoms: C_2  and  C_3
REMARK    3  A    between atoms: C_3  and  C_4
REMARK    4  A    between atoms: C_4  and  C_5
REMARK    5  A    between atoms: C_5  and  C_6
REMARK    6  A    between atoms: C_6  and  C_7
REMARK    7  A    between atoms: C_7  and  C_8
REMARK    8  A    between atoms: C_8  and  C_9
REMARK    9  A    between atoms: C_9  and  C_10
REMARK   10  A    between atoms: C_10  and  C_11
REMARK   11  A    between atoms: C_11  and  C_12
REMARK   12  A    between atoms: C_12  and  C_13
REMARK   13  A    between atoms: C_13  and  C_14
REMARK   14  A    between atoms: C_14  and  C_15
REMARK   15  A    between atoms: C_15  and  C_16
REMARK   16  A    between atoms: N_18  and  C_19
REMARK   17  A    between atoms: C_19  and  C_20
REMARK   18  A    between atoms: C_20  and  C_21
REMARK                            x       y       z     vdW  Elec       q    Type
REMARK                         _______ _______ _______ _____ _____    ______ ____
ROOT
ATOM      1  C   UNL     1       1.890   8.544  18.215  0.00  0.00    +0.000 C 
ATOM      2  O   UNL     1       1.084   8.910  17.365  0.00  0.00    +0.000 OA
ATOM      3  N   UNL     1       1.724   8.833  19.555  0.00  0.00    +0.000 N 
ATOM      4  H   UNL     1       2.395   8.534  20.244  0.00  0.00    +0.000 HD
ENDROOT
BRANCH   3   5
ATOM      5  C   UNL     1       0.559   9.593  19.978  0.00  0.00    +0.000 C 
BRANCH   5   6
ATOM      6  C   UNL     1       0.581  11.040  19.496  0.00  0.00    +0.000 C 
BRANCH   6   7
ATOM      7  C   UNL     1      -0.798  11.630  19.422  0.00  0.00    +0.000 A 
ATOM      8  C   UNL     1      -1.275  12.712  20.137  0.00  0.00    +0.000 A 
ATOM      9  N   UNL     1      -2.588  12.904  19.802  0.00  0.00    +0.000 N 
ATOM     10  C   UNL     1      -2.994  11.957  18.892  0.00  0.00    +0.000 A 
ATOM     11  C   UNL     1      -4.245  11.750  18.297  0.00  0.00    +0.000 A 
ATOM     12  C   UNL     1      -4.372  10.676  17.408  0.00  0.00    +0.000 A 
ATOM     13  C   UNL     1      -3.284   9.857  17.118  0.00  0.00    +0.000 A 
ATOM     14  C   UNL     1      -2.038  10.085  17.712  0.00  0.00    +0.000 A 
ATOM     15  C   UNL     1      -1.888  11.149  18.625  0.00  0.00    +0.000 A 
ATOM     16  H   UNL     1      -3.181  13.627  20.184  0.00  0.00    +0.000 HD
ENDBRANCH   6   7
ENDBRANCH   5   6
ENDBRANCH   3   5
BRANCH   1  17
ATOM     17  C   UNL     1       3.133   7.746  17.888  0.00  0.00    +0.000 C 
BRANCH  17  18
ATOM     18  C   UNL     1       3.238   6.546  18.828  0.00  0.00    +0.000 C 
BRANCH  18  19
ATOM     19  C   UNL     1       2.090   5.564  18.645  0.00  0.00    +0.000 C 
BRANCH  19  20
ATOM     20  C   UNL     1       1.521   5.159  20.003  0.00  0.00    +0.000 C 
BRANCH  20  21
ATOM     21  C   UNL     1       2.562   4.402  20.813  0.00  0.00    +0.000 C 
BRANCH  21  22
ATOM     22  C   UNL     1       2.442   2.905  20.568  0.00  0.00    +0.000 C 
BRANCH  22  23
ATOM     23  C   UNL     1       3.742   2.364  19.996  0.00  0.00    +0.000 C 
BRANCH  23  24
ATOM     24  C   UNL     1       3.499   1.750  18.627  0.00  0.00    +0.000 C 
BRANCH  24  25
ATOM     25  C   UNL     1       3.797   2.766  17.539  0.00  0.00    +0.000 C 
BRANCH  25  26
ATOM     26  C   UNL     1       4.997   3.612  17.930  0.00  0.00    +0.000 C 
BRANCH  26  27
ATOM     27  C   UNL     1       5.515   4.378  16.723  0.00  0.00    +0.000 C 
BRANCH  27  28
ATOM     28  C   UNL     1       6.946   4.834  16.963  0.00  0.00    +0.000 C 
BRANCH  28  29
ATOM     29  C   UNL     1       7.027   6.354  16.941  0.00  0.00    +0.000 C 
BRANCH  29  31
ATOM     30  C   UNL     1       7.807   5.807  19.254  0.00  0.00    +0.000 C 
ATOM     31  C   UNL     1       7.756   6.873  18.174  0.00  0.00    +0.000 C 
ENDBRANCH  29  31
ENDBRANCH  28  29
ENDBRANCH  27  28
ENDBRANCH  26  27
ENDBRANCH  25  26
ENDBRANCH  24  25
ENDBRANCH  23  24
ENDBRANCH  22  23
ENDBRANCH  21  22
ENDBRANCH  20  21
ENDBRANCH  19  20
ENDBRANCH  18  19
ENDBRANCH  17  18
ENDBRANCH   1  17
TORSDOF 17
ENDMDL
