MODEL 1
REMARK VINA RESULT:      -8.6      0.000      0.000
REMARK  Name = 
REMARK  9 active torsions:
REMARK  status: ('A' for Active; 'I' for Inactive)
REMARK    1  A    between atoms: C_1  and  C_2
REMARK    2  A    between atoms: C_5  and  C_6
REMARK    3  A    between atoms: N_8  and  C_9
REMARK    4  A    between atoms: C_9  and  C_10
REMARK    5  A    between atoms: C_10  and  O_12
REMARK    6  A    between atoms: O_12  and  C_13
REMARK    7  A    between atoms: C_13  and  C_14
REMARK    8  A    between atoms: N_16  and  C_17
REMARK    9  A    between atoms: C_22  and  O_23
REMARK                            x       y       z     vdW  Elec       q    Type
REMARK                         _______ _______ _______ _____ _____    ______ ____
ROOT
ATOM      1  C   UNL     1       1.176   2.453  18.920  0.00  0.00    +0.000 C 
ENDROOT
BRANCH   1   2
ATOM      2  C   UNL     1       2.206   3.242  18.107  0.00  0.00    +0.000 C 
ATOM      3  O   UNL     1       1.828   4.137  17.348  0.00  0.00    +0.000 OA
ATOM      4  N   UNL     1       3.531   2.849  18.279  0.00  0.00    +0.000 N 
ATOM      5  H   UNL     1       3.713   1.977  18.764  0.00  0.00    +0.000 HD
BRANCH   4   6
ATOM      6  C   UNL     1       4.640   3.467  17.634  0.00  0.00    +0.000 A 
ATOM      7  C   UNL     1       5.606   4.181  18.356  0.00  0.00    +0.000 A 
ATOM      8  C   UNL     1       6.651   4.876  17.743  0.00  0.00    +0.000 A 
ATOM      9  C   UNL     1       6.700   4.815  16.359  0.00  0.00    +0.000 A 
ATOM     10  N   UNL     1       7.544   5.396  15.448  0.00  0.00    +0.000 N 
ATOM     11  C   UNL     1       7.132   5.010  14.203  0.00  0.00    +0.000 A 
ATOM     12  N   UNL     1       6.102   4.207  14.253  0.00  0.00    +0.000 NA
ATOM     13  C   UNL     1       5.801   4.081  15.593  0.00  0.00    +0.000 A 
ATOM     14  C   UNL     1       4.763   3.372  16.236  0.00  0.00    +0.000 A 
ATOM     15  H   UNL     1       8.311   6.012  15.670  0.00  0.00    +0.000 HD
BRANCH  11  16
ATOM     16  O   UNL     1       7.704   5.404  13.077  0.00  0.00    +0.000 OA
ATOM     17  H   UNL     1       7.538   4.746  12.385  0.00  0.00    +0.000 HD
ENDBRANCH  11  16
ENDBRANCH   4   6
ENDBRANCH   1   2
BRANCH   1  18
ATOM     18  O   UNL     1       0.675   3.321  19.950  0.00  0.00    +0.000 OA
BRANCH  18  19
ATOM     19  C   UNL     1       1.378   3.309  21.116  0.00  0.00    +0.000 C 
ATOM     20  O   UNL     1       1.221   2.488  22.014  0.00  0.00    +0.000 OA
BRANCH  19  21
ATOM     21  C   UNL     1       2.381   4.458  21.170  0.00  0.00    +0.000 C 
BRANCH  21  24
ATOM     22  C   UNL     1       2.488   6.583  19.929  0.00  0.00    +0.000 C 
ATOM     23  O   UNL     1       3.579   6.291  19.452  0.00  0.00    +0.000 OA
ATOM     24  N   UNL     1       1.817   5.744  20.797  0.00  0.00    +0.000 N 
ATOM     25  H   UNL     1       0.901   5.964  21.151  0.00  0.00    +0.000 HD
BRANCH  22  30
ATOM     26  C   UNL     1      -0.023  11.704  18.748  0.00  0.00    +0.000 C 
ATOM     27  C   UNL     1       0.611  10.378  19.049  0.00  0.00    +0.000 A 
ATOM     28  C   UNL     1       0.602   9.844  20.339  0.00  0.00    +0.000 A 
ATOM     29  C   UNL     1       1.212   8.611  20.599  0.00  0.00    +0.000 A 
ATOM     30  C   UNL     1       1.846   7.889  19.574  0.00  0.00    +0.000 A 
ATOM     31  C   UNL     1       1.843   8.423  18.280  0.00  0.00    +0.000 A 
ATOM     32  C   UNL     1       1.234   9.657  18.023  0.00  0.00    +0.000 A 
ENDBRANCH  22  30
ENDBRANCH  21  24
ENDBRANCH  19  21
ENDBRANCH  18  19
ENDBRANCH   1  18
TORSDOF 8
ENDMDL
MODEL 2
REMARK VINA RESULT:      -8.4      2.469      6.550
REMARK  Name = 
REMARK  9 active torsions:
REMARK  status: ('A' for Active; 'I' for Inactive)
REMARK    1  A    between atoms: C_1  and  C_2
REMARK    2  A    between atoms: C_5  and  C_6
REMARK    3  A    between atoms: N_8  and  C_9
REMARK    4  A    between atoms: C_9  and  C_10
REMARK    5  A    between atoms: C_10  and  O_12
REMARK    6  A    between atoms: O_12  and  C_13
REMARK    7  A    between atoms: C_13  and  C_14
REMARK    8  A    between atoms: N_16  and  C_17
REMARK    9  A    between atoms: C_22  and  O_23
REMARK                            x       y       z     vdW  Elec       q    Type
REMARK                         _______ _______ _______ _____ _____    ______ ____
ROOT
ATOM      1  C   UNL     1       2.597   3.214  20.903  0.00  0.00    +0.000 C 
ENDROOT
BRANCH   1   2
ATOM      2  C   UNL     1       1.867   4.497  20.496  0.00  0.00    +0.000 C 
ATOM      3  O   UNL     1       0.635   4.518  20.474  0.00  0.00    +0.000 OA
ATOM      4  N   UNL     1       2.689   5.566  20.144  0.00  0.00    +0.000 N 
ATOM      5  H   UNL     1       3.676   5.383  19.999  0.00  0.00    +0.000 HD
BRANCH   4   6
ATOM      6  C   UNL     1       2.211   6.850  19.757  0.00  0.00    +0.000 A 
ATOM      7  C   UNL     1       2.351   7.322  18.444  0.00  0.00    +0.000 A 
ATOM      8  C   UNL     1       1.978   8.612  18.058  0.00  0.00    +0.000 A 
ATOM      9  C   UNL     1       1.440   9.418  19.049  0.00  0.00    +0.000 A 
ATOM     10  N   UNL     1       1.013  10.720  19.035  0.00  0.00    +0.000 N 
ATOM     11  C   UNL     1       0.582  11.024  20.297  0.00  0.00    +0.000 A 
ATOM     12  N   UNL     1       0.680  10.004  21.108  0.00  0.00    +0.000 NA
ATOM     13  C   UNL     1       1.230   8.988  20.355  0.00  0.00    +0.000 A 
ATOM     14  C   UNL     1       1.598   7.674  20.718  0.00  0.00    +0.000 A 
ATOM     15  H   UNL     1       1.041  11.337  18.238  0.00  0.00    +0.000 HD
BRANCH  11  16
ATOM     16  O   UNL     1       0.123  12.211  20.658  0.00  0.00    +0.000 OA
ATOM     17  H   UNL     1       0.658  12.903  20.239  0.00  0.00    +0.000 HD
ENDBRANCH  11  16
ENDBRANCH   4   6
ENDBRANCH   1   2
BRANCH   1  18
ATOM     18  O   UNL     1       2.113   2.152  20.065  0.00  0.00    +0.000 OA
BRANCH  18  19
ATOM     19  C   UNL     1       2.423   2.265  18.744  0.00  0.00    +0.000 C 
ATOM     20  O   UNL     1       1.618   2.550  17.863  0.00  0.00    +0.000 OA
BRANCH  19  21
ATOM     21  C   UNL     1       3.900   1.980  18.494  0.00  0.00    +0.000 C 
BRANCH  21  24
ATOM     22  C   UNL     1       5.024   3.912  17.459  0.00  0.00    +0.000 C 
ATOM     23  O   UNL     1       4.587   3.619  16.352  0.00  0.00    +0.000 OA
ATOM     24  N   UNL     1       4.746   3.158  18.582  0.00  0.00    +0.000 N 
ATOM     25  H   UNL     1       5.067   3.426  19.498  0.00  0.00    +0.000 HD
BRANCH  22  30
ATOM     26  C   UNL     1       8.248   8.733  17.999  0.00  0.00    +0.000 C 
ATOM     27  C   UNL     1       7.427   7.487  17.849  0.00  0.00    +0.000 A 
ATOM     28  C   UNL     1       6.297   7.455  17.028  0.00  0.00    +0.000 A 
ATOM     29  C   UNL     1       5.538   6.285  16.914  0.00  0.00    +0.000 A 
ATOM     30  C   UNL     1       5.891   5.123  17.620  0.00  0.00    +0.000 A 
ATOM     31  C   UNL     1       7.030   5.156  18.433  0.00  0.00    +0.000 A 
ATOM     32  C   UNL     1       7.787   6.328  18.547  0.00  0.00    +0.000 A 
ENDBRANCH  22  30
ENDBRANCH  21  24
ENDBRANCH  19  21
ENDBRANCH  18  19
ENDBRANCH   1  18
TORSDOF 8
ENDMDL
MODEL 3
REMARK VINA RESULT:      -8.4      0.743      1.173
REMARK  Name = 
REMARK  9 active torsions:
REMARK  status: ('A' for Active; 'I' for Inactive)
REMARK    1  A    between atoms: C_1  and  C_2
REMARK    2  A    between atoms: C_5  and  C_6
REMARK    3  A    between atoms: N_8  and  C_9
REMARK    4  A    between atoms: C_9  and  C_10
REMARK    5  A    between atoms: C_10  and  O_12
REMARK    6  A    between atoms: O_12  and  C_13
REMARK    7  A    between atoms: C_13  and  C_14
REMARK    8  A    between atoms: N_16  and  C_17
REMARK    9  A    between atoms: C_22  and  O_23
REMARK                            x       y       z     vdW  Elec       q    Type
REMARK                         _______ _______ _______ _____ _____    ______ ____
ROOT
ATOM      1  C   UNL     1       1.033   2.481  18.762  0.00  0.00    +0.000 C 
ENDROOT
BRANCH   1   2
ATOM      2  C   UNL     1       2.466   2.534  18.222  0.00  0.00    +0.000 C 
ATOM      3  O   UNL     1       3.153   1.511  18.212  0.00  0.00    +0.000 OA
ATOM      4  N   UNL     1       2.897   3.789  17.797  0.00  0.00    +0.000 N 
ATOM      5  H   UNL     1       2.332   4.596  18.036  0.00  0.00    +0.000 HD
BRANCH   4   6
ATOM      6  C   UNL     1       4.183   4.049  17.243  0.00  0.00    +0.000 A 
ATOM      7  C   UNL     1       5.311   4.228  18.056  0.00  0.00    +0.000 A 
ATOM      8  C   UNL     1       6.564   4.577  17.548  0.00  0.00    +0.000 A 
ATOM      9  C   UNL     1       6.648   4.729  16.172  0.00  0.00    +0.000 A 
ATOM     10  N   UNL     1       7.686   5.096  15.355  0.00  0.00    +0.000 N 
ATOM     11  C   UNL     1       7.216   5.098  14.071  0.00  0.00    +0.000 A 
ATOM     12  N   UNL     1       5.962   4.736  14.006  0.00  0.00    +0.000 NA
ATOM     13  C   UNL     1       5.577   4.514  15.312  0.00  0.00    +0.000 A 
ATOM     14  C   UNL     1       4.324   4.144  15.847  0.00  0.00    +0.000 A 
ATOM     15  H   UNL     1       8.615   5.340  15.662  0.00  0.00    +0.000 HD
BRANCH  11  16
ATOM     16  O   UNL     1       7.942   5.431  13.017  0.00  0.00    +0.000 OA
ATOM     17  H   UNL     1       7.505   5.112  12.212  0.00  0.00    +0.000 HD
ENDBRANCH  11  16
ENDBRANCH   4   6
ENDBRANCH   1   2
BRANCH   1  18
ATOM     18  O   UNL     1       0.856   3.607  19.637  0.00  0.00    +0.000 OA
BRANCH  18  19
ATOM     19  C   UNL     1       1.382   3.465  20.885  0.00  0.00    +0.000 C 
ATOM     20  O   UNL     1       1.120   2.542  21.649  0.00  0.00    +0.000 OA
BRANCH  19  21
ATOM     21  C   UNL     1       2.332   4.610  21.219  0.00  0.00    +0.000 C 
BRANCH  21  24
ATOM     22  C   UNL     1       2.364   6.733  19.968  0.00  0.00    +0.000 C 
ATOM     23  O   UNL     1       3.353   6.386  19.334  0.00  0.00    +0.000 OA
ATOM     24  N   UNL     1       1.787   5.926  20.930  0.00  0.00    +0.000 N 
ATOM     25  H   UNL     1       0.947   6.192  21.417  0.00  0.00    +0.000 HD
BRANCH  22  30
ATOM     26  C   UNL     1      -0.017  11.909  18.757  0.00  0.00    +0.000 C 
ATOM     27  C   UNL     1       0.608  10.582  19.074  0.00  0.00    +0.000 A 
ATOM     28  C   UNL     1       1.332   9.871  18.114  0.00  0.00    +0.000 A 
ATOM     29  C   UNL     1       1.895   8.629  18.428  0.00  0.00    +0.000 A 
ATOM     30  C   UNL     1       1.744   8.071  19.708  0.00  0.00    +0.000 A 
ATOM     31  C   UNL     1       1.027   8.792  20.671  0.00  0.00    +0.000 A 
ATOM     32  C   UNL     1       0.464  10.033  20.353  0.00  0.00    +0.000 A 
ENDBRANCH  22  30
ENDBRANCH  21  24
ENDBRANCH  19  21
ENDBRANCH  18  19
ENDBRANCH   1  18
TORSDOF 8
ENDMDL
MODEL 4
REMARK VINA RESULT:      -8.0      1.820      2.251
REMARK  Name = 
REMARK  9 active torsions:
REMARK  status: ('A' for Active; 'I' for Inactive)
REMARK    1  A    between atoms: C_1  and  C_2
REMARK    2  A    between atoms: C_5  and  C_6
REMARK    3  A    between atoms: N_8  and  C_9
REMARK    4  A    between atoms: C_9  and  C_10
REMARK    5  A    between atoms: C_10  and  O_12
REMARK    6  A    between atoms: O_12  and  C_13
REMARK    7  A    between atoms: C_13  and  C_14
REMARK    8  A    between atoms: N_16  and  C_17
REMARK    9  A    between atoms: C_22  and  O_23
REMARK                            x       y       z     vdW  Elec       q    Type
REMARK                         _______ _______ _______ _____ _____    ______ ____
ROOT
ATOM      1  C   UNL     1       2.752   2.469  20.028  0.00  0.00    +0.000 C 
ENDROOT
BRANCH   1   2
ATOM      2  C   UNL     1       4.050   2.770  19.271  0.00  0.00    +0.000 C 
ATOM      3  O   UNL     1       5.105   2.247  19.636  0.00  0.00    +0.000 OA
ATOM      4  N   UNL     1       3.929   3.665  18.211  0.00  0.00    +0.000 N 
ATOM      5  H   UNL     1       3.066   4.191  18.124  0.00  0.00    +0.000 HD
BRANCH   4   6
ATOM      6  C   UNL     1       5.007   4.060  17.369  0.00  0.00    +0.000 A 
ATOM      7  C   UNL     1       6.108   4.770  17.868  0.00  0.00    +0.000 A 
ATOM      8  C   UNL     1       7.134   5.253  17.051  0.00  0.00    +0.000 A 
ATOM      9  C   UNL     1       7.018   4.981  15.696  0.00  0.00    +0.000 A 
ATOM     10  N   UNL     1       7.800   5.328  14.625  0.00  0.00    +0.000 N 
ATOM     11  C   UNL     1       7.216   4.806  13.505  0.00  0.00    +0.000 A 
ATOM     12  N   UNL     1       6.132   4.132  13.784  0.00  0.00    +0.000 NA
ATOM     13  C   UNL     1       5.976   4.239  15.150  0.00  0.00    +0.000 A 
ATOM     14  C   UNL     1       4.960   3.746  15.998  0.00  0.00    +0.000 A 
ATOM     15  H   UNL     1       8.638   5.887  14.669  0.00  0.00    +0.000 HD
BRANCH  11  16
ATOM     16  O   UNL     1       7.688   4.967  12.280  0.00  0.00    +0.000 OA
ATOM     17  H   UNL     1       8.657   4.945  12.303  0.00  0.00    +0.000 HD
ENDBRANCH  11  16
ENDBRANCH   4   6
ENDBRANCH   1   2
BRANCH   1  18
ATOM     18  O   UNL     1       2.562   3.513  20.997  0.00  0.00    +0.000 OA
BRANCH  18  19
ATOM     19  C   UNL     1       1.674   4.483  20.642  0.00  0.00    +0.000 C 
ATOM     20  O   UNL     1       0.484   4.287  20.417  0.00  0.00    +0.000 OA
BRANCH  19  21
ATOM     21  C   UNL     1       2.351   5.847  20.549  0.00  0.00    +0.000 C 
BRANCH  21  24
ATOM     22  C   UNL     1       1.419   8.124  20.421  0.00  0.00    +0.000 C 
ATOM     23  O   UNL     1       1.958   8.322  19.338  0.00  0.00    +0.000 OA
ATOM     24  N   UNL     1       1.559   6.931  21.104  0.00  0.00    +0.000 N 
ATOM     25  H   UNL     1       1.078   6.752  21.970  0.00  0.00    +0.000 HD
BRANCH  22  30
ATOM     26  C   UNL     1      -1.789  12.233  23.019  0.00  0.00    +0.000 C 
ATOM     27  C   UNL     1      -0.975  11.167  22.347  0.00  0.00    +0.000 A 
ATOM     28  C   UNL     1      -0.427  10.105  23.070  0.00  0.00    +0.000 A 
ATOM     29  C   UNL     1       0.341   9.130  22.425  0.00  0.00    +0.000 A 
ATOM     30  C   UNL     1       0.578   9.196  21.041  0.00  0.00    +0.000 A 
ATOM     31  C   UNL     1       0.018  10.256  20.318  0.00  0.00    +0.000 A 
ATOM     32  C   UNL     1      -0.749  11.231  20.967  0.00  0.00    +0.000 A 
ENDBRANCH  22  30
ENDBRANCH  21  24
ENDBRANCH  19  21
ENDBRANCH  18  19
ENDBRANCH   1  18
TORSDOF 8
ENDMDL
MODEL 5
REMARK VINA RESULT:      -7.8      1.389      1.775
REMARK  Name = 
REMARK  9 active torsions:
REMARK  status: ('A' for Active; 'I' for Inactive)
REMARK    1  A    between atoms: C_1  and  C_2
REMARK    2  A    between atoms: C_5  and  C_6
REMARK    3  A    between atoms: N_8  and  C_9
REMARK    4  A    between atoms: C_9  and  C_10
REMARK    5  A    between atoms: C_10  and  O_12
REMARK    6  A    between atoms: O_12  and  C_13
REMARK    7  A    between atoms: C_13  and  C_14
REMARK    8  A    between atoms: N_16  and  C_17
REMARK    9  A    between atoms: C_22  and  O_23
REMARK                            x       y       z     vdW  Elec       q    Type
REMARK                         _______ _______ _______ _____ _____    ______ ____
ROOT
ATOM      1  C   UNL     1       2.188   2.245  19.439  0.00  0.00    +0.000 C 
ENDROOT
BRANCH   1   2
ATOM      2  C   UNL     1       3.024   2.947  18.364  0.00  0.00    +0.000 C 
ATOM      3  O   UNL     1       2.496   3.282  17.302  0.00  0.00    +0.000 OA
ATOM      4  N   UNL     1       4.369   3.130  18.678  0.00  0.00    +0.000 N 
ATOM      5  H   UNL     1       4.743   2.639  19.483  0.00  0.00    +0.000 HD
BRANCH   4   6
ATOM      6  C   UNL     1       5.309   3.778  17.829  0.00  0.00    +0.000 A 
ATOM      7  C   UNL     1       6.179   4.766  18.312  0.00  0.00    +0.000 A 
ATOM      8  C   UNL     1       7.045   5.485  17.485  0.00  0.00    +0.000 A 
ATOM      9  C   UNL     1       7.016   5.162  16.137  0.00  0.00    +0.000 A 
ATOM     10  N   UNL     1       7.686   5.680  15.059  0.00  0.00    +0.000 N 
ATOM     11  C   UNL     1       7.270   4.996  13.951  0.00  0.00    +0.000 A 
ATOM     12  N   UNL     1       6.402   4.065  14.245  0.00  0.00    +0.000 NA
ATOM     13  C   UNL     1       6.213   4.158  15.608  0.00  0.00    +0.000 A 
ATOM     14  C   UNL     1       5.359   3.431  16.466  0.00  0.00    +0.000 A 
ATOM     15  H   UNL     1       8.345   6.443  15.091  0.00  0.00    +0.000 HD
BRANCH  11  16
ATOM     16  O   UNL     1       7.692   5.249  12.723  0.00  0.00    +0.000 OA
ATOM     17  H   UNL     1       8.250   6.041  12.731  0.00  0.00    +0.000 HD
ENDBRANCH  11  16
ENDBRANCH   4   6
ENDBRANCH   1   2
BRANCH   1  18
ATOM     18  O   UNL     1       1.371   3.242  20.074  0.00  0.00    +0.000 OA
BRANCH  18  19
ATOM     19  C   UNL     1       2.015   4.042  20.967  0.00  0.00    +0.000 C 
ATOM     20  O   UNL     1       2.282   3.723  22.121  0.00  0.00    +0.000 OA
BRANCH  19  21
ATOM     21  C   UNL     1       2.354   5.397  20.353  0.00  0.00    +0.000 C 
BRANCH  21  24
ATOM     22  C   UNL     1       1.609   7.745  20.315  0.00  0.00    +0.000 C 
ATOM     23  O   UNL     1       2.268   7.975  19.308  0.00  0.00    +0.000 OA
ATOM     24  N   UNL     1       1.592   6.500  20.913  0.00  0.00    +0.000 N 
ATOM     25  H   UNL     1       1.014   6.299  21.712  0.00  0.00    +0.000 HD
BRANCH  22  30
ATOM     26  C   UNL     1      -1.496  11.937  22.905  0.00  0.00    +0.000 C 
ATOM     27  C   UNL     1      -0.708  10.849  22.237  0.00  0.00    +0.000 A 
ATOM     28  C   UNL     1      -0.071   9.851  22.978  0.00  0.00    +0.000 A 
ATOM     29  C   UNL     1       0.670   8.854  22.334  0.00  0.00    +0.000 A 
ATOM     30  C   UNL     1       0.790   8.835  20.934  0.00  0.00    +0.000 A 
ATOM     31  C   UNL     1       0.141   9.831  20.194  0.00  0.00    +0.000 A 
ATOM     32  C   UNL     1      -0.598  10.828  20.841  0.00  0.00    +0.000 A 
ENDBRANCH  22  30
ENDBRANCH  21  24
ENDBRANCH  19  21
ENDBRANCH  18  19
ENDBRANCH   1  18
TORSDOF 8
ENDMDL
MODEL 6
REMARK VINA RESULT:      -7.8      1.144      1.385
REMARK  Name = 
REMARK  9 active torsions:
REMARK  status: ('A' for Active; 'I' for Inactive)
REMARK    1  A    between atoms: C_1  and  C_2
REMARK    2  A    between atoms: C_5  and  C_6
REMARK    3  A    between atoms: N_8  and  C_9
REMARK    4  A    between atoms: C_9  and  C_10
REMARK    5  A    between atoms: C_10  and  O_12
REMARK    6  A    between atoms: O_12  and  C_13
REMARK    7  A    between atoms: C_13  and  C_14
REMARK    8  A    between atoms: N_16  and  C_17
REMARK    9  A    between atoms: C_22  and  O_23
REMARK                            x       y       z     vdW  Elec       q    Type
REMARK                         _______ _______ _______ _____ _____    ______ ____
ROOT
ATOM      1  C   UNL     1       3.561   2.474  20.680  0.00  0.00    +0.000 C 
ENDROOT
BRANCH   1   2
ATOM      2  C   UNL     1       4.218   2.762  19.327  0.00  0.00    +0.000 C 
ATOM      3  O   UNL     1       3.954   2.050  18.356  0.00  0.00    +0.000 OA
ATOM      4  N   UNL     1       5.115   3.828  19.315  0.00  0.00    +0.000 N 
ATOM      5  H   UNL     1       5.413   4.214  20.204  0.00  0.00    +0.000 HD
BRANCH   4   6
ATOM      6  C   UNL     1       5.814   4.273  18.157  0.00  0.00    +0.000 A 
ATOM      7  C   UNL     1       6.677   5.377  18.198  0.00  0.00    +0.000 A 
ATOM      8  C   UNL     1       7.302   5.894  17.061  0.00  0.00    +0.000 A 
ATOM      9  C   UNL     1       7.036   5.244  15.865  0.00  0.00    +0.000 A 
ATOM     10  N   UNL     1       7.437   5.497  14.579  0.00  0.00    +0.000 N 
ATOM     11  C   UNL     1       6.870   4.546  13.778  0.00  0.00    +0.000 A 
ATOM     12  N   UNL     1       6.156   3.690  14.461  0.00  0.00    +0.000 NA
ATOM     13  C   UNL     1       6.231   4.114  15.771  0.00  0.00    +0.000 A 
ATOM     14  C   UNL     1       5.624   3.599  16.937  0.00  0.00    +0.000 A 
ATOM     15  H   UNL     1       8.024   6.264  14.289  0.00  0.00    +0.000 HD
BRANCH  11  16
ATOM     16  O   UNL     1       7.020   4.497  12.465  0.00  0.00    +0.000 OA
ATOM     17  H   UNL     1       7.935   4.724  12.237  0.00  0.00    +0.000 HD
ENDBRANCH  11  16
ENDBRANCH   4   6
ENDBRANCH   1   2
BRANCH   1  18
ATOM     18  O   UNL     1       2.146   2.354  20.460  0.00  0.00    +0.000 OA
BRANCH  18  19
ATOM     19  C   UNL     1       1.468   3.532  20.371  0.00  0.00    +0.000 C 
ATOM     20  O   UNL     1       0.456   3.703  19.698  0.00  0.00    +0.000 OA
BRANCH  19  21
ATOM     21  C   UNL     1       2.136   4.621  21.205  0.00  0.00    +0.000 C 
BRANCH  21  24
ATOM     22  C   UNL     1       2.352   6.659  19.838  0.00  0.00    +0.000 C 
ATOM     23  O   UNL     1       3.289   6.180  19.209  0.00  0.00    +0.000 OA
ATOM     24  N   UNL     1       1.719   5.967  20.852  0.00  0.00    +0.000 N 
ATOM     25  H   UNL     1       0.920   6.342  21.336  0.00  0.00    +0.000 HD
BRANCH  22  30
ATOM     26  C   UNL     1       0.425  12.052  18.778  0.00  0.00    +0.000 C 
ATOM     27  C   UNL     1       0.909  10.657  19.046  0.00  0.00    +0.000 A 
ATOM     28  C   UNL     1       0.719  10.047  20.288  0.00  0.00    +0.000 A 
ATOM     29  C   UNL     1       1.190   8.750  20.519  0.00  0.00    +0.000 A 
ATOM     30  C   UNL     1       1.865   8.037  19.514  0.00  0.00    +0.000 A 
ATOM     31  C   UNL     1       2.044   8.648  18.267  0.00  0.00    +0.000 A 
ATOM     32  C   UNL     1       1.572   9.946  18.039  0.00  0.00    +0.000 A 
ENDBRANCH  22  30
ENDBRANCH  21  24
ENDBRANCH  19  21
ENDBRANCH  18  19
ENDBRANCH   1  18
TORSDOF 8
ENDMDL
MODEL 7
REMARK VINA RESULT:      -7.7      5.876      7.349
REMARK  Name = 
REMARK  9 active torsions:
REMARK  status: ('A' for Active; 'I' for Inactive)
REMARK    1  A    between atoms: C_1  and  C_2
REMARK    2  A    between atoms: C_5  and  C_6
REMARK    3  A    between atoms: N_8  and  C_9
REMARK    4  A    between atoms: C_9  and  C_10
REMARK    5  A    between atoms: C_10  and  O_12
REMARK    6  A    between atoms: O_12  and  C_13
REMARK    7  A    between atoms: C_13  and  C_14
REMARK    8  A    between atoms: N_16  and  C_17
REMARK    9  A    between atoms: C_22  and  O_23
REMARK                            x       y       z     vdW  Elec       q    Type
REMARK                         _______ _______ _______ _____ _____    ______ ____
ROOT
ATOM      1  C   UNL     1       8.089   7.239  18.488  0.00  0.00    +0.000 C 
ENDROOT
BRANCH   1   2
ATOM      2  C   UNL     1       8.296   8.741  18.265  0.00  0.00    +0.000 C 
ATOM      3  O   UNL     1       7.622   9.332  17.420  0.00  0.00    +0.000 OA
ATOM      4  N   UNL     1       9.287   9.329  19.048  0.00  0.00    +0.000 N 
ATOM      5  H   UNL     1       9.918   8.721  19.559  0.00  0.00    +0.000 HD
BRANCH   4   6
ATOM      6  C   UNL     1       9.621  10.712  19.011  0.00  0.00    +0.000 A 
ATOM      7  C   UNL     1       9.271  11.582  20.054  0.00  0.00    +0.000 A 
ATOM      8  C   UNL     1       9.501  12.959  20.004  0.00  0.00    +0.000 A 
ATOM      9  C   UNL     1      10.116  13.437  18.857  0.00  0.00    +0.000 A 
ATOM     10  N   UNL     1      10.450  14.706  18.461  0.00  0.00    +0.000 N 
ATOM     11  C   UNL     1      11.030  14.611  17.227  0.00  0.00    +0.000 A 
ATOM     12  N   UNL     1      11.112  13.373  16.817  0.00  0.00    +0.000 NA
ATOM     13  C   UNL     1      10.532  12.617  17.814  0.00  0.00    +0.000 A 
ATOM     14  C   UNL     1      10.305  11.226  17.894  0.00  0.00    +0.000 A 
ATOM     15  H   UNL     1      10.273  15.549  18.986  0.00  0.00    +0.000 HD
BRANCH  11  16
ATOM     16  O   UNL     1      11.455  15.649  16.526  0.00  0.00    +0.000 OA
ATOM     17  H   UNL     1      10.716  16.257  16.372  0.00  0.00    +0.000 HD
ENDBRANCH  11  16
ENDBRANCH   4   6
ENDBRANCH   1   2
BRANCH   1  18
ATOM     18  O   UNL     1       6.755   6.916  18.064  0.00  0.00    +0.000 OA
BRANCH  18  19
ATOM     19  C   UNL     1       6.664   5.959  17.100  0.00  0.00    +0.000 C 
ATOM     20  O   UNL     1       7.585   5.222  16.763  0.00  0.00    +0.000 OA
BRANCH  19  21
ATOM     21  C   UNL     1       5.271   5.928  16.480  0.00  0.00    +0.000 C 
BRANCH  21  24
ATOM     22  C   UNL     1       3.389   6.509  17.960  0.00  0.00    +0.000 C 
ATOM     23  O   UNL     1       3.257   5.342  18.309  0.00  0.00    +0.000 OA
ATOM     24  N   UNL     1       4.354   6.899  17.052  0.00  0.00    +0.000 N 
ATOM     25  H   UNL     1       4.493   7.864  16.802  0.00  0.00    +0.000 HD
BRANCH  22  30
ATOM     26  C   UNL     1      -0.080  10.538  20.339  0.00  0.00    +0.000 C 
ATOM     27  C   UNL     1       0.801   9.493  19.722  0.00  0.00    +0.000 A 
ATOM     28  C   UNL     1       1.282   8.414  20.468  0.00  0.00    +0.000 A 
ATOM     29  C   UNL     1       2.114   7.458  19.874  0.00  0.00    +0.000 A 
ATOM     30  C   UNL     1       2.485   7.563  18.524  0.00  0.00    +0.000 A 
ATOM     31  C   UNL     1       1.993   8.640  17.777  0.00  0.00    +0.000 A 
ATOM     32  C   UNL     1       1.162   9.595  18.373  0.00  0.00    +0.000 A 
ENDBRANCH  22  30
ENDBRANCH  21  24
ENDBRANCH  19  21
ENDBRANCH  18  19
ENDBRANCH   1  18
TORSDOF 8
ENDMDL
MODEL 8
REMARK VINA RESULT:      -7.6      2.441      7.058
REMARK  Name = 
REMARK  9 active torsions:
REMARK  status: ('A' for Active; 'I' for Inactive)
REMARK    1  A    between atoms: C_1  and  C_2
REMARK    2  A    between atoms: C_5  and  C_6
REMARK    3  A    between atoms: N_8  and  C_9
REMARK    4  A    between atoms: C_9  and  C_10
REMARK    5  A    between atoms: C_10  and  O_12
REMARK    6  A    between atoms: O_12  and  C_13
REMARK    7  A    between atoms: C_13  and  C_14
REMARK    8  A    between atoms: N_16  and  C_17
REMARK    9  A    between atoms: C_22  and  O_23
REMARK                            x       y       z     vdW  Elec       q    Type
REMARK                         _______ _______ _______ _____ _____    ______ ____
ROOT
ATOM      1  C   UNL     1       2.515   3.552  21.234  0.00  0.00    +0.000 C 
ENDROOT
BRANCH   1   2
ATOM      2  C   UNL     1       1.828   4.750  20.571  0.00  0.00    +0.000 C 
ATOM      3  O   UNL     1       0.623   4.698  20.317  0.00  0.00    +0.000 OA
ATOM      4  N   UNL     1       2.660   5.826  20.274  0.00  0.00    +0.000 N 
ATOM      5  H   UNL     1       3.663   5.688  20.335  0.00  0.00    +0.000 HD
BRANCH   4   6
ATOM      6  C   UNL     1       2.217   7.041  19.678  0.00  0.00    +0.000 A 
ATOM      7  C   UNL     1       2.451   7.325  18.325  0.00  0.00    +0.000 A 
ATOM      8  C   UNL     1       2.113   8.546  17.736  0.00  0.00    +0.000 A 
ATOM      9  C   UNL     1       1.509   9.480  18.564  0.00  0.00    +0.000 A 
ATOM     10  N   UNL     1       1.090  10.765  18.337  0.00  0.00    +0.000 N 
ATOM     11  C   UNL     1       0.572  11.240  19.510  0.00  0.00    +0.000 A 
ATOM     12  N   UNL     1       0.608  10.344  20.461  0.00  0.00    +0.000 NA
ATOM     13  C   UNL     1       1.205   9.236  19.899  0.00  0.00    +0.000 A 
ATOM     14  C   UNL     1       1.541   7.988  20.468  0.00  0.00    +0.000 A 
ATOM     15  H   UNL     1       1.177  11.264  17.466  0.00  0.00    +0.000 HD
BRANCH  11  16
ATOM     16  O   UNL     1       0.094  12.463  19.668  0.00  0.00    +0.000 OA
ATOM     17  H   UNL     1       0.549  12.893  20.408  0.00  0.00    +0.000 HD
ENDBRANCH  11  16
ENDBRANCH   4   6
ENDBRANCH   1   2
BRANCH   1  18
ATOM     18  O   UNL     1       3.892   3.556  20.820  0.00  0.00    +0.000 OA
BRANCH  18  19
ATOM     19  C   UNL     1       4.295   2.456  20.127  0.00  0.00    +0.000 C 
ATOM     20  O   UNL     1       5.162   1.675  20.505  0.00  0.00    +0.000 OA
BRANCH  19  21
ATOM     21  C   UNL     1       3.538   2.323  18.809  0.00  0.00    +0.000 C 
BRANCH  21  24
ATOM     22  C   UNL     1       4.814   3.972  17.497  0.00  0.00    +0.000 C 
ATOM     23  O   UNL     1       4.598   4.851  18.324  0.00  0.00    +0.000 OA
ATOM     24  N   UNL     1       4.325   2.689  17.644  0.00  0.00    +0.000 N 
ATOM     25  H   UNL     1       4.542   1.957  16.988  0.00  0.00    +0.000 HD
BRANCH  22  30
ATOM     26  C   UNL     1       7.844   5.080  12.648  0.00  0.00    +0.000 C 
ATOM     27  C   UNL     1       7.073   4.784  13.900  0.00  0.00    +0.000 A 
ATOM     28  C   UNL     1       6.005   3.884  13.902  0.00  0.00    +0.000 A 
ATOM     29  C   UNL     1       5.292   3.634  15.079  0.00  0.00    +0.000 A 
ATOM     30  C   UNL     1       5.630   4.280  16.279  0.00  0.00    +0.000 A 
ATOM     31  C   UNL     1       6.708   5.174  16.276  0.00  0.00    +0.000 A 
ATOM     32  C   UNL     1       7.419   5.424  15.097  0.00  0.00    +0.000 A 
ENDBRANCH  22  30
ENDBRANCH  21  24
ENDBRANCH  19  21
ENDBRANCH  18  19
ENDBRANCH   1  18
TORSDOF 8
ENDMDL
MODEL 9
REMARK VINA RESULT:      -7.6      1.018      1.405
REMARK  Name = 
REMARK  9 active torsions:
REMARK  status: ('A' for Active; 'I' for Inactive)
REMARK    1  A    between atoms: C_1  and  C_2
REMARK    2  A    between atoms: C_5  and  C_6
REMARK    3  A    between atoms: N_8  and  C_9
REMARK    4  A    between atoms: C_9  and  C_10
REMARK    5  A    between atoms: C_10  and  O_12
REMARK    6  A    between atoms: O_12  and  C_13
REMARK    7  A    between atoms: C_13  and  C_14
REMARK    8  A    between atoms: N_16  and  C_17
REMARK    9  A    between atoms: C_22  and  O_23
REMARK                            x       y       z     vdW  Elec       q    Type
REMARK                         _______ _______ _______ _____ _____    ______ ____
ROOT
ATOM      1  C   UNL     1       1.836   1.921  18.369  0.00  0.00    +0.000 C 
ENDROOT
BRANCH   1   2
ATOM      2  C   UNL     1       2.743   2.917  17.640  0.00  0.00    +0.000 C 
ATOM      3  O   UNL     1       2.256   3.930  17.134  0.00  0.00    +0.000 OA
ATOM      4  N   UNL     1       4.091   2.568  17.584  0.00  0.00    +0.000 N 
ATOM      5  H   UNL     1       4.352   1.624  17.849  0.00  0.00    +0.000 HD
BRANCH   4   6
ATOM      6  C   UNL     1       5.100   3.364  16.973  0.00  0.00    +0.000 A 
ATOM      7  C   UNL     1       5.848   4.295  17.708  0.00  0.00    +0.000 A 
ATOM      8  C   UNL     1       6.777   5.156  17.120  0.00  0.00    +0.000 A 
ATOM      9  C   UNL     1       6.941   5.037  15.748  0.00  0.00    +0.000 A 
ATOM     10  N   UNL     1       7.720   5.731  14.858  0.00  0.00    +0.000 N 
ATOM     11  C   UNL     1       7.488   5.209  13.617  0.00  0.00    +0.000 A 
ATOM     12  N   UNL     1       6.637   4.217  13.652  0.00  0.00    +0.000 NA
ATOM     13  C   UNL     1       6.266   4.099  14.975  0.00  0.00    +0.000 A 
ATOM     14  C   UNL     1       5.345   3.227  15.594  0.00  0.00    +0.000 A 
ATOM     15  H   UNL     1       8.330   6.500  15.089  0.00  0.00    +0.000 HD
BRANCH  11  16
ATOM     16  O   UNL     1       8.053   5.655  12.507  0.00  0.00    +0.000 OA
ATOM     17  H   UNL     1       8.999   5.442  12.520  0.00  0.00    +0.000 HD
ENDBRANCH  11  16
ENDBRANCH   4   6
ENDBRANCH   1   2
BRANCH   1  18
ATOM     18  O   UNL     1       1.509   2.486  19.649  0.00  0.00    +0.000 OA
BRANCH  18  19
ATOM     19  C   UNL     1       2.566   2.690  20.484  0.00  0.00    +0.000 C 
ATOM     20  O   UNL     1       3.651   2.127  20.383  0.00  0.00    +0.000 OA
BRANCH  19  21
ATOM     21  C   UNL     1       2.224   3.702  21.573  0.00  0.00    +0.000 C 
BRANCH  21  24
ATOM     22  C   UNL     1       2.676   5.748  20.277  0.00  0.00    +0.000 C 
ATOM     23  O   UNL     1       3.806   5.365  19.997  0.00  0.00    +0.000 OA
ATOM     24  N   UNL     1       1.818   4.999  21.059  0.00  0.00    +0.000 N 
ATOM     25  H   UNL     1       0.875   5.293  21.249  0.00  0.00    +0.000 HD
BRANCH  22  30
ATOM     26  C   UNL     1       0.815  10.821  18.102  0.00  0.00    +0.000 C 
ATOM     27  C   UNL     1       1.307   9.521  18.666  0.00  0.00    +0.000 A 
ATOM     28  C   UNL     1       1.970   8.586  17.868  0.00  0.00    +0.000 A 
ATOM     29  C   UNL     1       2.408   7.374  18.412  0.00  0.00    +0.000 A 
ATOM     30  C   UNL     1       2.190   7.070  19.767  0.00  0.00    +0.000 A 
ATOM     31  C   UNL     1       1.535   8.014  20.566  0.00  0.00    +0.000 A 
ATOM     32  C   UNL     1       1.097   9.225  20.018  0.00  0.00    +0.000 A 
ENDBRANCH  22  30
ENDBRANCH  21  24
ENDBRANCH  19  21
ENDBRANCH  18  19
ENDBRANCH   1  18
TORSDOF 8
ENDMDL
