MODEL 1
REMARK VINA RESULT:      -8.0      0.000      0.000
REMARK  Name = 
REMARK  5 active torsions:
REMARK  status: ('A' for Active; 'I' for Inactive)
REMARK    1  A    between atoms: C_2  and  C_16
REMARK    2  A    between atoms: N_3  and  N_4
REMARK    3  A    between atoms: N_4  and  C_5
REMARK    4  A    between atoms: C_5  and  N_7
REMARK    5  A    between atoms: N_7  and  C_8
REMARK                            x       y       z     vdW  Elec       q    Type
REMARK                         _______ _______ _______ _____ _____    ______ ____
ROOT
ATOM      1  O   UNL     1       6.130   4.489  18.988  0.00  0.00    +0.000 OA
ATOM      2  C   UNL     1       5.427   4.257  18.006  0.00  0.00    +0.000 C 
ATOM      3  N   UNL     1       4.117   3.840  18.107  0.00  0.00    +0.000 N 
ATOM      4  H   UNL     1       3.605   3.503  17.298  0.00  0.00    +0.000 HD
ENDROOT
BRANCH   2   5
ATOM      5  C   UNL     1       5.899   4.384  16.645  0.00  0.00    +0.000 A 
ATOM      6  C   UNL     1       6.895   5.184  16.108  0.00  0.00    +0.000 A 
ATOM      7  C   UNL     1       6.993   4.918  14.722  0.00  0.00    +0.000 A 
ATOM      8  C   UNL     1       7.823   5.412  13.701  0.00  0.00    +0.000 A 
ATOM      9  C   UNL     1       7.669   4.920  12.403  0.00  0.00    +0.000 A 
ATOM     10  C   UNL     1       6.703   3.957  12.121  0.00  0.00    +0.000 A 
ATOM     11  C   UNL     1       5.864   3.454  13.123  0.00  0.00    +0.000 A 
ATOM     12  C   UNL     1       6.035   3.956  14.419  0.00  0.00    +0.000 A 
ATOM     13  N   UNL     1       5.380   3.655  15.593  0.00  0.00    +0.000 N 
ATOM     14  H   UNL     1       4.633   2.979  15.689  0.00  0.00    +0.000 HD
ENDBRANCH   2   5
BRANCH   3  15
ATOM     15  N   UNL     1       3.567   3.524  19.347  0.00  0.00    +0.000 N 
ATOM     16  H   UNL     1       3.790   2.606  19.729  0.00  0.00    +0.000 HD
BRANCH  15  17
ATOM     17  C   UNL     1       2.700   4.383  19.964  0.00  0.00    +0.000 C 
ATOM     18  S   UNL     1       1.197   3.934  20.554  0.00  0.00    +0.000 S 
BRANCH  17  19
ATOM     19  N   UNL     1       3.096   5.681  20.105  0.00  0.00    +0.000 N 
ATOM     20  H   UNL     1       3.998   5.799  20.563  0.00  0.00    +0.000 HD
BRANCH  19  21
ATOM     21  C   UNL     1       2.588   6.847  19.484  0.00  0.00    +0.000 A 
ATOM     22  C   UNL     1       2.927   7.255  18.191  0.00  0.00    +0.000 A 
ATOM     23  C   UNL     1       2.410   8.450  17.669  0.00  0.00    +0.000 A 
ATOM     24  C   UNL     1       1.583   9.241  18.452  0.00  0.00    +0.000 A 
ATOM     25  F   UNL     1       1.113  10.388  17.948  0.00  0.00    +0.000 F 
ATOM     26  C   UNL     1       1.259   8.874  19.748  0.00  0.00    +0.000 A 
ATOM     27  C   UNL     1       1.767   7.681  20.255  0.00  0.00    +0.000 A 
ATOM     28  F   UNL     1       1.471   7.339  21.519  0.00  0.00    +0.000 F 
ENDBRANCH  19  21
ENDBRANCH  17  19
ENDBRANCH  15  17
ENDBRANCH   3  15
TORSDOF 5
ENDMDL
MODEL 2
REMARK VINA RESULT:      -8.0      0.685      1.255
REMARK  Name = 
REMARK  5 active torsions:
REMARK  status: ('A' for Active; 'I' for Inactive)
REMARK    1  A    between atoms: C_2  and  C_16
REMARK    2  A    between atoms: N_3  and  N_4
REMARK    3  A    between atoms: N_4  and  C_5
REMARK    4  A    between atoms: C_5  and  N_7
REMARK    5  A    between atoms: N_7  and  C_8
REMARK                            x       y       z     vdW  Elec       q    Type
REMARK                         _______ _______ _______ _____ _____    ______ ____
ROOT
ATOM      1  O   UNL     1       6.618   4.896  18.858  0.00  0.00    +0.000 OA
ATOM      2  C   UNL     1       5.784   4.572  18.015  0.00  0.00    +0.000 C 
ATOM      3  N   UNL     1       4.477   4.270  18.336  0.00  0.00    +0.000 N 
ATOM      4  H   UNL     1       3.848   3.854  17.657  0.00  0.00    +0.000 HD
ENDROOT
BRANCH   2   5
ATOM      5  C   UNL     1       6.082   4.459  16.604  0.00  0.00    +0.000 A 
ATOM      6  C   UNL     1       5.509   3.667  15.624  0.00  0.00    +0.000 A 
ATOM      7  C   UNL     1       6.139   3.947  14.388  0.00  0.00    +0.000 A 
ATOM      8  C   UNL     1       5.956   3.464  13.080  0.00  0.00    +0.000 A 
ATOM      9  C   UNL     1       6.756   3.968  12.052  0.00  0.00    +0.000 A 
ATOM     10  C   UNL     1       7.725   4.933  12.318  0.00  0.00    +0.000 A 
ATOM     11  C   UNL     1       7.925   5.424  13.614  0.00  0.00    +0.000 A 
ATOM     12  C   UNL     1       7.112   4.910  14.632  0.00  0.00    +0.000 A 
ATOM     13  N   UNL     1       7.066   5.198  15.978  0.00  0.00    +0.000 N 
ATOM     14  H   UNL     1       7.655   5.872  16.452  0.00  0.00    +0.000 HD
ENDBRANCH   2   5
BRANCH   3  15
ATOM     15  N   UNL     1       4.076   4.184  19.667  0.00  0.00    +0.000 N 
ATOM     16  H   UNL     1       4.684   3.663  20.298  0.00  0.00    +0.000 HD
BRANCH  15  17
ATOM     17  C   UNL     1       2.877   4.703  20.069  0.00  0.00    +0.000 C 
ATOM     18  S   UNL     1       1.451   3.825  20.141  0.00  0.00    +0.000 S 
BRANCH  17  19
ATOM     19  N   UNL     1       2.853   6.018  20.435  0.00  0.00    +0.000 N 
ATOM     20  H   UNL     1       3.473   6.250  21.208  0.00  0.00    +0.000 HD
BRANCH  19  21
ATOM     21  C   UNL     1       2.319   7.132  19.745  0.00  0.00    +0.000 A 
ATOM     22  C   UNL     1       2.583   7.421  18.403  0.00  0.00    +0.000 A 
ATOM     23  C   UNL     1       2.048   8.573  17.810  0.00  0.00    +0.000 A 
ATOM     24  C   UNL     1       1.276   9.442  18.567  0.00  0.00    +0.000 A 
ATOM     25  F   UNL     1       0.787  10.547  17.994  0.00  0.00    +0.000 F 
ATOM     26  C   UNL     1       1.027   9.193  19.908  0.00  0.00    +0.000 A 
ATOM     27  C   UNL     1       1.554   8.042  20.486  0.00  0.00    +0.000 A 
ATOM     28  F   UNL     1       1.330   7.816  21.791  0.00  0.00    +0.000 F 
ENDBRANCH  19  21
ENDBRANCH  17  19
ENDBRANCH  15  17
ENDBRANCH   3  15
TORSDOF 5
ENDMDL
MODEL 3
REMARK VINA RESULT:      -8.0      4.690      6.166
REMARK  Name = 
REMARK  5 active torsions:
REMARK  status: ('A' for Active; 'I' for Inactive)
REMARK    1  A    between atoms: C_2  and  C_16
REMARK    2  A    between atoms: N_3  and  N_4
REMARK    3  A    between atoms: N_4  and  C_5
REMARK    4  A    between atoms: C_5  and  N_7
REMARK    5  A    between atoms: N_7  and  C_8
REMARK                            x       y       z     vdW  Elec       q    Type
REMARK                         _______ _______ _______ _____ _____    ______ ____
ROOT
ATOM      1  O   UNL     1       7.533   6.104  19.079  0.00  0.00    +0.000 OA
ATOM      2  C   UNL     1       7.785   6.827  18.118  0.00  0.00    +0.000 C 
ATOM      3  N   UNL     1       7.733   6.381  16.814  0.00  0.00    +0.000 N 
ATOM      4  H   UNL     1       8.095   6.940  16.049  0.00  0.00    +0.000 HD
ENDROOT
BRANCH   2   5
ATOM      5  C   UNL     1       8.174   8.214  18.248  0.00  0.00    +0.000 A 
ATOM      6  C   UNL     1       7.855   9.315  17.471  0.00  0.00    +0.000 A 
ATOM      7  C   UNL     1       8.466  10.461  18.035  0.00  0.00    +0.000 A 
ATOM      8  C   UNL     1       8.469  11.823  17.686  0.00  0.00    +0.000 A 
ATOM      9  C   UNL     1       9.181  12.725  18.480  0.00  0.00    +0.000 A 
ATOM     10  C   UNL     1       9.882  12.282  19.600  0.00  0.00    +0.000 A 
ATOM     11  C   UNL     1       9.893  10.930  19.963  0.00  0.00    +0.000 A 
ATOM     12  C   UNL     1       9.171  10.039  19.158  0.00  0.00    +0.000 A 
ATOM     13  N   UNL     1       8.989   8.679  19.261  0.00  0.00    +0.000 N 
ATOM     14  H   UNL     1       9.377   8.091  19.989  0.00  0.00    +0.000 HD
ENDBRANCH   2   5
BRANCH   3  15
ATOM     15  N   UNL     1       7.524   5.033  16.534  0.00  0.00    +0.000 N 
ATOM     16  H   UNL     1       8.353   4.446  16.447  0.00  0.00    +0.000 HD
BRANCH  15  17
ATOM     17  C   UNL     1       6.263   4.556  16.302  0.00  0.00    +0.000 C 
ATOM     18  S   UNL     1       5.530   4.538  14.795  0.00  0.00    +0.000 S 
BRANCH  17  19
ATOM     19  N   UNL     1       5.570   4.065  17.371  0.00  0.00    +0.000 N 
ATOM     20  H   UNL     1       5.992   3.246  17.804  0.00  0.00    +0.000 HD
BRANCH  19  21
ATOM     21  C   UNL     1       4.531   4.666  18.120  0.00  0.00    +0.000 A 
ATOM     22  C   UNL     1       4.053   5.960  17.896  0.00  0.00    +0.000 A 
ATOM     23  C   UNL     1       3.049   6.494  18.716  0.00  0.00    +0.000 A 
ATOM     24  C   UNL     1       2.551   5.744  19.771  0.00  0.00    +0.000 A 
ATOM     25  F   UNL     1       1.607   6.273  20.558  0.00  0.00    +0.000 F 
ATOM     26  C   UNL     1       3.033   4.471  20.033  0.00  0.00    +0.000 A 
ATOM     27  C   UNL     1       4.022   3.944  19.207  0.00  0.00    +0.000 A 
ATOM     28  F   UNL     1       4.503   2.720  19.478  0.00  0.00    +0.000 F 
ENDBRANCH  19  21
ENDBRANCH  17  19
ENDBRANCH  15  17
ENDBRANCH   3  15
TORSDOF 5
ENDMDL
MODEL 4
REMARK VINA RESULT:      -8.0      4.783      6.437
REMARK  Name = 
REMARK  5 active torsions:
REMARK  status: ('A' for Active; 'I' for Inactive)
REMARK    1  A    between atoms: C_2  and  C_16
REMARK    2  A    between atoms: N_3  and  N_4
REMARK    3  A    between atoms: N_4  and  C_5
REMARK    4  A    between atoms: C_5  and  N_7
REMARK    5  A    between atoms: N_7  and  C_8
REMARK                            x       y       z     vdW  Elec       q    Type
REMARK                         _______ _______ _______ _____ _____    ______ ____
ROOT
ATOM      1  O   UNL     1       7.433   6.025  18.982  0.00  0.00    +0.000 OA
ATOM      2  C   UNL     1       7.735   6.756  18.041  0.00  0.00    +0.000 C 
ATOM      3  N   UNL     1       7.737   6.324  16.731  0.00  0.00    +0.000 N 
ATOM      4  H   UNL     1       8.138   6.887  15.989  0.00  0.00    +0.000 HD
ENDROOT
BRANCH   2   5
ATOM      5  C   UNL     1       8.131   8.137  18.203  0.00  0.00    +0.000 A 
ATOM      6  C   UNL     1       7.823   9.257  17.448  0.00  0.00    +0.000 A 
ATOM      7  C   UNL     1       8.436  10.387  18.040  0.00  0.00    +0.000 A 
ATOM      8  C   UNL     1       8.449  11.756  17.720  0.00  0.00    +0.000 A 
ATOM      9  C   UNL     1       9.161  12.637  18.538  0.00  0.00    +0.000 A 
ATOM     10  C   UNL     1       9.853  12.166  19.652  0.00  0.00    +0.000 A 
ATOM     11  C   UNL     1       9.854  10.806  19.985  0.00  0.00    +0.000 A 
ATOM     12  C   UNL     1       9.133   9.937  19.157  0.00  0.00    +0.000 A 
ATOM     13  N   UNL     1       8.943   8.576  19.231  0.00  0.00    +0.000 N 
ATOM     14  H   UNL     1       9.324   7.970  19.948  0.00  0.00    +0.000 HD
ENDBRANCH   2   5
BRANCH   3  15
ATOM     15  N   UNL     1       7.528   4.981  16.428  0.00  0.00    +0.000 N 
ATOM     16  H   UNL     1       8.353   4.425  16.205  0.00  0.00    +0.000 HD
BRANCH  15  17
ATOM     17  C   UNL     1       6.260   4.473  16.350  0.00  0.00    +0.000 C 
ATOM     18  S   UNL     1       5.382   4.356  14.928  0.00  0.00    +0.000 S 
BRANCH  17  19
ATOM     19  N   UNL     1       5.688   4.033  17.509  0.00  0.00    +0.000 N 
ATOM     20  H   UNL     1       6.271   4.148  18.336  0.00  0.00    +0.000 HD
BRANCH  19  21
ATOM     21  C   UNL     1       4.338   3.704  17.774  0.00  0.00    +0.000 A 
ATOM     22  C   UNL     1       3.840   2.399  17.794  0.00  0.00    +0.000 A 
ATOM     23  C   UNL     1       2.475   2.166  18.021  0.00  0.00    +0.000 A 
ATOM     24  C   UNL     1       1.615   3.239  18.198  0.00  0.00    +0.000 A 
ATOM     25  F   UNL     1       0.313   3.003  18.394  0.00  0.00    +0.000 F 
ATOM     26  C   UNL     1       2.080   4.543  18.150  0.00  0.00    +0.000 A 
ATOM     27  C   UNL     1       3.437   4.765  17.935  0.00  0.00    +0.000 A 
ATOM     28  F   UNL     1       3.880   6.031  17.866  0.00  0.00    +0.000 F 
ENDBRANCH  19  21
ENDBRANCH  17  19
ENDBRANCH  15  17
ENDBRANCH   3  15
TORSDOF 5
ENDMDL
MODEL 5
REMARK VINA RESULT:      -8.0      3.779      8.155
REMARK  Name = 
REMARK  5 active torsions:
REMARK  status: ('A' for Active; 'I' for Inactive)
REMARK    1  A    between atoms: C_2  and  C_16
REMARK    2  A    between atoms: N_3  and  N_4
REMARK    3  A    between atoms: N_4  and  C_5
REMARK    4  A    between atoms: C_5  and  N_7
REMARK    5  A    between atoms: N_7  and  C_8
REMARK                            x       y       z     vdW  Elec       q    Type
REMARK                         _______ _______ _______ _____ _____    ______ ____
ROOT
ATOM      1  O   UNL     1       2.165   8.993  17.199  0.00  0.00    +0.000 OA
ATOM      2  C   UNL     1       2.197   8.459  18.306  0.00  0.00    +0.000 C 
ATOM      3  N   UNL     1       2.957   7.339  18.573  0.00  0.00    +0.000 N 
ATOM      4  H   UNL     1       2.850   6.822  19.440  0.00  0.00    +0.000 HD
ENDROOT
BRANCH   2   5
ATOM      5  C   UNL     1       1.437   8.936  19.440  0.00  0.00    +0.000 A 
ATOM      6  C   UNL     1       1.235   8.373  20.690  0.00  0.00    +0.000 A 
ATOM      7  C   UNL     1       0.433   9.250  21.458  0.00  0.00    +0.000 A 
ATOM      8  C   UNL     1      -0.060   9.202  22.774  0.00  0.00    +0.000 A 
ATOM      9  C   UNL     1      -0.834  10.264  23.247  0.00  0.00    +0.000 A 
ATOM     10  C   UNL     1      -1.119  11.354  22.427  0.00  0.00    +0.000 A 
ATOM     11  C   UNL     1      -0.639  11.418  21.112  0.00  0.00    +0.000 A 
ATOM     12  C   UNL     1       0.138  10.347  20.656  0.00  0.00    +0.000 A 
ATOM     13  N   UNL     1       0.747  10.132  19.439  0.00  0.00    +0.000 N 
ATOM     14  H   UNL     1       0.716  10.766  18.650  0.00  0.00    +0.000 HD
ENDBRANCH   2   5
BRANCH   3  15
ATOM     15  N   UNL     1       3.622   6.674  17.547  0.00  0.00    +0.000 N 
ATOM     16  H   UNL     1       3.446   6.998  16.597  0.00  0.00    +0.000 HD
BRANCH  15  17
ATOM     17  C   UNL     1       4.400   5.580  17.814  0.00  0.00    +0.000 C 
ATOM     18  S   UNL     1       6.068   5.630  17.962  0.00  0.00    +0.000 S 
BRANCH  17  19
ATOM     19  N   UNL     1       3.766   4.382  17.971  0.00  0.00    +0.000 N 
ATOM     20  H   UNL     1       3.997   3.688  17.263  0.00  0.00    +0.000 HD
BRANCH  19  21
ATOM     21  C   UNL     1       3.066   3.877  19.093  0.00  0.00    +0.000 A 
ATOM     22  C   UNL     1       3.677   3.226  20.168  0.00  0.00    +0.000 A 
ATOM     23  C   UNL     1       2.902   2.717  21.219  0.00  0.00    +0.000 A 
ATOM     24  C   UNL     1       1.521   2.836  21.175  0.00  0.00    +0.000 A 
ATOM     25  F   UNL     1       0.791   2.329  22.176  0.00  0.00    +0.000 F 
ATOM     26  C   UNL     1       0.890   3.449  20.104  0.00  0.00    +0.000 A 
ATOM     27  C   UNL     1       1.668   3.961  19.070  0.00  0.00    +0.000 A 
ATOM     28  F   UNL     1       1.052   4.533  18.022  0.00  0.00    +0.000 F 
ENDBRANCH  19  21
ENDBRANCH  17  19
ENDBRANCH  15  17
ENDBRANCH   3  15
TORSDOF 5
ENDMDL
MODEL 6
REMARK VINA RESULT:      -7.9      5.310      6.979
REMARK  Name = 
REMARK  5 active torsions:
REMARK  status: ('A' for Active; 'I' for Inactive)
REMARK    1  A    between atoms: C_2  and  C_16
REMARK    2  A    between atoms: N_3  and  N_4
REMARK    3  A    between atoms: N_4  and  C_5
REMARK    4  A    between atoms: C_5  and  N_7
REMARK    5  A    between atoms: N_7  and  C_8
REMARK                            x       y       z     vdW  Elec       q    Type
REMARK                         _______ _______ _______ _____ _____    ______ ____
ROOT
ATOM      1  O   UNL     1       8.194   6.763  18.731  0.00  0.00    +0.000 OA
ATOM      2  C   UNL     1       7.900   7.758  18.070  0.00  0.00    +0.000 C 
ATOM      3  N   UNL     1       7.018   7.716  17.010  0.00  0.00    +0.000 N 
ATOM      4  H   UNL     1       6.909   8.504  16.382  0.00  0.00    +0.000 HD
ENDROOT
BRANCH   2   5
ATOM      5  C   UNL     1       8.452   9.070  18.322  0.00  0.00    +0.000 A 
ATOM      6  C   UNL     1       8.427  10.220  17.551  0.00  0.00    +0.000 A 
ATOM      7  C   UNL     1       9.088  11.255  18.256  0.00  0.00    +0.000 A 
ATOM      8  C   UNL     1       9.342  12.608  17.970  0.00  0.00    +0.000 A 
ATOM      9  C   UNL     1      10.028  13.382  18.908  0.00  0.00    +0.000 A 
ATOM     10  C   UNL     1      10.461  12.821  20.108  0.00  0.00    +0.000 A 
ATOM     11  C   UNL     1      10.221  11.475  20.410  0.00  0.00    +0.000 A 
ATOM     12  C   UNL     1       9.528  10.714  19.460  0.00  0.00    +0.000 A 
ATOM     13  N   UNL     1       9.141   9.393  19.474  0.00  0.00    +0.000 N 
ATOM     14  H   UNL     1       9.315   8.741  20.230  0.00  0.00    +0.000 HD
ENDBRANCH   2   5
BRANCH   3  15
ATOM     15  N   UNL     1       6.522   6.499  16.549  0.00  0.00    +0.000 N 
ATOM     16  H   UNL     1       7.106   5.982  15.892  0.00  0.00    +0.000 HD
BRANCH  15  17
ATOM     17  C   UNL     1       5.270   6.078  16.902  0.00  0.00    +0.000 C 
ATOM     18  S   UNL     1       4.033   7.105  17.375  0.00  0.00    +0.000 S 
BRANCH  17  19
ATOM     19  N   UNL     1       5.023   4.736  16.859  0.00  0.00    +0.000 N 
ATOM     20  H   UNL     1       5.712   4.199  16.335  0.00  0.00    +0.000 HD
BRANCH  19  21
ATOM     21  C   UNL     1       4.134   3.962  17.641  0.00  0.00    +0.000 A 
ATOM     22  C   UNL     1       2.914   3.463  17.176  0.00  0.00    +0.000 A 
ATOM     23  C   UNL     1       2.071   2.742  18.034  0.00  0.00    +0.000 A 
ATOM     24  C   UNL     1       2.439   2.549  19.357  0.00  0.00    +0.000 A 
ATOM     25  F   UNL     1       1.617   1.876  20.170  0.00  0.00    +0.000 F 
ATOM     26  C   UNL     1       3.629   3.062  19.850  0.00  0.00    +0.000 A 
ATOM     27  C   UNL     1       4.464   3.768  18.989  0.00  0.00    +0.000 A 
ATOM     28  F   UNL     1       5.605   4.283  19.476  0.00  0.00    +0.000 F 
ENDBRANCH  19  21
ENDBRANCH  17  19
ENDBRANCH  15  17
ENDBRANCH   3  15
TORSDOF 5
ENDMDL
MODEL 7
REMARK VINA RESULT:      -7.8      4.996      6.560
REMARK  Name = 
REMARK  5 active torsions:
REMARK  status: ('A' for Active; 'I' for Inactive)
REMARK    1  A    between atoms: C_2  and  C_16
REMARK    2  A    between atoms: N_3  and  N_4
REMARK    3  A    between atoms: N_4  and  C_5
REMARK    4  A    between atoms: C_5  and  N_7
REMARK    5  A    between atoms: N_7  and  C_8
REMARK                            x       y       z     vdW  Elec       q    Type
REMARK                         _______ _______ _______ _____ _____    ______ ____
ROOT
ATOM      1  O   UNL     1       7.565   6.267  18.981  0.00  0.00    +0.000 OA
ATOM      2  C   UNL     1       7.778   7.047  18.055  0.00  0.00    +0.000 C 
ATOM      3  N   UNL     1       7.615   6.696  16.731  0.00  0.00    +0.000 N 
ATOM      4  H   UNL     1       7.945   7.294  15.981  0.00  0.00    +0.000 HD
ENDROOT
BRANCH   2   5
ATOM      5  C   UNL     1       8.234   8.406  18.250  0.00  0.00    +0.000 A 
ATOM      6  C   UNL     1       8.050   9.537  17.472  0.00  0.00    +0.000 A 
ATOM      7  C   UNL     1       8.672  10.634  18.113  0.00  0.00    +0.000 A 
ATOM      8  C   UNL     1       8.786  11.999  17.795  0.00  0.00    +0.000 A 
ATOM      9  C   UNL     1       9.474  12.844  18.670  0.00  0.00    +0.000 A 
ATOM     10  C   UNL     1      10.045  12.342  19.837  0.00  0.00    +0.000 A 
ATOM     11  C   UNL     1       9.945  10.985  20.170  0.00  0.00    +0.000 A 
ATOM     12  C   UNL     1       9.249  10.153  19.284  0.00  0.00    +0.000 A 
ATOM     13  N   UNL     1       8.980   8.804  19.341  0.00  0.00    +0.000 N 
ATOM     14  H   UNL     1       9.266   8.182  20.088  0.00  0.00    +0.000 HD
ENDBRANCH   2   5
BRANCH   3  15
ATOM     15  N   UNL     1       7.330   5.380  16.377  0.00  0.00    +0.000 N 
ATOM     16  H   UNL     1       7.943   4.658  16.755  0.00  0.00    +0.000 HD
BRANCH  15  17
ATOM     17  C   UNL     1       6.328   5.098  15.490  0.00  0.00    +0.000 C 
ATOM     18  S   UNL     1       6.560   4.299  14.035  0.00  0.00    +0.000 S 
BRANCH  17  19
ATOM     19  N   UNL     1       5.065   5.492  15.824  0.00  0.00    +0.000 N 
ATOM     20  H   UNL     1       4.463   5.694  15.028  0.00  0.00    +0.000 HD
BRANCH  19  21
ATOM     21  C   UNL     1       4.396   5.401  17.068  0.00  0.00    +0.000 A 
ATOM     22  C   UNL     1       4.040   6.505  17.847  0.00  0.00    +0.000 A 
ATOM     23  C   UNL     1       3.418   6.321  19.091  0.00  0.00    +0.000 A 
ATOM     24  C   UNL     1       3.183   5.037  19.559  0.00  0.00    +0.000 A 
ATOM     25  F   UNL     1       2.607   4.875  20.755  0.00  0.00    +0.000 F 
ATOM     26  C   UNL     1       3.557   3.926  18.818  0.00  0.00    +0.000 A 
ATOM     27  C   UNL     1       4.163   4.118  17.580  0.00  0.00    +0.000 A 
ATOM     28  F   UNL     1       4.546   3.040  16.876  0.00  0.00    +0.000 F 
ENDBRANCH  19  21
ENDBRANCH  17  19
ENDBRANCH  15  17
ENDBRANCH   3  15
TORSDOF 5
ENDMDL
MODEL 8
REMARK VINA RESULT:      -7.8      5.265      6.828
REMARK  Name = 
REMARK  5 active torsions:
REMARK  status: ('A' for Active; 'I' for Inactive)
REMARK    1  A    between atoms: C_2  and  C_16
REMARK    2  A    between atoms: N_3  and  N_4
REMARK    3  A    between atoms: N_4  and  C_5
REMARK    4  A    between atoms: C_5  and  N_7
REMARK    5  A    between atoms: N_7  and  C_8
REMARK                            x       y       z     vdW  Elec       q    Type
REMARK                         _______ _______ _______ _____ _____    ______ ____
ROOT
ATOM      1  O   UNL     1       8.115   6.714  19.015  0.00  0.00    +0.000 OA
ATOM      2  C   UNL     1       8.046   7.584  18.149  0.00  0.00    +0.000 C 
ATOM      3  N   UNL     1       7.555   7.342  16.884  0.00  0.00    +0.000 N 
ATOM      4  H   UNL     1       7.651   8.024  16.140  0.00  0.00    +0.000 HD
ENDROOT
BRANCH   2   5
ATOM      5  C   UNL     1       8.483   8.947  18.358  0.00  0.00    +0.000 A 
ATOM      6  C   UNL     1       8.339  10.070  17.561  0.00  0.00    +0.000 A 
ATOM      7  C   UNL     1       8.917  11.177  18.227  0.00  0.00    +0.000 A 
ATOM      8  C   UNL     1       9.042  12.540  17.904  0.00  0.00    +0.000 A 
ATOM      9  C   UNL     1       9.674  13.396  18.809  0.00  0.00    +0.000 A 
ATOM     10  C   UNL     1      10.178  12.908  20.012  0.00  0.00    +0.000 A 
ATOM     11  C   UNL     1      10.066  11.553  20.350  0.00  0.00    +0.000 A 
ATOM     12  C   UNL     1       9.427  10.710  19.434  0.00  0.00    +0.000 A 
ATOM     13  N   UNL     1       9.162   9.360  19.488  0.00  0.00    +0.000 N 
ATOM     14  H   UNL     1       9.407   8.746  20.255  0.00  0.00    +0.000 HD
ENDBRANCH   2   5
BRANCH   3  15
ATOM     15  N   UNL     1       7.239   6.047  16.483  0.00  0.00    +0.000 N 
ATOM     16  H   UNL     1       8.020   5.417  16.300  0.00  0.00    +0.000 HD
BRANCH  15  17
ATOM     17  C   UNL     1       5.939   5.682  16.263  0.00  0.00    +0.000 C 
ATOM     18  S   UNL     1       5.412   4.862  14.900  0.00  0.00    +0.000 S 
BRANCH  17  19
ATOM     19  N   UNL     1       5.024   6.007  17.223  0.00  0.00    +0.000 N 
ATOM     20  H   UNL     1       4.839   7.005  17.306  0.00  0.00    +0.000 HD
BRANCH  19  21
ATOM     21  C   UNL     1       4.115   5.173  17.915  0.00  0.00    +0.000 A 
ATOM     22  C   UNL     1       2.742   5.130  17.658  0.00  0.00    +0.000 A 
ATOM     23  C   UNL     1       1.905   4.306  18.424  0.00  0.00    +0.000 A 
ATOM     24  C   UNL     1       2.440   3.553  19.457  0.00  0.00    +0.000 A 
ATOM     25  F   UNL     1       1.627   2.785  20.193  0.00  0.00    +0.000 F 
ATOM     26  C   UNL     1       3.793   3.604  19.753  0.00  0.00    +0.000 A 
ATOM     27  C   UNL     1       4.619   4.417  18.981  0.00  0.00    +0.000 A 
ATOM     28  F   UNL     1       5.926   4.482  19.284  0.00  0.00    +0.000 F 
ENDBRANCH  19  21
ENDBRANCH  17  19
ENDBRANCH  15  17
ENDBRANCH   3  15
TORSDOF 5
ENDMDL
MODEL 9
REMARK VINA RESULT:      -7.7      3.648      8.557
REMARK  Name = 
REMARK  5 active torsions:
REMARK  status: ('A' for Active; 'I' for Inactive)
REMARK    1  A    between atoms: C_2  and  C_16
REMARK    2  A    between atoms: N_3  and  N_4
REMARK    3  A    between atoms: N_4  and  C_5
REMARK    4  A    between atoms: C_5  and  N_7
REMARK    5  A    between atoms: N_7  and  C_8
REMARK                            x       y       z     vdW  Elec       q    Type
REMARK                         _______ _______ _______ _____ _____    ______ ____
ROOT
ATOM      1  O   UNL     1       2.201   8.277  18.850  0.00  0.00    +0.000 OA
ATOM      2  C   UNL     1       1.775   8.110  19.991  0.00  0.00    +0.000 C 
ATOM      3  N   UNL     1       2.119   7.021  20.764  0.00  0.00    +0.000 N 
ATOM      4  H   UNL     1       1.640   6.817  21.634  0.00  0.00    +0.000 HD
ENDROOT
BRANCH   2   5
ATOM      5  C   UNL     1       0.862   9.024  20.640  0.00  0.00    +0.000 A 
ATOM      6  C   UNL     1       0.427   9.082  21.953  0.00  0.00    +0.000 A 
ATOM      7  C   UNL     1      -0.447  10.186  22.095  0.00  0.00    +0.000 A 
ATOM      8  C   UNL     1      -1.154  10.724  23.184  0.00  0.00    +0.000 A 
ATOM      9  C   UNL     1      -1.941  11.860  22.988  0.00  0.00    +0.000 A 
ATOM     10  C   UNL     1      -2.031  12.451  21.729  0.00  0.00    +0.000 A 
ATOM     11  C   UNL     1      -1.336  11.929  20.631  0.00  0.00    +0.000 A 
ATOM     12  C   UNL     1      -0.549  10.791  20.846  0.00  0.00    +0.000 A 
ATOM     13  N   UNL     1       0.242  10.068  19.982  0.00  0.00    +0.000 N 
ATOM     14  H   UNL     1       0.375  10.276  18.999  0.00  0.00    +0.000 HD
ENDBRANCH   2   5
BRANCH   3  15
ATOM     15  N   UNL     1       2.867   5.977  20.225  0.00  0.00    +0.000 N 
ATOM     16  H   UNL     1       3.871   5.990  20.401  0.00  0.00    +0.000 HD
BRANCH  15  17
ATOM     17  C   UNL     1       2.277   5.038  19.424  0.00  0.00    +0.000 C 
ATOM     18  S   UNL     1       1.284   3.812  19.990  0.00  0.00    +0.000 S 
BRANCH  17  19
ATOM     19  N   UNL     1       2.517   5.117  18.083  0.00  0.00    +0.000 N 
ATOM     20  H   UNL     1       1.709   5.386  17.526  0.00  0.00    +0.000 HD
BRANCH  19  21
ATOM     21  C   UNL     1       3.753   5.149  17.393  0.00  0.00    +0.000 A 
ATOM     22  C   UNL     1       4.423   6.324  17.044  0.00  0.00    +0.000 A 
ATOM     23  C   UNL     1       5.622   6.265  16.319  0.00  0.00    +0.000 A 
ATOM     24  C   UNL     1       6.128   5.036  15.925  0.00  0.00    +0.000 A 
ATOM     25  F   UNL     1       7.263   4.994  15.218  0.00  0.00    +0.000 F 
ATOM     26  C   UNL     1       5.464   3.858  16.231  0.00  0.00    +0.000 A 
ATOM     27  C   UNL     1       4.280   3.925  16.960  0.00  0.00    +0.000 A 
ATOM     28  F   UNL     1       3.626   2.784  17.235  0.00  0.00    +0.000 F 
ENDBRANCH  19  21
ENDBRANCH  17  19
ENDBRANCH  15  17
ENDBRANCH   3  15
TORSDOF 5
ENDMDL
