MODEL 1
REMARK VINA RESULT:      -7.9      0.000      0.000
REMARK  Name = 
REMARK  4 active torsions:
REMARK  status: ('A' for Active; 'I' for Inactive)
REMARK    1  A    between atoms: C_1  and  O_2
REMARK    2  A    between atoms: O_2  and  C_3
REMARK    3  A    between atoms: C_12  and  O_13
REMARK    4  A    between atoms: O_13  and  C_14
REMARK                            x       y       z     vdW  Elec       q    Type
REMARK                         _______ _______ _______ _____ _____    ______ ____
ROOT
ATOM      1  C   UNL     1       0.426   9.554  21.032  0.00  0.00    +0.000 C 
ATOM      2  C   UNL     1      -0.388  10.594  20.820  0.00  0.00    +0.000 C 
ATOM      3  S   UNL     1      -0.333  11.450  19.341  0.00  0.00    +0.000 S 
ATOM      4  O   UNL     1       0.287  12.732  19.614  0.00  0.00    +0.000 OA
ATOM      5  O   UNL     1      -1.644  11.411  18.728  0.00  0.00    +0.000 OA
ATOM      6  N   UNL     1       0.722  10.690  18.295  0.00  0.00    +0.000 N 
ATOM      7  C   UNL     1       1.376   9.490  18.695  0.00  0.00    +0.000 A 
ATOM      8  C   UNL     1       2.201   8.889  17.739  0.00  0.00    +0.000 A 
ATOM      9  C   UNL     1       2.802   7.659  18.001  0.00  0.00    +0.000 A 
ATOM     10  C   UNL     1       2.583   7.033  19.228  0.00  0.00    +0.000 A 
ATOM     11  C   UNL     1       1.733   7.613  20.168  0.00  0.00    +0.000 A 
ATOM     12  C   UNL     1       1.164   8.880  19.943  0.00  0.00    +0.000 A 
ATOM     13  H   UNL     1       1.282  11.362  17.776  0.00  0.00    +0.000 HD
ENDROOT
BRANCH   1  15
ATOM     14  C   UNL     1      -0.082   9.554  23.365  0.00  0.00    +0.000 C 
ATOM     15  O   UNL     1       0.735   9.072  22.296  0.00  0.00    +0.000 OA
ENDBRANCH   1  15
BRANCH  10  16
ATOM     16  O   UNL     1       3.182   5.847  19.584  0.00  0.00    +0.000 OA
BRANCH  16  17
ATOM     17  C   UNL     1       2.498   4.677  19.327  0.00  0.00    +0.000 A 
ATOM     18  C   UNL     1       1.384   4.269  20.084  0.00  0.00    +0.000 A 
ATOM     19  C   UNL     1       0.788   3.034  19.855  0.00  0.00    +0.000 A 
ATOM     20  C   UNL     1       1.257   2.218  18.831  0.00  0.00    +0.000 A 
ATOM     21  C   UNL     1       2.306   2.652  18.014  0.00  0.00    +0.000 A 
ATOM     22  C   UNL     1       2.914   3.881  18.251  0.00  0.00    +0.000 A 
ATOM     23 BR   UNL     1       4.311   4.438  17.090  0.00  0.00    +0.000 Br
ENDBRANCH  16  17
ENDBRANCH  10  16
TORSDOF 3
ENDMDL
MODEL 2
REMARK VINA RESULT:      -7.7      1.253      1.754
REMARK  Name = 
REMARK  4 active torsions:
REMARK  status: ('A' for Active; 'I' for Inactive)
REMARK    1  A    between atoms: C_1  and  O_2
REMARK    2  A    between atoms: O_2  and  C_3
REMARK    3  A    between atoms: C_12  and  O_13
REMARK    4  A    between atoms: O_13  and  C_14
REMARK                            x       y       z     vdW  Elec       q    Type
REMARK                         _______ _______ _______ _____ _____    ______ ____
ROOT
ATOM      1  C   UNL     1       0.443   9.977  21.122  0.00  0.00    +0.000 C 
ATOM      2  C   UNL     1      -0.440  10.960  20.917  0.00  0.00    +0.000 C 
ATOM      3  S   UNL     1      -0.628  11.646  19.362  0.00  0.00    +0.000 S 
ATOM      4  O   UNL     1      -0.036  12.969  19.407  0.00  0.00    +0.000 OA
ATOM      5  O   UNL     1      -2.007  11.498  18.948  0.00  0.00    +0.000 OA
ATOM      6  N   UNL     1       0.309  10.808  18.265  0.00  0.00    +0.000 N 
ATOM      7  C   UNL     1       1.067   9.681  18.695  0.00  0.00    +0.000 A 
ATOM      8  C   UNL     1       1.780   9.003  17.701  0.00  0.00    +0.000 A 
ATOM      9  C   UNL     1       2.468   7.830  18.006  0.00  0.00    +0.000 A 
ATOM     10  C   UNL     1       2.449   7.339  19.311  0.00  0.00    +0.000 A 
ATOM     11  C   UNL     1       1.709   7.993  20.295  0.00  0.00    +0.000 A 
ATOM     12  C   UNL     1       1.056   9.208  20.018  0.00  0.00    +0.000 A 
ATOM     13  H   UNL     1       0.760  11.434  17.604  0.00  0.00    +0.000 HD
ENDROOT
BRANCH   1  15
ATOM     14  C   UNL     1      -0.025   9.490  23.412  0.00  0.00    +0.000 C 
ATOM     15  O   UNL     1       0.944   9.650  22.374  0.00  0.00    +0.000 OA
ENDBRANCH   1  15
BRANCH  10  16
ATOM     16  O   UNL     1       3.146   6.219  19.704  0.00  0.00    +0.000 OA
BRANCH  16  17
ATOM     17  C   UNL     1       3.175   5.143  18.841  0.00  0.00    +0.000 A 
ATOM     18  C   UNL     1       4.118   5.029  17.803  0.00  0.00    +0.000 A 
ATOM     19  C   UNL     1       4.046   3.979  16.895  0.00  0.00    +0.000 A 
ATOM     20  C   UNL     1       3.071   2.999  17.046  0.00  0.00    +0.000 A 
ATOM     21  C   UNL     1       2.184   3.053  18.126  0.00  0.00    +0.000 A 
ATOM     22  C   UNL     1       2.244   4.111  19.028  0.00  0.00    +0.000 A 
ATOM     23 BR   UNL     1       1.039   4.118  20.496  0.00  0.00    +0.000 Br
ENDBRANCH  16  17
ENDBRANCH  10  16
TORSDOF 3
ENDMDL
MODEL 3
REMARK VINA RESULT:      -7.6      1.476      2.108
REMARK  Name = 
REMARK  4 active torsions:
REMARK  status: ('A' for Active; 'I' for Inactive)
REMARK    1  A    between atoms: C_1  and  O_2
REMARK    2  A    between atoms: O_2  and  C_3
REMARK    3  A    between atoms: C_12  and  O_13
REMARK    4  A    between atoms: O_13  and  C_14
REMARK                            x       y       z     vdW  Elec       q    Type
REMARK                         _______ _______ _______ _____ _____    ______ ____
ROOT
ATOM      1  C   UNL     1       0.621  10.073  21.117  0.00  0.00    +0.000 C 
ATOM      2  C   UNL     1      -0.128  11.154  20.875  0.00  0.00    +0.000 C 
ATOM      3  S   UNL     1      -0.179  11.840  19.309  0.00  0.00    +0.000 S 
ATOM      4  O   UNL     1       0.568  13.081  19.363  0.00  0.00    +0.000 OA
ATOM      5  O   UNL     1      -1.551  11.856  18.850  0.00  0.00    +0.000 OA
ATOM      6  N   UNL     1       0.684  10.880  18.251  0.00  0.00    +0.000 N 
ATOM      7  C   UNL     1       1.283   9.674  18.715  0.00  0.00    +0.000 A 
ATOM      8  C   UNL     1       1.940   8.902  17.752  0.00  0.00    +0.000 A 
ATOM      9  C   UNL     1       2.468   7.657  18.089  0.00  0.00    +0.000 A 
ATOM     10  C   UNL     1       2.346   7.188  19.397  0.00  0.00    +0.000 A 
ATOM     11  C   UNL     1       1.661   7.939  20.350  0.00  0.00    +0.000 A 
ATOM     12  C   UNL     1       1.171   9.222  20.041  0.00  0.00    +0.000 A 
ATOM     13  H   UNL     1       1.229  11.438  17.601  0.00  0.00    +0.000 HD
ENDROOT
BRANCH   1  15
ATOM     14  C   UNL     1       0.000   9.505  23.352  0.00  0.00    +0.000 C 
ATOM     15  O   UNL     1       1.037   9.703  22.388  0.00  0.00    +0.000 OA
ENDBRANCH   1  15
BRANCH  10  16
ATOM     16  O   UNL     1       2.888   5.997  19.822  0.00  0.00    +0.000 OA
BRANCH  16  17
ATOM     17  C   UNL     1       3.805   5.376  18.999  0.00  0.00    +0.000 A 
ATOM     18  C   UNL     1       5.185   5.642  19.066  0.00  0.00    +0.000 A 
ATOM     19  C   UNL     1       6.060   5.071  18.150  0.00  0.00    +0.000 A 
ATOM     20  C   UNL     1       5.579   4.183  17.194  0.00  0.00    +0.000 A 
ATOM     21  C   UNL     1       4.223   3.842  17.173  0.00  0.00    +0.000 A 
ATOM     22  C   UNL     1       3.342   4.424  18.080  0.00  0.00    +0.000 A 
ATOM     23 BR   UNL     1       1.517   3.900  18.032  0.00  0.00    +0.000 Br
ENDBRANCH  16  17
ENDBRANCH  10  16
TORSDOF 3
ENDMDL
MODEL 4
REMARK VINA RESULT:      -7.3      3.812      7.212
REMARK  Name = 
REMARK  4 active torsions:
REMARK  status: ('A' for Active; 'I' for Inactive)
REMARK    1  A    between atoms: C_1  and  O_2
REMARK    2  A    between atoms: O_2  and  C_3
REMARK    3  A    between atoms: C_12  and  O_13
REMARK    4  A    between atoms: O_13  and  C_14
REMARK                            x       y       z     vdW  Elec       q    Type
REMARK                         _______ _______ _______ _____ _____    ______ ____
ROOT
ATOM      1  C   UNL     1       3.881   5.836  17.444  0.00  0.00    +0.000 C 
ATOM      2  C   UNL     1       4.111   4.522  17.548  0.00  0.00    +0.000 C 
ATOM      3  S   UNL     1       3.707   3.683  18.982  0.00  0.00    +0.000 S 
ATOM      4  O   UNL     1       4.951   3.368  19.655  0.00  0.00    +0.000 OA
ATOM      5  O   UNL     1       2.785   2.615  18.656  0.00  0.00    +0.000 OA
ATOM      6  N   UNL     1       2.916   4.714  20.029  0.00  0.00    +0.000 N 
ATOM      7  C   UNL     1       2.647   6.056  19.634  0.00  0.00    +0.000 A 
ATOM      8  C   UNL     1       1.931   6.835  20.549  0.00  0.00    +0.000 A 
ATOM      9  C   UNL     1       1.532   8.127  20.211  0.00  0.00    +0.000 A 
ATOM     10  C   UNL     1       1.857   8.642  18.956  0.00  0.00    +0.000 A 
ATOM     11  C   UNL     1       2.538   7.855  18.030  0.00  0.00    +0.000 A 
ATOM     12  C   UNL     1       2.998   6.570  18.375  0.00  0.00    +0.000 A 
ATOM     13  H   UNL     1       3.217   4.574  20.989  0.00  0.00    +0.000 HD
ENDROOT
BRANCH   1  15
ATOM     14  C   UNL     1       5.384   5.989  15.595  0.00  0.00    +0.000 C 
ATOM     15  O   UNL     1       4.521   6.651  16.522  0.00  0.00    +0.000 OA
ENDBRANCH   1  15
BRANCH  10  16
ATOM     16  O   UNL     1       1.548   9.926  18.567  0.00  0.00    +0.000 OA
BRANCH  16  17
ATOM     17  C   UNL     1       0.216  10.284  18.530  0.00  0.00    +0.000 A 
ATOM     18  C   UNL     1      -0.706   9.681  17.654  0.00  0.00    +0.000 A 
ATOM     19  C   UNL     1      -2.015  10.144  17.579  0.00  0.00    +0.000 A 
ATOM     20  C   UNL     1      -2.436  11.170  18.418  0.00  0.00    +0.000 A 
ATOM     21  C   UNL     1      -1.553  11.716  19.355  0.00  0.00    +0.000 A 
ATOM     22  C   UNL     1      -0.238  11.265  19.422  0.00  0.00    +0.000 A 
ATOM     23 BR   UNL     1       0.909  12.016  20.736  0.00  0.00    +0.000 Br
ENDBRANCH  16  17
ENDBRANCH  10  16
TORSDOF 3
ENDMDL
MODEL 5
REMARK VINA RESULT:      -7.3      3.884      7.339
REMARK  Name = 
REMARK  4 active torsions:
REMARK  status: ('A' for Active; 'I' for Inactive)
REMARK    1  A    between atoms: C_1  and  O_2
REMARK    2  A    between atoms: O_2  and  C_3
REMARK    3  A    between atoms: C_12  and  O_13
REMARK    4  A    between atoms: O_13  and  C_14
REMARK                            x       y       z     vdW  Elec       q    Type
REMARK                         _______ _______ _______ _____ _____    ______ ____
ROOT
ATOM      1  C   UNL     1       4.746   4.825  18.736  0.00  0.00    +0.000 C 
ATOM      2  C   UNL     1       5.054   3.531  18.596  0.00  0.00    +0.000 C 
ATOM      3  S   UNL     1       4.192   2.337  19.465  0.00  0.00    +0.000 S 
ATOM      4  O   UNL     1       5.078   1.841  20.500  0.00  0.00    +0.000 OA
ATOM      5  O   UNL     1       3.607   1.405  18.525  0.00  0.00    +0.000 OA
ATOM      6  N   UNL     1       2.935   3.051  20.299  0.00  0.00    +0.000 N 
ATOM      7  C   UNL     1       2.708   4.452  20.175  0.00  0.00    +0.000 A 
ATOM      8  C   UNL     1       1.600   4.959  20.863  0.00  0.00    +0.000 A 
ATOM      9  C   UNL     1       1.237   6.297  20.721  0.00  0.00    +0.000 A 
ATOM     10  C   UNL     1       1.989   7.131  19.894  0.00  0.00    +0.000 A 
ATOM     11  C   UNL     1       3.071   6.620  19.180  0.00  0.00    +0.000 A 
ATOM     12  C   UNL     1       3.485   5.286  19.355  0.00  0.00    +0.000 A 
ATOM     13  H   UNL     1       2.830   2.653  21.228  0.00  0.00    +0.000 HD
ENDROOT
BRANCH   1  15
ATOM     14  C   UNL     1       6.993   5.634  18.716  0.00  0.00    +0.000 C 
ATOM     15  O   UNL     1       5.616   5.856  18.408  0.00  0.00    +0.000 OA
ENDBRANCH   1  15
BRANCH  10  16
ATOM     16  O   UNL     1       1.729   8.474  19.744  0.00  0.00    +0.000 OA
BRANCH  16  17
ATOM     17  C   UNL     1       1.001   9.103  20.733  0.00  0.00    +0.000 A 
ATOM     18  C   UNL     1       1.283   8.937  22.103  0.00  0.00    +0.000 A 
ATOM     19  C   UNL     1       0.460   9.509  23.067  0.00  0.00    +0.000 A 
ATOM     20  C   UNL     1      -0.616  10.300  22.679  0.00  0.00    +0.000 A 
ATOM     21  C   UNL     1      -0.853  10.545  21.322  0.00  0.00    +0.000 A 
ATOM     22  C   UNL     1      -0.039   9.962  20.355  0.00  0.00    +0.000 A 
ATOM     23 BR   UNL     1      -0.383  10.355  18.528  0.00  0.00    +0.000 Br
ENDBRANCH  16  17
ENDBRANCH  10  16
TORSDOF 3
ENDMDL
MODEL 6
REMARK VINA RESULT:      -7.1      3.544      6.836
REMARK  Name = 
REMARK  4 active torsions:
REMARK  status: ('A' for Active; 'I' for Inactive)
REMARK    1  A    between atoms: C_1  and  O_2
REMARK    2  A    between atoms: O_2  and  C_3
REMARK    3  A    between atoms: C_12  and  O_13
REMARK    4  A    between atoms: O_13  and  C_14
REMARK                            x       y       z     vdW  Elec       q    Type
REMARK                         _______ _______ _______ _____ _____    ______ ____
ROOT
ATOM      1  C   UNL     1       2.672   5.088  19.986  0.00  0.00    +0.000 C 
ATOM      2  C   UNL     1       3.566   4.179  19.582  0.00  0.00    +0.000 C 
ATOM      3  S   UNL     1       4.400   4.381  18.103  0.00  0.00    +0.000 S 
ATOM      4  O   UNL     1       3.855   3.414  17.171  0.00  0.00    +0.000 OA
ATOM      5  O   UNL     1       5.824   4.391  18.366  0.00  0.00    +0.000 OA
ATOM      6  N   UNL     1       4.012   5.863  17.441  0.00  0.00    +0.000 N 
ATOM      7  C   UNL     1       3.135   6.743  18.138  0.00  0.00    +0.000 A 
ATOM      8  C   UNL     1       2.906   7.987  17.540  0.00  0.00    +0.000 A 
ATOM      9  C   UNL     1       2.146   8.953  18.196  0.00  0.00    +0.000 A 
ATOM     10  C   UNL     1       1.606   8.671  19.451  0.00  0.00    +0.000 A 
ATOM     11  C   UNL     1       1.863   7.447  20.065  0.00  0.00    +0.000 A 
ATOM     12  C   UNL     1       2.581   6.439  19.393  0.00  0.00    +0.000 A 
ATOM     13  H   UNL     1       3.888   5.801  16.435  0.00  0.00    +0.000 HD
ENDROOT
BRANCH   1  15
ATOM     14  C   UNL     1       1.501   3.448  21.266  0.00  0.00    +0.000 C 
ATOM     15  O   UNL     1       1.686   4.823  20.925  0.00  0.00    +0.000 OA
ENDBRANCH   1  15
BRANCH  10  16
ATOM     16  O   UNL     1       0.800   9.550  20.138  0.00  0.00    +0.000 OA
BRANCH  16  17
ATOM     17  C   UNL     1      -0.065  10.336  19.405  0.00  0.00    +0.000 A 
ATOM     18  C   UNL     1      -1.166   9.804  18.708  0.00  0.00    +0.000 A 
ATOM     19  C   UNL     1      -1.952  10.618  17.901  0.00  0.00    +0.000 A 
ATOM     20  C   UNL     1      -1.686  11.982  17.826  0.00  0.00    +0.000 A 
ATOM     21  C   UNL     1      -0.651  12.537  18.584  0.00  0.00    +0.000 A 
ATOM     22  C   UNL     1       0.147  11.721  19.381  0.00  0.00    +0.000 A 
ATOM     23 BR   UNL     1       1.517  12.531  20.417  0.00  0.00    +0.000 Br
ENDBRANCH  16  17
ENDBRANCH  10  16
TORSDOF 3
ENDMDL
MODEL 7
REMARK VINA RESULT:      -7.0      3.817      7.266
REMARK  Name = 
REMARK  4 active torsions:
REMARK  status: ('A' for Active; 'I' for Inactive)
REMARK    1  A    between atoms: C_1  and  O_2
REMARK    2  A    between atoms: O_2  and  C_3
REMARK    3  A    between atoms: C_12  and  O_13
REMARK    4  A    between atoms: O_13  and  C_14
REMARK                            x       y       z     vdW  Elec       q    Type
REMARK                         _______ _______ _______ _____ _____    ______ ____
ROOT
ATOM      1  C   UNL     1       4.043   4.853  17.892  0.00  0.00    +0.000 C 
ATOM      2  C   UNL     1       4.049   3.610  17.399  0.00  0.00    +0.000 C 
ATOM      3  S   UNL     1       3.107   2.383  18.129  0.00  0.00    +0.000 S 
ATOM      4  O   UNL     1       4.024   1.496  18.817  0.00  0.00    +0.000 OA
ATOM      5  O   UNL     1       2.198   1.840  17.142  0.00  0.00    +0.000 OA
ATOM      6  N   UNL     1       2.175   3.044  19.346  0.00  0.00    +0.000 N 
ATOM      7  C   UNL     1       2.227   4.445  19.597  0.00  0.00    +0.000 A 
ATOM      8  C   UNL     1       1.374   4.924  20.596  0.00  0.00    +0.000 A 
ATOM      9  C   UNL     1       1.278   6.292  20.843  0.00  0.00    +0.000 A 
ATOM     10  C   UNL     1       2.046   7.183  20.093  0.00  0.00    +0.000 A 
ATOM     11  C   UNL     1       2.869   6.711  19.073  0.00  0.00    +0.000 A 
ATOM     12  C   UNL     1       3.020   5.330  18.847  0.00  0.00    +0.000 A 
ATOM     13  H   UNL     1       2.139   2.437  20.160  0.00  0.00    +0.000 HD
ENDROOT
BRANCH   1  15
ATOM     14  C   UNL     1       5.202   6.166  16.270  0.00  0.00    +0.000 C 
ATOM     15  O   UNL     1       5.043   5.780  17.637  0.00  0.00    +0.000 OA
ENDBRANCH   1  15
BRANCH  10  16
ATOM     16  O   UNL     1       2.050   8.542  20.312  0.00  0.00    +0.000 OA
BRANCH  16  17
ATOM     17  C   UNL     1       0.982   9.274  19.836  0.00  0.00    +0.000 A 
ATOM     18  C   UNL     1       0.743   9.458  18.461  0.00  0.00    +0.000 A 
ATOM     19  C   UNL     1      -0.286  10.287  18.028  0.00  0.00    +0.000 A 
ATOM     20  C   UNL     1      -1.124  10.894  18.958  0.00  0.00    +0.000 A 
ATOM     21  C   UNL     1      -0.951  10.648  20.324  0.00  0.00    +0.000 A 
ATOM     22  C   UNL     1       0.087   9.830  20.760  0.00  0.00    +0.000 A 
ATOM     23 BR   UNL     1       0.255   9.500  22.623  0.00  0.00    +0.000 Br
ENDBRANCH  16  17
ENDBRANCH  10  16
TORSDOF 3
ENDMDL
MODEL 8
REMARK VINA RESULT:      -6.8      3.444      7.022
REMARK  Name = 
REMARK  4 active torsions:
REMARK  status: ('A' for Active; 'I' for Inactive)
REMARK    1  A    between atoms: C_1  and  O_2
REMARK    2  A    between atoms: O_2  and  C_3
REMARK    3  A    between atoms: C_12  and  O_13
REMARK    4  A    between atoms: O_13  and  C_14
REMARK                            x       y       z     vdW  Elec       q    Type
REMARK                         _______ _______ _______ _____ _____    ______ ____
ROOT
ATOM      1  C   UNL     1       2.806   5.404  19.968  0.00  0.00    +0.000 C 
ATOM      2  C   UNL     1       3.797   4.576  19.623  0.00  0.00    +0.000 C 
ATOM      3  S   UNL     1       4.658   4.817  18.165  0.00  0.00    +0.000 S 
ATOM      4  O   UNL     1       4.243   3.774  17.248  0.00  0.00    +0.000 OA
ATOM      5  O   UNL     1       6.064   4.975  18.472  0.00  0.00    +0.000 OA
ATOM      6  N   UNL     1       4.150   6.233  17.443  0.00  0.00    +0.000 N 
ATOM      7  C   UNL     1       3.168   7.042  18.084  0.00  0.00    +0.000 A 
ATOM      8  C   UNL     1       2.839   8.239  17.439  0.00  0.00    +0.000 A 
ATOM      9  C   UNL     1       1.966   9.145  18.038  0.00  0.00    +0.000 A 
ATOM     10  C   UNL     1       1.413   8.847  19.285  0.00  0.00    +0.000 A 
ATOM     11  C   UNL     1       1.767   7.672  19.945  0.00  0.00    +0.000 A 
ATOM     12  C   UNL     1       2.603   6.722  19.330  0.00  0.00    +0.000 A 
ATOM     13  H   UNL     1       4.067   6.130  16.436  0.00  0.00    +0.000 HD
ENDROOT
BRANCH   1  15
ATOM     14  C   UNL     1       1.045   3.909  20.574  0.00  0.00    +0.000 C 
ATOM     15  O   UNL     1       1.818   5.070  20.884  0.00  0.00    +0.000 OA
ENDBRANCH   1  15
BRANCH  10  16
ATOM     16  O   UNL     1       0.502   9.661  19.916  0.00  0.00    +0.000 OA
BRANCH  16  17
ATOM     17  C   UNL     1       0.460  10.990  19.545  0.00  0.00    +0.000 A 
ATOM     18  C   UNL     1       1.439  11.919  19.944  0.00  0.00    +0.000 A 
ATOM     19  C   UNL     1       1.302  13.267  19.632  0.00  0.00    +0.000 A 
ATOM     20  C   UNL     1       0.220  13.694  18.869  0.00  0.00    +0.000 A 
ATOM     21  C   UNL     1      -0.711  12.767  18.392  0.00  0.00    +0.000 A 
ATOM     22  C   UNL     1      -0.584  11.419  18.715  0.00  0.00    +0.000 A 
ATOM     23 BR   UNL     1      -1.857  10.197  18.012  0.00  0.00    +0.000 Br
ENDBRANCH  16  17
ENDBRANCH  10  16
TORSDOF 3
ENDMDL
MODEL 9
REMARK VINA RESULT:      -6.8      3.727      7.294
REMARK  Name = 
REMARK  4 active torsions:
REMARK  status: ('A' for Active; 'I' for Inactive)
REMARK    1  A    between atoms: C_1  and  O_2
REMARK    2  A    between atoms: O_2  and  C_3
REMARK    3  A    between atoms: C_12  and  O_13
REMARK    4  A    between atoms: O_13  and  C_14
REMARK                            x       y       z     vdW  Elec       q    Type
REMARK                         _______ _______ _______ _____ _____    ______ ____
ROOT
ATOM      1  C   UNL     1       4.041   5.991  17.403  0.00  0.00    +0.000 C 
ATOM      2  C   UNL     1       4.353   4.702  17.572  0.00  0.00    +0.000 C 
ATOM      3  S   UNL     1       3.971   3.903  19.036  0.00  0.00    +0.000 S 
ATOM      4  O   UNL     1       5.218   3.701  19.748  0.00  0.00    +0.000 OA
ATOM      5  O   UNL     1       3.128   2.764  18.741  0.00  0.00    +0.000 OA
ATOM      6  N   UNL     1       3.091   4.926  20.017  0.00  0.00    +0.000 N 
ATOM      7  C   UNL     1       2.745   6.228  19.555  0.00  0.00    +0.000 A 
ATOM      8  C   UNL     1       1.959   7.000  20.418  0.00  0.00    +0.000 A 
ATOM      9  C   UNL     1       1.485   8.246  20.012  0.00  0.00    +0.000 A 
ATOM     10  C   UNL     1       1.805   8.724  18.742  0.00  0.00    +0.000 A 
ATOM     11  C   UNL     1       2.557   7.942  17.867  0.00  0.00    +0.000 A 
ATOM     12  C   UNL     1       3.091   6.707  18.281  0.00  0.00    +0.000 A 
ATOM     13  H   UNL     1       3.378   4.850  20.989  0.00  0.00    +0.000 HD
ENDROOT
BRANCH   1  15
ATOM     14  C   UNL     1       5.329   6.130  15.397  0.00  0.00    +0.000 C 
ATOM     15  O   UNL     1       4.648   6.805  16.457  0.00  0.00    +0.000 OA
ENDBRANCH   1  15
BRANCH  10  16
ATOM     16  O   UNL     1       1.423   9.966  18.288  0.00  0.00    +0.000 OA
BRANCH  16  17
ATOM     17  C   UNL     1       0.665  10.754  19.130  0.00  0.00    +0.000 A 
ATOM     18  C   UNL     1       1.232  11.504  20.178  0.00  0.00    +0.000 A 
ATOM     19  C   UNL     1       0.421  12.203  21.064  0.00  0.00    +0.000 A 
ATOM     20  C   UNL     1      -0.958  12.211  20.882  0.00  0.00    +0.000 A 
ATOM     21  C   UNL     1      -1.526  11.543  19.792  0.00  0.00    +0.000 A 
ATOM     22  C   UNL     1      -0.717  10.830  18.912  0.00  0.00    +0.000 A 
ATOM     23 BR   UNL     1      -1.534   9.970  17.429  0.00  0.00    +0.000 Br
ENDBRANCH  16  17
ENDBRANCH  10  16
TORSDOF 3
ENDMDL
