MODEL 1
REMARK VINA RESULT:      -8.4      0.000      0.000
REMARK  Name = 
REMARK  8 active torsions:
REMARK  status: ('A' for Active; 'I' for Inactive)
REMARK    1  A    between atoms: C_2  and  C_3
REMARK    2  A    between atoms: C_4  and  C_5
REMARK    3  A    between atoms: C_10  and  C_11
REMARK    4  A    between atoms: C_17  and  S_18
REMARK    5  A    between atoms: S_18  and  C_19
REMARK    6  A    between atoms: C_19  and  C_20
REMARK    7  A    between atoms: C_19  and  C_23
REMARK    8  A    between atoms: C_20  and  O_22
REMARK                            x       y       z     vdW  Elec       q    Type
REMARK                         _______ _______ _______ _____ _____    ______ ____
ROOT
ATOM      1  C   UNL     1       3.700   3.800  19.826  0.00  0.00    +0.000 A 
ATOM      2  C   UNL     1       2.306   3.856  19.976  0.00  0.00    +0.000 A 
ATOM      3  C   UNL     1       1.685   5.110  19.905  0.00  0.00    +0.000 A 
ATOM      4  C   UNL     1       2.453   6.248  19.697  0.00  0.00    +0.000 A 
ATOM      5  N   UNL     1       3.788   6.201  19.445  0.00  0.00    +0.000 NA
ATOM      6  C   UNL     1       4.385   4.981  19.491  0.00  0.00    +0.000 A 
ENDROOT
BRANCH   4   7
ATOM      7  C   UNL     1       1.895   7.601  19.785  0.00  0.00    +0.000 A 
ATOM      8  C   UNL     1       1.272   8.215  20.855  0.00  0.00    +0.000 A 
ATOM      9  C   UNL     1       0.789   9.518  20.538  0.00  0.00    +0.000 A 
ATOM     10  C   UNL     1       1.061   9.864  19.230  0.00  0.00    +0.000 A 
ATOM     11  S   UNL     1       1.898   8.629  18.406  0.00  0.00    +0.000 S 
ENDBRANCH   4   7
BRANCH   2  12
ATOM     12  C   UNL     1       1.425   2.651  20.196  0.00  0.00    +0.000 C 
ATOM     13  F   UNL     1       1.698   1.578  19.419  0.00  0.00    +0.000 F 
ATOM     14  F   UNL     1       1.478   2.214  21.483  0.00  0.00    +0.000 F 
ATOM     15  F   UNL     1       0.117   2.952  19.961  0.00  0.00    +0.000 F 
ENDBRANCH   2  12
BRANCH   1  17
ATOM     16  N   UNL     1       5.013   1.620  20.324  0.00  0.00    +0.000 NA
ATOM     17  C   UNL     1       4.424   2.585  20.067  0.00  0.00    +0.000 C 
ENDBRANCH   1  17
BRANCH   6  18
ATOM     18  S   UNL     1       6.089   4.897  18.954  0.00  0.00    +0.000 S 
BRANCH  18  19
ATOM     19  C   UNL     1       6.218   6.108  17.562  0.00  0.00    +0.000 C 
BRANCH  19  20
ATOM     20  C   UNL     1       6.253   5.350  16.230  0.00  0.00    +0.000 A 
ATOM     21  C   UNL     1       7.397   5.374  15.414  0.00  0.00    +0.000 A 
ATOM     22  C   UNL     1       7.402   4.739  14.168  0.00  0.00    +0.000 A 
ATOM     23  C   UNL     1       6.264   4.077  13.710  0.00  0.00    +0.000 A 
ATOM     24  C   UNL     1       5.132   4.017  14.514  0.00  0.00    +0.000 A 
ATOM     25  C   UNL     1       5.131   4.634  15.768  0.00  0.00    +0.000 A 
ENDBRANCH  19  20
BRANCH  19  26
ATOM     26  C   UNL     1       7.452   6.994  17.779  0.00  0.00    +0.000 C 
ATOM     27  O   UNL     1       7.793   7.932  17.068  0.00  0.00    +0.000 OA
BRANCH  26  28
ATOM     28  O   UNL     1       8.204   6.629  18.850  0.00  0.00    +0.000 OA
ATOM     29  H   UNL     1       7.672   6.301  19.609  0.00  0.00    +0.000 HD
ENDBRANCH  26  28
ENDBRANCH  19  26
ENDBRANCH  18  19
ENDBRANCH   6  18
TORSDOF 8
ENDMDL
MODEL 2
REMARK VINA RESULT:      -8.3      0.617      1.393
REMARK  Name = 
REMARK  8 active torsions:
REMARK  status: ('A' for Active; 'I' for Inactive)
REMARK    1  A    between atoms: C_2  and  C_3
REMARK    2  A    between atoms: C_4  and  C_5
REMARK    3  A    between atoms: C_10  and  C_11
REMARK    4  A    between atoms: C_17  and  S_18
REMARK    5  A    between atoms: S_18  and  C_19
REMARK    6  A    between atoms: C_19  and  C_20
REMARK    7  A    between atoms: C_19  and  C_23
REMARK    8  A    between atoms: C_20  and  O_22
REMARK                            x       y       z     vdW  Elec       q    Type
REMARK                         _______ _______ _______ _____ _____    ______ ____
ROOT
ATOM      1  C   UNL     1       3.659   3.878  19.807  0.00  0.00    +0.000 A 
ATOM      2  C   UNL     1       2.266   3.937  19.962  0.00  0.00    +0.000 A 
ATOM      3  C   UNL     1       1.641   5.186  19.839  0.00  0.00    +0.000 A 
ATOM      4  C   UNL     1       2.404   6.315  19.577  0.00  0.00    +0.000 A 
ATOM      5  N   UNL     1       3.739   6.261  19.320  0.00  0.00    +0.000 NA
ATOM      6  C   UNL     1       4.339   5.045  19.417  0.00  0.00    +0.000 A 
ENDROOT
BRANCH   4   7
ATOM      7  C   UNL     1       1.843   7.669  19.608  0.00  0.00    +0.000 A 
ATOM      8  C   UNL     1       1.819   8.622  18.606  0.00  0.00    +0.000 A 
ATOM      9  C   UNL     1       1.254   9.858  19.036  0.00  0.00    +0.000 A 
ATOM     10  C   UNL     1       0.858   9.813  20.356  0.00  0.00    +0.000 A 
ATOM     11  S   UNL     1       1.161   8.289  21.059  0.00  0.00    +0.000 S 
ENDBRANCH   4   7
BRANCH   2  12
ATOM     12  C   UNL     1       1.389   2.741  20.240  0.00  0.00    +0.000 C 
ATOM     13  F   UNL     1       0.069   2.917  20.004  0.00  0.00    +0.000 F 
ATOM     14  F   UNL     1       1.766   1.657  19.512  0.00  0.00    +0.000 F 
ATOM     15  F   UNL     1       1.482   2.361  21.545  0.00  0.00    +0.000 F 
ENDBRANCH   2  12
BRANCH   1  17
ATOM     16  N   UNL     1       4.988   1.729  20.391  0.00  0.00    +0.000 NA
ATOM     17  C   UNL     1       4.388   2.677  20.097  0.00  0.00    +0.000 C 
ENDBRANCH   1  17
BRANCH   6  18
ATOM     18  S   UNL     1       6.041   4.942  18.874  0.00  0.00    +0.000 S 
BRANCH  18  19
ATOM     19  C   UNL     1       6.195   6.197  17.524  0.00  0.00    +0.000 C 
BRANCH  19  20
ATOM     20  C   UNL     1       6.216   5.483  16.167  0.00  0.00    +0.000 A 
ATOM     21  C   UNL     1       5.072   4.833  15.673  0.00  0.00    +0.000 A 
ATOM     22  C   UNL     1       5.114   4.123  14.469  0.00  0.00    +0.000 A 
ATOM     23  C   UNL     1       6.299   4.042  13.741  0.00  0.00    +0.000 A 
ATOM     24  C   UNL     1       7.435   4.701  14.198  0.00  0.00    +0.000 A 
ATOM     25  C   UNL     1       7.390   5.426  15.390  0.00  0.00    +0.000 A 
ENDBRANCH  19  20
BRANCH  19  26
ATOM     26  C   UNL     1       7.445   7.050  17.771  0.00  0.00    +0.000 C 
ATOM     27  O   UNL     1       7.800   8.012  17.100  0.00  0.00    +0.000 OA
BRANCH  26  28
ATOM     28  O   UNL     1       8.197   6.624  18.821  0.00  0.00    +0.000 OA
ATOM     29  H   UNL     1       7.700   6.064  19.457  0.00  0.00    +0.000 HD
ENDBRANCH  26  28
ENDBRANCH  19  26
ENDBRANCH  18  19
ENDBRANCH   6  18
TORSDOF 8
ENDMDL
MODEL 3
REMARK VINA RESULT:      -8.2      1.274      1.690
REMARK  Name = 
REMARK  8 active torsions:
REMARK  status: ('A' for Active; 'I' for Inactive)
REMARK    1  A    between atoms: C_2  and  C_3
REMARK    2  A    between atoms: C_4  and  C_5
REMARK    3  A    between atoms: C_10  and  C_11
REMARK    4  A    between atoms: C_17  and  S_18
REMARK    5  A    between atoms: S_18  and  C_19
REMARK    6  A    between atoms: C_19  and  C_20
REMARK    7  A    between atoms: C_19  and  C_23
REMARK    8  A    between atoms: C_20  and  O_22
REMARK                            x       y       z     vdW  Elec       q    Type
REMARK                         _______ _______ _______ _____ _____    ______ ____
ROOT
ATOM      1  C   UNL     1       3.740   3.608  19.301  0.00  0.00    +0.000 A 
ATOM      2  C   UNL     1       2.605   3.991  20.032  0.00  0.00    +0.000 A 
ATOM      3  C   UNL     1       2.065   5.262  19.793  0.00  0.00    +0.000 A 
ATOM      4  C   UNL     1       2.659   6.098  18.858  0.00  0.00    +0.000 A 
ATOM      5  N   UNL     1       3.693   5.705  18.067  0.00  0.00    +0.000 NA
ATOM      6  C   UNL     1       4.201   4.463  18.284  0.00  0.00    +0.000 A 
ENDROOT
BRANCH   4   7
ATOM      7  C   UNL     1       2.255   7.497  18.683  0.00  0.00    +0.000 A 
ATOM      8  C   UNL     1       2.464   8.331  17.601  0.00  0.00    +0.000 A 
ATOM      9  C   UNL     1       1.992   9.657  17.829  0.00  0.00    +0.000 A 
ATOM     10  C   UNL     1       1.431   9.796  19.081  0.00  0.00    +0.000 A 
ATOM     11  S   UNL     1       1.469   8.337  19.961  0.00  0.00    +0.000 S 
ENDBRANCH   4   7
BRANCH   2  12
ATOM     12  C   UNL     1       1.917   3.120  21.053  0.00  0.00    +0.000 C 
ATOM     13  F   UNL     1       2.650   2.815  22.150  0.00  0.00    +0.000 F 
ATOM     14  F   UNL     1       0.767   3.684  21.508  0.00  0.00    +0.000 F 
ATOM     15  F   UNL     1       1.554   1.924  20.511  0.00  0.00    +0.000 F 
ENDBRANCH   2  12
BRANCH   1  17
ATOM     16  N   UNL     1       5.025   1.448  19.936  0.00  0.00    +0.000 NA
ATOM     17  C   UNL     1       4.455   2.405  19.617  0.00  0.00    +0.000 C 
ENDBRANCH   1  17
BRANCH   6  18
ATOM     18  S   UNL     1       5.413   3.871  17.109  0.00  0.00    +0.000 S 
BRANCH  18  19
ATOM     19  C   UNL     1       5.851   5.346  16.082  0.00  0.00    +0.000 C 
BRANCH  19  20
ATOM     20  C   UNL     1       6.297   4.883  14.691  0.00  0.00    +0.000 A 
ATOM     21  C   UNL     1       7.438   5.429  14.077  0.00  0.00    +0.000 A 
ATOM     22  C   UNL     1       7.802   5.056  12.780  0.00  0.00    +0.000 A 
ATOM     23  C   UNL     1       7.032   4.137  12.069  0.00  0.00    +0.000 A 
ATOM     24  C   UNL     1       5.918   3.563  12.668  0.00  0.00    +0.000 A 
ATOM     25  C   UNL     1       5.562   3.920  13.971  0.00  0.00    +0.000 A 
ENDBRANCH  19  20
BRANCH  19  26
ATOM     26  C   UNL     1       6.923   6.166  16.812  0.00  0.00    +0.000 C 
ATOM     27  O   UNL     1       7.048   7.384  16.765  0.00  0.00    +0.000 OA
BRANCH  26  28
ATOM     28  O   UNL     1       7.797   5.408  17.527  0.00  0.00    +0.000 OA
ATOM     29  H   UNL     1       7.958   4.521  17.134  0.00  0.00    +0.000 HD
ENDBRANCH  26  28
ENDBRANCH  19  26
ENDBRANCH  18  19
ENDBRANCH   6  18
TORSDOF 8
ENDMDL
MODEL 4
REMARK VINA RESULT:      -8.1      1.211      1.879
REMARK  Name = 
REMARK  8 active torsions:
REMARK  status: ('A' for Active; 'I' for Inactive)
REMARK    1  A    between atoms: C_2  and  C_3
REMARK    2  A    between atoms: C_4  and  C_5
REMARK    3  A    between atoms: C_10  and  C_11
REMARK    4  A    between atoms: C_17  and  S_18
REMARK    5  A    between atoms: S_18  and  C_19
REMARK    6  A    between atoms: C_19  and  C_20
REMARK    7  A    between atoms: C_19  and  C_23
REMARK    8  A    between atoms: C_20  and  O_22
REMARK                            x       y       z     vdW  Elec       q    Type
REMARK                         _______ _______ _______ _____ _____    ______ ____
ROOT
ATOM      1  C   UNL     1       3.721   3.708  19.382  0.00  0.00    +0.000 A 
ATOM      2  C   UNL     1       2.550   4.074  20.064  0.00  0.00    +0.000 A 
ATOM      3  C   UNL     1       2.008   5.342  19.812  0.00  0.00    +0.000 A 
ATOM      4  C   UNL     1       2.636   6.192  18.911  0.00  0.00    +0.000 A 
ATOM      5  N   UNL     1       3.708   5.815  18.164  0.00  0.00    +0.000 NA
ATOM      6  C   UNL     1       4.218   4.576  18.394  0.00  0.00    +0.000 A 
ENDROOT
BRANCH   4   7
ATOM      7  C   UNL     1       2.226   7.588  18.730  0.00  0.00    +0.000 A 
ATOM      8  C   UNL     1       2.420   8.414  17.638  0.00  0.00    +0.000 A 
ATOM      9  C   UNL     1       1.948   9.740  17.861  0.00  0.00    +0.000 A 
ATOM     10  C   UNL     1       1.402   9.889  19.119  0.00  0.00    +0.000 A 
ATOM     11  S   UNL     1       1.455   8.437  20.011  0.00  0.00    +0.000 S 
ENDBRANCH   4   7
BRANCH   2  12
ATOM     12  C   UNL     1       1.825   3.187  21.046  0.00  0.00    +0.000 C 
ATOM     13  F   UNL     1       0.559   3.559  21.345  0.00  0.00    +0.000 F 
ATOM     14  F   UNL     1       1.753   1.902  20.610  0.00  0.00    +0.000 F 
ATOM     15  F   UNL     1       2.484   3.137  22.238  0.00  0.00    +0.000 F 
ENDBRANCH   2  12
BRANCH   1  17
ATOM     16  N   UNL     1       5.062   1.569  19.971  0.00  0.00    +0.000 NA
ATOM     17  C   UNL     1       4.432   2.510  19.720  0.00  0.00    +0.000 C 
ENDBRANCH   1  17
BRANCH   6  18
ATOM     18  S   UNL     1       5.487   4.006  17.270  0.00  0.00    +0.000 S 
BRANCH  18  19
ATOM     19  C   UNL     1       5.893   5.472  16.216  0.00  0.00    +0.000 C 
BRANCH  19  20
ATOM     20  C   UNL     1       6.231   4.999  14.798  0.00  0.00    +0.000 A 
ATOM     21  C   UNL     1       5.411   4.075  14.127  0.00  0.00    +0.000 A 
ATOM     22  C   UNL     1       5.759   3.592  12.862  0.00  0.00    +0.000 A 
ATOM     23  C   UNL     1       6.935   4.015  12.246  0.00  0.00    +0.000 A 
ATOM     24  C   UNL     1       7.746   4.949  12.879  0.00  0.00    +0.000 A 
ATOM     25  C   UNL     1       7.391   5.448  14.135  0.00  0.00    +0.000 A 
ENDBRANCH  19  20
BRANCH  19  26
ATOM     26  C   UNL     1       7.033   6.262  16.871  0.00  0.00    +0.000 C 
ATOM     27  O   UNL     1       7.234   7.464  16.748  0.00  0.00    +0.000 OA
BRANCH  26  28
ATOM     28  O   UNL     1       7.875   5.492  17.610  0.00  0.00    +0.000 OA
ATOM     29  H   UNL     1       8.271   5.967  18.375  0.00  0.00    +0.000 HD
ENDBRANCH  26  28
ENDBRANCH  19  26
ENDBRANCH  18  19
ENDBRANCH   6  18
TORSDOF 8
ENDMDL
MODEL 5
REMARK VINA RESULT:      -7.9      1.452      2.085
REMARK  Name = 
REMARK  8 active torsions:
REMARK  status: ('A' for Active; 'I' for Inactive)
REMARK    1  A    between atoms: C_2  and  C_3
REMARK    2  A    between atoms: C_4  and  C_5
REMARK    3  A    between atoms: C_10  and  C_11
REMARK    4  A    between atoms: C_17  and  S_18
REMARK    5  A    between atoms: S_18  and  C_19
REMARK    6  A    between atoms: C_19  and  C_20
REMARK    7  A    between atoms: C_19  and  C_23
REMARK    8  A    between atoms: C_20  and  O_22
REMARK                            x       y       z     vdW  Elec       q    Type
REMARK                         _______ _______ _______ _____ _____    ______ ____
ROOT
ATOM      1  C   UNL     1       3.628   3.430  19.177  0.00  0.00    +0.000 A 
ATOM      2  C   UNL     1       2.635   3.881  20.061  0.00  0.00    +0.000 A 
ATOM      3  C   UNL     1       2.122   5.171  19.873  0.00  0.00    +0.000 A 
ATOM      4  C   UNL     1       2.603   5.960  18.837  0.00  0.00    +0.000 A 
ATOM      5  N   UNL     1       3.486   5.502  17.909  0.00  0.00    +0.000 NA
ATOM      6  C   UNL     1       3.966   4.242  18.080  0.00  0.00    +0.000 A 
ENDROOT
BRANCH   4   7
ATOM      7  C   UNL     1       2.240   7.373  18.688  0.00  0.00    +0.000 A 
ATOM      8  C   UNL     1       2.455   8.215  17.613  0.00  0.00    +0.000 A 
ATOM      9  C   UNL     1       2.029   9.552  17.867  0.00  0.00    +0.000 A 
ATOM     10  C   UNL     1       1.496   9.691  19.132  0.00  0.00    +0.000 A 
ATOM     11  S   UNL     1       1.505   8.219  19.992  0.00  0.00    +0.000 S 
ENDBRANCH   4   7
BRANCH   2  12
ATOM     12  C   UNL     1       2.072   3.063  21.197  0.00  0.00    +0.000 C 
ATOM     13  F   UNL     1       2.985   2.541  22.049  0.00  0.00    +0.000 F 
ATOM     14  F   UNL     1       1.207   3.784  21.959  0.00  0.00    +0.000 F 
ATOM     15  F   UNL     1       1.358   2.002  20.728  0.00  0.00    +0.000 F 
ENDBRANCH   2  12
BRANCH   1  17
ATOM     16  N   UNL     1       4.886   1.192  19.541  0.00  0.00    +0.000 NA
ATOM     17  C   UNL     1       4.328   2.201  19.413  0.00  0.00    +0.000 C 
ENDBRANCH   1  17
BRANCH   6  18
ATOM     18  S   UNL     1       4.957   3.570  16.751  0.00  0.00    +0.000 S 
BRANCH  18  19
ATOM     19  C   UNL     1       5.951   4.997  16.120  0.00  0.00    +0.000 C 
BRANCH  19  20
ATOM     20  C   UNL     1       6.330   4.745  14.657  0.00  0.00    +0.000 A 
ATOM     21  C   UNL     1       5.631   3.804  13.880  0.00  0.00    +0.000 A 
ATOM     22  C   UNL     1       6.023   3.525  12.567  0.00  0.00    +0.000 A 
ATOM     23  C   UNL     1       7.123   4.172  12.008  0.00  0.00    +0.000 A 
ATOM     24  C   UNL     1       7.810   5.126  12.749  0.00  0.00    +0.000 A 
ATOM     25  C   UNL     1       7.409   5.421  14.054  0.00  0.00    +0.000 A 
ENDBRANCH  19  20
BRANCH  19  26
ATOM     26  C   UNL     1       7.171   5.200  17.028  0.00  0.00    +0.000 C 
ATOM     27  O   UNL     1       8.042   4.368  17.253  0.00  0.00    +0.000 OA
BRANCH  26  28
ATOM     28  O   UNL     1       7.208   6.419  17.628  0.00  0.00    +0.000 OA
ATOM     29  H   UNL     1       8.079   6.868  17.551  0.00  0.00    +0.000 HD
ENDBRANCH  26  28
ENDBRANCH  19  26
ENDBRANCH  18  19
ENDBRANCH   6  18
TORSDOF 8
ENDMDL
MODEL 6
REMARK VINA RESULT:      -7.9      1.474      1.949
REMARK  Name = 
REMARK  8 active torsions:
REMARK  status: ('A' for Active; 'I' for Inactive)
REMARK    1  A    between atoms: C_2  and  C_3
REMARK    2  A    between atoms: C_4  and  C_5
REMARK    3  A    between atoms: C_10  and  C_11
REMARK    4  A    between atoms: C_17  and  S_18
REMARK    5  A    between atoms: S_18  and  C_19
REMARK    6  A    between atoms: C_19  and  C_20
REMARK    7  A    between atoms: C_19  and  C_23
REMARK    8  A    between atoms: C_20  and  O_22
REMARK                            x       y       z     vdW  Elec       q    Type
REMARK                         _______ _______ _______ _____ _____    ______ ____
ROOT
ATOM      1  C   UNL     1       3.653   3.682  19.298  0.00  0.00    +0.000 A 
ATOM      2  C   UNL     1       2.738   4.173  20.241  0.00  0.00    +0.000 A 
ATOM      3  C   UNL     1       2.199   5.451  20.034  0.00  0.00    +0.000 A 
ATOM      4  C   UNL     1       2.582   6.188  18.922  0.00  0.00    +0.000 A 
ATOM      5  N   UNL     1       3.386   5.687  17.945  0.00  0.00    +0.000 NA
ATOM      6  C   UNL     1       3.889   4.439  18.137  0.00  0.00    +0.000 A 
ENDROOT
BRANCH   4   7
ATOM      7  C   UNL     1       2.196   7.590  18.735  0.00  0.00    +0.000 A 
ATOM      8  C   UNL     1       2.419   8.414  17.647  0.00  0.00    +0.000 A 
ATOM      9  C   UNL     1       1.962   9.747  17.864  0.00  0.00    +0.000 A 
ATOM     10  C   UNL     1       1.399   9.902  19.113  0.00  0.00    +0.000 A 
ATOM     11  S   UNL     1       1.416   8.449  20.004  0.00  0.00    +0.000 S 
ENDBRANCH   4   7
BRANCH   2  12
ATOM     12  C   UNL     1       2.282   3.412  21.461  0.00  0.00    +0.000 C 
ATOM     13  F   UNL     1       1.018   2.930  21.410  0.00  0.00    +0.000 F 
ATOM     14  F   UNL     1       3.086   2.347  21.723  0.00  0.00    +0.000 F 
ATOM     15  F   UNL     1       2.332   4.196  22.574  0.00  0.00    +0.000 F 
ENDBRANCH   2  12
BRANCH   1  17
ATOM     16  N   UNL     1       4.916   1.455  19.710  0.00  0.00    +0.000 NA
ATOM     17  C   UNL     1       4.382   2.469  19.533  0.00  0.00    +0.000 C 
ENDBRANCH   1  17
BRANCH   6  18
ATOM     18  S   UNL     1       4.767   3.705  16.762  0.00  0.00    +0.000 S 
BRANCH  18  19
ATOM     19  C   UNL     1       5.911   5.028  16.157  0.00  0.00    +0.000 C 
BRANCH  19  20
ATOM     20  C   UNL     1       6.353   4.701  14.726  0.00  0.00    +0.000 A 
ATOM     21  C   UNL     1       7.431   5.378  14.129  0.00  0.00    +0.000 A 
ATOM     22  C   UNL     1       7.788   5.128  12.801  0.00  0.00    +0.000 A 
ATOM     23  C   UNL     1       7.072   4.205  12.041  0.00  0.00    +0.000 A 
ATOM     24  C   UNL     1       6.022   3.504  12.621  0.00  0.00    +0.000 A 
ATOM     25  C   UNL     1       5.675   3.738  13.954  0.00  0.00    +0.000 A 
ENDBRANCH  19  20
BRANCH  19  26
ATOM     26  C   UNL     1       7.087   5.160  17.132  0.00  0.00    +0.000 C 
ATOM     27  O   UNL     1       7.996   4.349  17.272  0.00  0.00    +0.000 OA
BRANCH  26  28
ATOM     28  O   UNL     1       7.036   6.280  17.901  0.00  0.00    +0.000 OA
ATOM     29  H   UNL     1       6.331   6.253  18.585  0.00  0.00    +0.000 HD
ENDBRANCH  26  28
ENDBRANCH  19  26
ENDBRANCH  18  19
ENDBRANCH   6  18
TORSDOF 8
ENDMDL
MODEL 7
REMARK VINA RESULT:      -7.8      1.094      1.662
REMARK  Name = 
REMARK  8 active torsions:
REMARK  status: ('A' for Active; 'I' for Inactive)
REMARK    1  A    between atoms: C_2  and  C_3
REMARK    2  A    between atoms: C_4  and  C_5
REMARK    3  A    between atoms: C_10  and  C_11
REMARK    4  A    between atoms: C_17  and  S_18
REMARK    5  A    between atoms: S_18  and  C_19
REMARK    6  A    between atoms: C_19  and  C_20
REMARK    7  A    between atoms: C_19  and  C_23
REMARK    8  A    between atoms: C_20  and  O_22
REMARK                            x       y       z     vdW  Elec       q    Type
REMARK                         _______ _______ _______ _____ _____    ______ ____
ROOT
ATOM      1  C   UNL     1       3.739   3.596  19.420  0.00  0.00    +0.000 A 
ATOM      2  C   UNL     1       2.597   3.952  20.154  0.00  0.00    +0.000 A 
ATOM      3  C   UNL     1       2.063   5.234  19.962  0.00  0.00    +0.000 A 
ATOM      4  C   UNL     1       2.670   6.107  19.070  0.00  0.00    +0.000 A 
ATOM      5  N   UNL     1       3.712   5.743  18.275  0.00  0.00    +0.000 NA
ATOM      6  C   UNL     1       4.214   4.492  18.446  0.00  0.00    +0.000 A 
ENDROOT
BRANCH   4   7
ATOM      7  C   UNL     1       2.272   7.513  18.950  0.00  0.00    +0.000 A 
ATOM      8  C   UNL     1       1.521   8.279  19.821  0.00  0.00    +0.000 A 
ATOM      9  C   UNL     1       1.272   9.592  19.324  0.00  0.00    +0.000 A 
ATOM     10  C   UNL     1       1.846   9.792  18.085  0.00  0.00    +0.000 A 
ATOM     11  S   UNL     1       2.680   8.409  17.541  0.00  0.00    +0.000 S 
ENDBRANCH   4   7
BRANCH   2  12
ATOM     12  C   UNL     1       1.895   3.041  21.129  0.00  0.00    +0.000 C 
ATOM     13  F   UNL     1       2.589   2.740  22.251  0.00  0.00    +0.000 F 
ATOM     14  F   UNL     1       0.708   3.559  21.542  0.00  0.00    +0.000 F 
ATOM     15  F   UNL     1       1.595   1.844  20.551  0.00  0.00    +0.000 F 
ENDBRANCH   2  12
BRANCH   1  17
ATOM     16  N   UNL     1       5.012   1.379  19.851  0.00  0.00    +0.000 NA
ATOM     17  C   UNL     1       4.447   2.379  19.693  0.00  0.00    +0.000 C 
ENDBRANCH   1  17
BRANCH   6  18
ATOM     18  S   UNL     1       5.438   3.946  17.260  0.00  0.00    +0.000 S 
BRANCH  18  19
ATOM     19  C   UNL     1       5.805   5.434  16.224  0.00  0.00    +0.000 C 
BRANCH  19  20
ATOM     20  C   UNL     1       6.181   4.987  14.807  0.00  0.00    +0.000 A 
ATOM     21  C   UNL     1       5.394   4.053  14.110  0.00  0.00    +0.000 A 
ATOM     22  C   UNL     1       5.777   3.594  12.846  0.00  0.00    +0.000 A 
ATOM     23  C   UNL     1       6.956   4.050  12.259  0.00  0.00    +0.000 A 
ATOM     24  C   UNL     1       7.734   4.994  12.919  0.00  0.00    +0.000 A 
ATOM     25  C   UNL     1       7.343   5.469  14.173  0.00  0.00    +0.000 A 
ENDBRANCH  19  20
BRANCH  19  26
ATOM     26  C   UNL     1       6.905   6.260  16.903  0.00  0.00    +0.000 C 
ATOM     27  O   UNL     1       7.029   7.478  16.839  0.00  0.00    +0.000 OA
BRANCH  26  28
ATOM     28  O   UNL     1       7.806   5.508  17.590  0.00  0.00    +0.000 OA
ATOM     29  H   UNL     1       8.598   5.266  17.061  0.00  0.00    +0.000 HD
ENDBRANCH  26  28
ENDBRANCH  19  26
ENDBRANCH  18  19
ENDBRANCH   6  18
TORSDOF 8
ENDMDL
MODEL 8
REMARK VINA RESULT:      -7.7      1.511      2.074
REMARK  Name = 
REMARK  8 active torsions:
REMARK  status: ('A' for Active; 'I' for Inactive)
REMARK    1  A    between atoms: C_2  and  C_3
REMARK    2  A    between atoms: C_4  and  C_5
REMARK    3  A    between atoms: C_10  and  C_11
REMARK    4  A    between atoms: C_17  and  S_18
REMARK    5  A    between atoms: S_18  and  C_19
REMARK    6  A    between atoms: C_19  and  C_20
REMARK    7  A    between atoms: C_19  and  C_23
REMARK    8  A    between atoms: C_20  and  O_22
REMARK                            x       y       z     vdW  Elec       q    Type
REMARK                         _______ _______ _______ _____ _____    ______ ____
ROOT
ATOM      1  C   UNL     1       3.191   3.278  18.462  0.00  0.00    +0.000 A 
ATOM      2  C   UNL     1       1.955   3.665  19.002  0.00  0.00    +0.000 A 
ATOM      3  C   UNL     1       1.604   5.021  18.942  0.00  0.00    +0.000 A 
ATOM      4  C   UNL     1       2.476   5.932  18.362  0.00  0.00    +0.000 A 
ATOM      5  N   UNL     1       3.627   5.560  17.741  0.00  0.00    +0.000 NA
ATOM      6  C   UNL     1       3.954   4.242  17.781  0.00  0.00    +0.000 A 
ENDROOT
BRANCH   4   7
ATOM      7  C   UNL     1       2.254   7.380  18.420  0.00  0.00    +0.000 A 
ATOM      8  C   UNL     1       2.512   8.336  17.455  0.00  0.00    +0.000 A 
ATOM      9  C   UNL     1       2.236   9.661  17.905  0.00  0.00    +0.000 A 
ATOM     10  C   UNL     1       1.771   9.677  19.204  0.00  0.00    +0.000 A 
ATOM     11  S   UNL     1       1.662   8.108  19.861  0.00  0.00    +0.000 S 
ENDBRANCH   4   7
BRANCH   2  12
ATOM     12  C   UNL     1       0.969   2.715  19.636  0.00  0.00    +0.000 C 
ATOM     13  F   UNL     1       1.472   1.903  20.594  0.00  0.00    +0.000 F 
ATOM     14  F   UNL     1      -0.075   3.375  20.205  0.00  0.00    +0.000 F 
ATOM     15  F   UNL     1       0.419   1.887  18.704  0.00  0.00    +0.000 F 
ENDBRANCH   2  12
BRANCH   1  17
ATOM     16  N   UNL     1       4.080   0.858  18.741  0.00  0.00    +0.000 NA
ATOM     17  C   UNL     1       3.698   1.949  18.647  0.00  0.00    +0.000 C 
ENDBRANCH   1  17
BRANCH   6  18
ATOM     18  S   UNL     1       5.350   3.727  16.787  0.00  0.00    +0.000 S 
BRANCH  18  19
ATOM     19  C   UNL     1       5.889   5.251  15.886  0.00  0.00    +0.000 C 
BRANCH  19  20
ATOM     20  C   UNL     1       6.303   4.876  14.458  0.00  0.00    +0.000 A 
ATOM     21  C   UNL     1       5.599   3.900  13.732  0.00  0.00    +0.000 A 
ATOM     22  C   UNL     1       6.021   3.510  12.458  0.00  0.00    +0.000 A 
ATOM     23  C   UNL     1       7.157   4.080  11.887  0.00  0.00    +0.000 A 
ATOM     24  C   UNL     1       7.852   5.067  12.576  0.00  0.00    +0.000 A 
ATOM     25  C   UNL     1       7.421   5.472  13.842  0.00  0.00    +0.000 A 
ENDBRANCH  19  20
BRANCH  19  26
ATOM     26  C   UNL     1       7.014   5.931  16.676  0.00  0.00    +0.000 C 
ATOM     27  O   UNL     1       7.230   7.136  16.721  0.00  0.00    +0.000 OA
BRANCH  26  28
ATOM     28  O   UNL     1       7.824   5.058  17.333  0.00  0.00    +0.000 OA
ATOM     29  H   UNL     1       8.445   5.494  17.958  0.00  0.00    +0.000 HD
ENDBRANCH  26  28
ENDBRANCH  19  26
ENDBRANCH  18  19
ENDBRANCH   6  18
TORSDOF 8
ENDMDL
MODEL 9
REMARK VINA RESULT:      -7.6      1.411      1.777
REMARK  Name = 
REMARK  8 active torsions:
REMARK  status: ('A' for Active; 'I' for Inactive)
REMARK    1  A    between atoms: C_2  and  C_3
REMARK    2  A    between atoms: C_4  and  C_5
REMARK    3  A    between atoms: C_10  and  C_11
REMARK    4  A    between atoms: C_17  and  S_18
REMARK    5  A    between atoms: S_18  and  C_19
REMARK    6  A    between atoms: C_19  and  C_20
REMARK    7  A    between atoms: C_19  and  C_23
REMARK    8  A    between atoms: C_20  and  O_22
REMARK                            x       y       z     vdW  Elec       q    Type
REMARK                         _______ _______ _______ _____ _____    ______ ____
ROOT
ATOM      1  C   UNL     1       3.474   3.362  19.049  0.00  0.00    +0.000 A 
ATOM      2  C   UNL     1       2.590   3.788  20.053  0.00  0.00    +0.000 A 
ATOM      3  C   UNL     1       2.127   5.110  20.007  0.00  0.00    +0.000 A 
ATOM      4  C   UNL     1       2.551   5.953  18.990  0.00  0.00    +0.000 A 
ATOM      5  N   UNL     1       3.321   5.529  17.952  0.00  0.00    +0.000 NA
ATOM      6  C   UNL     1       3.751   4.240  17.986  0.00  0.00    +0.000 A 
ENDROOT
BRANCH   4   7
ATOM      7  C   UNL     1       2.247   7.387  18.977  0.00  0.00    +0.000 A 
ATOM      8  C   UNL     1       1.621   8.150  19.946  0.00  0.00    +0.000 A 
ATOM      9  C   UNL     1       1.430   9.504  19.542  0.00  0.00    +0.000 A 
ATOM     10  C   UNL     1       1.920   9.738  18.274  0.00  0.00    +0.000 A 
ATOM     11  S   UNL     1       2.609   8.336  17.590  0.00  0.00    +0.000 S 
ENDBRANCH   4   7
BRANCH   2  12
ATOM     12  C   UNL     1       2.093   2.911  21.176  0.00  0.00    +0.000 C 
ATOM     13  F   UNL     1       3.052   2.358  21.953  0.00  0.00    +0.000 F 
ATOM     14  F   UNL     1       1.263   3.586  22.015  0.00  0.00    +0.000 F 
ATOM     15  F   UNL     1       1.362   1.867  20.694  0.00  0.00    +0.000 F 
ENDBRANCH   2  12
BRANCH   1  17
ATOM     16  N   UNL     1       4.602   1.032  19.190  0.00  0.00    +0.000 NA
ATOM     17  C   UNL     1       4.130   2.090  19.129  0.00  0.00    +0.000 C 
ENDBRANCH   1  17
BRANCH   6  18
ATOM     18  S   UNL     1       4.581   3.629  16.525  0.00  0.00    +0.000 S 
BRANCH  18  19
ATOM     19  C   UNL     1       5.779   4.959  16.057  0.00  0.00    +0.000 C 
BRANCH  19  20
ATOM     20  C   UNL     1       6.321   4.683  14.650  0.00  0.00    +0.000 A 
ATOM     21  C   UNL     1       7.386   5.435  14.124  0.00  0.00    +0.000 A 
ATOM     22  C   UNL     1       7.832   5.228  12.815  0.00  0.00    +0.000 A 
ATOM     23  C   UNL     1       7.219   4.275  12.005  0.00  0.00    +0.000 A 
ATOM     24  C   UNL     1       6.182   3.502  12.514  0.00  0.00    +0.000 A 
ATOM     25  C   UNL     1       5.748   3.693  13.828  0.00  0.00    +0.000 A 
ENDBRANCH  19  20
BRANCH  19  26
ATOM     26  C   UNL     1       6.884   5.037  17.119  0.00  0.00    +0.000 C 
ATOM     27  O   UNL     1       7.893   4.343  17.154  0.00  0.00    +0.000 OA
BRANCH  26  28
ATOM     28  O   UNL     1       6.639   5.952  18.095  0.00  0.00    +0.000 OA
ATOM     29  H   UNL     1       6.522   6.866  17.753  0.00  0.00    +0.000 HD
ENDBRANCH  26  28
ENDBRANCH  19  26
ENDBRANCH  18  19
ENDBRANCH   6  18
TORSDOF 8
ENDMDL
