MODEL 1
REMARK VINA RESULT:      -8.2      0.000      0.000
REMARK  Name = 
REMARK  9 active torsions:
REMARK  status: ('A' for Active; 'I' for Inactive)
REMARK    1  A    between atoms: C_8  and  C_9
REMARK    2  A    between atoms: C_9  and  N_10
REMARK    3  A    between atoms: C_11  and  C_13
REMARK    4  A    between atoms: C_15  and  O_16
REMARK    5  A    between atoms: O_16  and  C_17
REMARK    6  A    between atoms: C_17  and  C_18
REMARK    7  A    between atoms: C_24  and  O_25
REMARK    8  A    between atoms: O_25  and  C_26
REMARK    9  A    between atoms: C_26  and  C_27
REMARK                            x       y       z     vdW  Elec       q    Type
REMARK                         _______ _______ _______ _____ _____    ______ ____
ROOT
ATOM      1  C   UNL     1       3.096   6.387  18.014  0.00  0.00    +0.000 A 
ATOM      2  C   UNL     1       4.400   6.626  17.530  0.00  0.00    +0.000 A 
ATOM      3  C   UNL     1       5.148   5.621  16.910  0.00  0.00    +0.000 A 
ATOM      4  C   UNL     1       4.574   4.363  16.749  0.00  0.00    +0.000 A 
ATOM      5  C   UNL     1       3.274   4.115  17.219  0.00  0.00    +0.000 A 
ATOM      6  C   UNL     1       2.521   5.123  17.840  0.00  0.00    +0.000 A 
ENDROOT
BRANCH   1   8
ATOM      7  N   UNL     1       1.964   8.555  17.788  0.00  0.00    +0.000 N 
ATOM      8  C   UNL     1       2.410   7.559  18.624  0.00  0.00    +0.000 C 
ATOM      9  O   UNL     1       2.277   7.591  19.844  0.00  0.00    +0.000 OA
ATOM     10  H   UNL     1       2.043   8.442  16.784  0.00  0.00    +0.000 HD
BRANCH   7  11
ATOM     11  C   UNL     1       1.430   9.806  18.321  0.00  0.00    +0.000 C 
BRANCH  11  19
ATOM     12  O   UNL     1      -0.449   8.294  21.519  0.00  0.00    +0.000 OA
ATOM     13  C   UNL     1      -0.229   9.493  21.511  0.00  0.00    +0.000 C 
ATOM     14  N   UNL     1       0.110  10.246  20.406  0.00  0.00    +0.000 N 
ATOM     15  C   UNL     1       0.202  11.699  20.466  0.00  0.00    +0.000 C 
ATOM     16  C   UNL     1      -0.942  12.343  19.684  0.00  0.00    +0.000 C 
ATOM     17  C   UNL     1      -1.079  11.761  18.274  0.00  0.00    +0.000 C 
ATOM     18  C   UNL     1      -1.098  10.227  18.294  0.00  0.00    +0.000 C 
ATOM     19  C   UNL     1       0.092   9.636  19.072  0.00  0.00    +0.000 C 
ENDBRANCH  11  19
ENDBRANCH   7  11
ENDBRANCH   1   8
BRANCH   3  20
ATOM     20  O   UNL     1       6.385   6.001  16.471  0.00  0.00    +0.000 OA
BRANCH  20  21
ATOM     21  C   UNL     1       7.271   6.594  17.431  0.00  0.00    +0.000 C 
BRANCH  21  22
ATOM     22  C   UNL     1       7.644   5.620  18.551  0.00  0.00    +0.000 C 
ATOM     23  F   UNL     1       6.624   5.362  19.396  0.00  0.00    +0.000 F 
ATOM     24  F   UNL     1       8.065   4.436  18.045  0.00  0.00    +0.000 F 
ATOM     25  F   UNL     1       8.664   6.119  19.293  0.00  0.00    +0.000 F 
ENDBRANCH  21  22
ENDBRANCH  20  21
ENDBRANCH   3  20
BRANCH   6  26
ATOM     26  O   UNL     1       1.283   4.718  18.270  0.00  0.00    +0.000 OA
BRANCH  26  27
ATOM     27  C   UNL     1       1.277   3.570  19.141  0.00  0.00    +0.000 C 
BRANCH  27  28
ATOM     28  C   UNL     1       1.432   3.943  20.613  0.00  0.00    +0.000 C 
ATOM     29  F   UNL     1       0.906   3.026  21.451  0.00  0.00    +0.000 F 
ATOM     30  F   UNL     1       2.742   4.087  20.936  0.00  0.00    +0.000 F 
ATOM     31  F   UNL     1       0.828   5.125  20.872  0.00  0.00    +0.000 F 
ENDBRANCH  27  28
ENDBRANCH  26  27
ENDBRANCH   6  26
TORSDOF 9
ENDMDL
MODEL 2
REMARK VINA RESULT:      -8.0      1.683      2.404
REMARK  Name = 
REMARK  9 active torsions:
REMARK  status: ('A' for Active; 'I' for Inactive)
REMARK    1  A    between atoms: C_8  and  C_9
REMARK    2  A    between atoms: C_9  and  N_10
REMARK    3  A    between atoms: C_11  and  C_13
REMARK    4  A    between atoms: C_15  and  O_16
REMARK    5  A    between atoms: O_16  and  C_17
REMARK    6  A    between atoms: C_17  and  C_18
REMARK    7  A    between atoms: C_24  and  O_25
REMARK    8  A    between atoms: O_25  and  C_26
REMARK    9  A    between atoms: C_26  and  C_27
REMARK                            x       y       z     vdW  Elec       q    Type
REMARK                         _______ _______ _______ _____ _____    ______ ____
ROOT
ATOM      1  C   UNL     1       2.947   6.840  18.045  0.00  0.00    +0.000 A 
ATOM      2  C   UNL     1       4.189   7.088  17.422  0.00  0.00    +0.000 A 
ATOM      3  C   UNL     1       5.042   6.047  17.045  0.00  0.00    +0.000 A 
ATOM      4  C   UNL     1       4.634   4.735  17.269  0.00  0.00    +0.000 A 
ATOM      5  C   UNL     1       3.398   4.475  17.879  0.00  0.00    +0.000 A 
ATOM      6  C   UNL     1       2.540   5.519  18.258  0.00  0.00    +0.000 A 
ENDROOT
BRANCH   1   8
ATOM      7  N   UNL     1       1.630   8.167  19.637  0.00  0.00    +0.000 N 
ATOM      8  C   UNL     1       2.134   8.045  18.364  0.00  0.00    +0.000 C 
ATOM      9  O   UNL     1       1.942   8.874  17.479  0.00  0.00    +0.000 OA
ATOM     10  H   UNL     1       1.876   7.484  20.344  0.00  0.00    +0.000 HD
BRANCH   7  11
ATOM     11  C   UNL     1       0.691   9.235  19.979  0.00  0.00    +0.000 C 
BRANCH  11  19
ATOM     12  O   UNL     1       2.203  12.833  20.884  0.00  0.00    +0.000 OA
ATOM     13  C   UNL     1       1.027  12.634  21.143  0.00  0.00    +0.000 C 
ATOM     14  N   UNL     1       0.408  11.403  21.204  0.00  0.00    +0.000 N 
ATOM     15  C   UNL     1      -0.963  11.256  21.672  0.00  0.00    +0.000 C 
ATOM     16  C   UNL     1      -0.996  10.559  23.032  0.00  0.00    +0.000 C 
ATOM     17  C   UNL     1      -0.167   9.271  23.042  0.00  0.00    +0.000 C 
ATOM     18  C   UNL     1       1.238   9.497  22.469  0.00  0.00    +0.000 C 
ATOM     19  C   UNL     1       1.206  10.177  21.088  0.00  0.00    +0.000 C 
ENDBRANCH  11  19
ENDBRANCH   7  11
ENDBRANCH   1   8
BRANCH   3  20
ATOM     20  O   UNL     1       6.201   6.435  16.433  0.00  0.00    +0.000 OA
BRANCH  20  21
ATOM     21  C   UNL     1       7.160   7.145  17.228  0.00  0.00    +0.000 C 
BRANCH  21  22
ATOM     22  C   UNL     1       7.693   6.296  18.384  0.00  0.00    +0.000 C 
ATOM     23  F   UNL     1       8.127   5.078  17.997  0.00  0.00    +0.000 F 
ATOM     24  F   UNL     1       8.721   6.917  19.009  0.00  0.00    +0.000 F 
ATOM     25  F   UNL     1       6.725   6.101  19.314  0.00  0.00    +0.000 F 
ENDBRANCH  21  22
ENDBRANCH  20  21
ENDBRANCH   3  20
BRANCH   6  26
ATOM     26  O   UNL     1       1.383   5.104  18.868  0.00  0.00    +0.000 OA
BRANCH  26  27
ATOM     27  C   UNL     1       1.538   4.597  20.208  0.00  0.00    +0.000 C 
BRANCH  27  28
ATOM     28  C   UNL     1       1.233   3.106  20.316  0.00  0.00    +0.000 C 
ATOM     29  F   UNL     1       2.299   2.325  20.049  0.00  0.00    +0.000 F 
ATOM     30  F   UNL     1       0.799   2.793  21.564  0.00  0.00    +0.000 F 
ATOM     31  F   UNL     1       0.248   2.758  19.456  0.00  0.00    +0.000 F 
ENDBRANCH  27  28
ENDBRANCH  26  27
ENDBRANCH   6  26
TORSDOF 9
ENDMDL
MODEL 3
REMARK VINA RESULT:      -8.0      2.012      2.352
REMARK  Name = 
REMARK  9 active torsions:
REMARK  status: ('A' for Active; 'I' for Inactive)
REMARK    1  A    between atoms: C_8  and  C_9
REMARK    2  A    between atoms: C_9  and  N_10
REMARK    3  A    between atoms: C_11  and  C_13
REMARK    4  A    between atoms: C_15  and  O_16
REMARK    5  A    between atoms: O_16  and  C_17
REMARK    6  A    between atoms: C_17  and  C_18
REMARK    7  A    between atoms: C_24  and  O_25
REMARK    8  A    between atoms: O_25  and  C_26
REMARK    9  A    between atoms: C_26  and  C_27
REMARK                            x       y       z     vdW  Elec       q    Type
REMARK                         _______ _______ _______ _____ _____    ______ ____
ROOT
ATOM      1  C   UNL     1       2.927   5.834  18.303  0.00  0.00    +0.000 A 
ATOM      2  C   UNL     1       4.115   5.913  17.545  0.00  0.00    +0.000 A 
ATOM      3  C   UNL     1       4.669   4.787  16.930  0.00  0.00    +0.000 A 
ATOM      4  C   UNL     1       4.010   3.566  17.053  0.00  0.00    +0.000 A 
ATOM      5  C   UNL     1       2.824   3.477  17.797  0.00  0.00    +0.000 A 
ATOM      6  C   UNL     1       2.265   4.606  18.414  0.00  0.00    +0.000 A 
ENDROOT
BRANCH   1   8
ATOM      7  N   UNL     1       2.069   8.115  18.003  0.00  0.00    +0.000 N 
ATOM      8  C   UNL     1       2.441   7.119  18.875  0.00  0.00    +0.000 C 
ATOM      9  O   UNL     1       2.398   7.239  20.096  0.00  0.00    +0.000 OA
ATOM     10  H   UNL     1       2.063   7.935  17.006  0.00  0.00    +0.000 HD
BRANCH   7  11
ATOM     11  C   UNL     1       1.737   9.455  18.484  0.00  0.00    +0.000 C 
BRANCH  11  19
ATOM     12  O   UNL     1      -0.492   8.222  21.576  0.00  0.00    +0.000 OA
ATOM     13  C   UNL     1      -0.029   9.349  21.630  0.00  0.00    +0.000 C 
ATOM     14  N   UNL     1       0.485  10.065  20.568  0.00  0.00    +0.000 N 
ATOM     15  C   UNL     1       0.874  11.463  20.702  0.00  0.00    +0.000 C 
ATOM     16  C   UNL     1      -0.093  12.365  19.935  0.00  0.00    +0.000 C 
ATOM     17  C   UNL     1      -0.312  11.888  18.497  0.00  0.00    +0.000 C 
ATOM     18  C   UNL     1      -0.648  10.393  18.440  0.00  0.00    +0.000 C 
ATOM     19  C   UNL     1       0.375   9.533  19.205  0.00  0.00    +0.000 C 
ENDBRANCH  11  19
ENDBRANCH   7  11
ENDBRANCH   1   8
BRANCH   3  20
ATOM     20  O   UNL     1       5.808   5.016  16.210  0.00  0.00    +0.000 OA
BRANCH  20  21
ATOM     21  C   UNL     1       6.338   3.922  15.450  0.00  0.00    +0.000 C 
BRANCH  21  22
ATOM     22  C   UNL     1       6.228   4.159  13.943  0.00  0.00    +0.000 C 
ATOM     23  F   UNL     1       7.027   5.152  13.498  0.00  0.00    +0.000 F 
ATOM     24  F   UNL     1       6.544   3.039  13.250  0.00  0.00    +0.000 F 
ATOM     25  F   UNL     1       4.955   4.486  13.606  0.00  0.00    +0.000 F 
ENDBRANCH  21  22
ENDBRANCH  20  21
ENDBRANCH   3  20
BRANCH   6  26
ATOM     26  O   UNL     1       1.122   4.351  19.129  0.00  0.00    +0.000 OA
BRANCH  26  27
ATOM     27  C   UNL     1       1.100   3.093  19.832  0.00  0.00    +0.000 C 
BRANCH  27  28
ATOM     28  C   UNL     1       1.768   3.168  21.202  0.00  0.00    +0.000 C 
ATOM     29  F   UNL     1       1.055   2.563  22.173  0.00  0.00    +0.000 F 
ATOM     30  F   UNL     1       2.994   2.586  21.171  0.00  0.00    +0.000 F 
ATOM     31  F   UNL     1       1.951   4.456  21.573  0.00  0.00    +0.000 F 
ENDBRANCH  27  28
ENDBRANCH  26  27
ENDBRANCH   6  26
TORSDOF 9
ENDMDL
MODEL 4
REMARK VINA RESULT:      -8.0      2.159      2.985
REMARK  Name = 
REMARK  9 active torsions:
REMARK  status: ('A' for Active; 'I' for Inactive)
REMARK    1  A    between atoms: C_8  and  C_9
REMARK    2  A    between atoms: C_9  and  N_10
REMARK    3  A    between atoms: C_11  and  C_13
REMARK    4  A    between atoms: C_15  and  O_16
REMARK    5  A    between atoms: O_16  and  C_17
REMARK    6  A    between atoms: C_17  and  C_18
REMARK    7  A    between atoms: C_24  and  O_25
REMARK    8  A    between atoms: O_25  and  C_26
REMARK    9  A    between atoms: C_26  and  C_27
REMARK                            x       y       z     vdW  Elec       q    Type
REMARK                         _______ _______ _______ _____ _____    ______ ____
ROOT
ATOM      1  C   UNL     1       3.056   6.965  18.401  0.00  0.00    +0.000 A 
ATOM      2  C   UNL     1       4.007   7.086  17.364  0.00  0.00    +0.000 A 
ATOM      3  C   UNL     1       4.835   6.020  17.001  0.00  0.00    +0.000 A 
ATOM      4  C   UNL     1       4.693   4.805  17.667  0.00  0.00    +0.000 A 
ATOM      5  C   UNL     1       3.745   4.671  18.693  0.00  0.00    +0.000 A 
ATOM      6  C   UNL     1       2.912   5.739  19.059  0.00  0.00    +0.000 A 
ENDROOT
BRANCH   1   8
ATOM      7  N   UNL     1       1.584   8.273  19.868  0.00  0.00    +0.000 N 
ATOM      8  C   UNL     1       2.226   8.173  18.656  0.00  0.00    +0.000 C 
ATOM      9  O   UNL     1       2.143   9.025  17.776  0.00  0.00    +0.000 OA
ATOM     10  H   UNL     1       1.743   7.571  20.581  0.00  0.00    +0.000 HD
BRANCH   7  11
ATOM     11  C   UNL     1       0.625   9.345  20.129  0.00  0.00    +0.000 C 
BRANCH  11  19
ATOM     12  O   UNL     1       2.137  12.956  20.981  0.00  0.00    +0.000 OA
ATOM     13  C   UNL     1       0.944  12.787  21.167  0.00  0.00    +0.000 C 
ATOM     14  N   UNL     1       0.300  11.569  21.239  0.00  0.00    +0.000 N 
ATOM     15  C   UNL     1      -1.102  11.463  21.620  0.00  0.00    +0.000 C 
ATOM     16  C   UNL     1      -1.237  10.827  23.003  0.00  0.00    +0.000 C 
ATOM     17  C   UNL     1      -0.434   9.528  23.123  0.00  0.00    +0.000 C 
ATOM     18  C   UNL     1       1.010   9.708  22.638  0.00  0.00    +0.000 C 
ATOM     19  C   UNL     1       1.082  10.327  21.230  0.00  0.00    +0.000 C 
ENDBRANCH  11  19
ENDBRANCH   7  11
ENDBRANCH   1   8
BRANCH   3  20
ATOM     20  O   UNL     1       5.692   6.273  15.967  0.00  0.00    +0.000 OA
BRANCH  20  21
ATOM     21  C   UNL     1       5.568   5.458  14.794  0.00  0.00    +0.000 C 
BRANCH  21  22
ATOM     22  C   UNL     1       6.806   4.590  14.560  0.00  0.00    +0.000 C 
ATOM     23  F   UNL     1       7.401   4.189  15.702  0.00  0.00    +0.000 F 
ATOM     24  F   UNL     1       6.494   3.480  13.850  0.00  0.00    +0.000 F 
ATOM     25  F   UNL     1       7.733   5.271  13.841  0.00  0.00    +0.000 F 
ENDBRANCH  21  22
ENDBRANCH  20  21
ENDBRANCH   3  20
BRANCH   6  26
ATOM     26  O   UNL     1       2.060   5.460  20.097  0.00  0.00    +0.000 OA
BRANCH  26  27
ATOM     27  C   UNL     1       1.460   4.149  20.070  0.00  0.00    +0.000 C 
BRANCH  27  28
ATOM     28  C   UNL     1       1.861   3.290  21.266  0.00  0.00    +0.000 C 
ATOM     29  F   UNL     1       2.434   3.999  22.260  0.00  0.00    +0.000 F 
ATOM     30  F   UNL     1       0.779   2.657  21.786  0.00  0.00    +0.000 F 
ATOM     31  F   UNL     1       2.738   2.331  20.891  0.00  0.00    +0.000 F 
ENDBRANCH  27  28
ENDBRANCH  26  27
ENDBRANCH   6  26
TORSDOF 9
ENDMDL
MODEL 5
REMARK VINA RESULT:      -7.9      0.770      1.195
REMARK  Name = 
REMARK  9 active torsions:
REMARK  status: ('A' for Active; 'I' for Inactive)
REMARK    1  A    between atoms: C_8  and  C_9
REMARK    2  A    between atoms: C_9  and  N_10
REMARK    3  A    between atoms: C_11  and  C_13
REMARK    4  A    between atoms: C_15  and  O_16
REMARK    5  A    between atoms: O_16  and  C_17
REMARK    6  A    between atoms: C_17  and  C_18
REMARK    7  A    between atoms: C_24  and  O_25
REMARK    8  A    between atoms: O_25  and  C_26
REMARK    9  A    between atoms: C_26  and  C_27
REMARK                            x       y       z     vdW  Elec       q    Type
REMARK                         _______ _______ _______ _____ _____    ______ ____
ROOT
ATOM      1  C   UNL     1       2.927   6.427  18.383  0.00  0.00    +0.000 A 
ATOM      2  C   UNL     1       4.145   6.652  17.706  0.00  0.00    +0.000 A 
ATOM      3  C   UNL     1       4.868   5.604  17.129  0.00  0.00    +0.000 A 
ATOM      4  C   UNL     1       4.352   4.314  17.206  0.00  0.00    +0.000 A 
ATOM      5  C   UNL     1       3.137   4.079  17.869  0.00  0.00    +0.000 A 
ATOM      6  C   UNL     1       2.409   5.130  18.448  0.00  0.00    +0.000 A 
ENDROOT
BRANCH   1   8
ATOM      7  N   UNL     1       1.827   8.594  18.027  0.00  0.00    +0.000 N 
ATOM      8  C   UNL     1       2.256   7.642  18.921  0.00  0.00    +0.000 C 
ATOM      9  O   UNL     1       2.119   7.746  20.136  0.00  0.00    +0.000 OA
ATOM     10  H   UNL     1       1.908   8.423  17.032  0.00  0.00    +0.000 HD
BRANCH   7  11
ATOM     11  C   UNL     1       1.308   9.882  18.485  0.00  0.00    +0.000 C 
BRANCH  11  19
ATOM     12  O   UNL     1      -0.558   8.654  21.810  0.00  0.00    +0.000 OA
ATOM     13  C   UNL     1      -0.346   9.849  21.693  0.00  0.00    +0.000 C 
ATOM     14  N   UNL     1      -0.013  10.501  20.523  0.00  0.00    +0.000 N 
ATOM     15  C   UNL     1       0.070  11.953  20.452  0.00  0.00    +0.000 C 
ATOM     16  C   UNL     1      -1.079  12.517  19.616  0.00  0.00    +0.000 C 
ATOM     17  C   UNL     1      -1.213  11.808  18.265  0.00  0.00    +0.000 C 
ATOM     18  C   UNL     1      -1.223  10.283  18.424  0.00  0.00    +0.000 C 
ATOM     19  C   UNL     1      -0.028   9.772  19.250  0.00  0.00    +0.000 C 
ENDBRANCH  11  19
ENDBRANCH   7  11
ENDBRANCH   1   8
BRANCH   3  20
ATOM     20  O   UNL     1       6.018   5.972  16.488  0.00  0.00    +0.000 OA
BRANCH  20  21
ATOM     21  C   UNL     1       6.934   6.809  17.207  0.00  0.00    +0.000 C 
BRANCH  21  22
ATOM     22  C   UNL     1       7.617   6.064  18.356  0.00  0.00    +0.000 C 
ATOM     23  F   UNL     1       8.126   4.869  17.990  0.00  0.00    +0.000 F 
ATOM     24  F   UNL     1       8.629   6.797  18.877  0.00  0.00    +0.000 F 
ATOM     25  F   UNL     1       6.736   5.834  19.362  0.00  0.00    +0.000 F 
ENDBRANCH  21  22
ENDBRANCH  20  21
ENDBRANCH   3  20
BRANCH   6  26
ATOM     26  O   UNL     1       1.259   4.736  19.083  0.00  0.00    +0.000 OA
BRANCH  26  27
ATOM     27  C   UNL     1       1.396   4.450  20.489  0.00  0.00    +0.000 C 
BRANCH  27  28
ATOM     28  C   UNL     1       1.552   2.959  20.778  0.00  0.00    +0.000 C 
ATOM     29  F   UNL     1       2.834   2.588  20.974  0.00  0.00    +0.000 F 
ATOM     30  F   UNL     1       0.851   2.609  21.886  0.00  0.00    +0.000 F 
ATOM     31  F   UNL     1       1.067   2.222  19.752  0.00  0.00    +0.000 F 
ENDBRANCH  27  28
ENDBRANCH  26  27
ENDBRANCH   6  26
TORSDOF 9
ENDMDL
MODEL 6
REMARK VINA RESULT:      -7.9      2.431      3.064
REMARK  Name = 
REMARK  9 active torsions:
REMARK  status: ('A' for Active; 'I' for Inactive)
REMARK    1  A    between atoms: C_8  and  C_9
REMARK    2  A    between atoms: C_9  and  N_10
REMARK    3  A    between atoms: C_11  and  C_13
REMARK    4  A    between atoms: C_15  and  O_16
REMARK    5  A    between atoms: O_16  and  C_17
REMARK    6  A    between atoms: C_17  and  C_18
REMARK    7  A    between atoms: C_24  and  O_25
REMARK    8  A    between atoms: O_25  and  C_26
REMARK    9  A    between atoms: C_26  and  C_27
REMARK                            x       y       z     vdW  Elec       q    Type
REMARK                         _______ _______ _______ _____ _____    ______ ____
ROOT
ATOM      1  C   UNL     1       3.331   6.713  18.539  0.00  0.00    +0.000 A 
ATOM      2  C   UNL     1       4.201   6.916  17.446  0.00  0.00    +0.000 A 
ATOM      3  C   UNL     1       5.193   5.988  17.116  0.00  0.00    +0.000 A 
ATOM      4  C   UNL     1       5.300   4.825  17.874  0.00  0.00    +0.000 A 
ATOM      5  C   UNL     1       4.434   4.608  18.957  0.00  0.00    +0.000 A 
ATOM      6  C   UNL     1       3.437   5.537  19.290  0.00  0.00    +0.000 A 
ENDROOT
BRANCH   1   8
ATOM      7  N   UNL     1       1.914   8.042  20.041  0.00  0.00    +0.000 N 
ATOM      8  C   UNL     1       2.307   7.771  18.752  0.00  0.00    +0.000 C 
ATOM      9  O   UNL     1       1.852   8.353  17.771  0.00  0.00    +0.000 OA
ATOM     10  H   UNL     1       2.372   7.575  20.815  0.00  0.00    +0.000 HD
BRANCH   7  11
ATOM     11  C   UNL     1       0.801   8.948  20.318  0.00  0.00    +0.000 C 
BRANCH  11  19
ATOM     12  O   UNL     1       2.067  12.737  20.611  0.00  0.00    +0.000 OA
ATOM     13  C   UNL     1       0.883  12.522  20.811  0.00  0.00    +0.000 C 
ATOM     14  N   UNL     1       0.316  11.290  21.066  0.00  0.00    +0.000 N 
ATOM     15  C   UNL     1      -1.083  11.154  21.446  0.00  0.00    +0.000 C 
ATOM     16  C   UNL     1      -1.205  10.731  22.910  0.00  0.00    +0.000 C 
ATOM     17  C   UNL     1      -0.324   9.522  23.238  0.00  0.00    +0.000 C 
ATOM     18  C   UNL     1       1.115   9.718  22.743  0.00  0.00    +0.000 C 
ATOM     19  C   UNL     1       1.174  10.115  21.256  0.00  0.00    +0.000 C 
ENDBRANCH  11  19
ENDBRANCH   7  11
ENDBRANCH   1   8
BRANCH   3  20
ATOM     20  O   UNL     1       5.947   6.305  16.021  0.00  0.00    +0.000 OA
BRANCH  20  21
ATOM     21  C   UNL     1       6.861   5.311  15.541  0.00  0.00    +0.000 C 
BRANCH  21  22
ATOM     22  C   UNL     1       6.191   4.326  14.581  0.00  0.00    +0.000 C 
ATOM     23  F   UNL     1       4.964   4.720  14.181  0.00  0.00    +0.000 F 
ATOM     24  F   UNL     1       6.943   4.141  13.470  0.00  0.00    +0.000 F 
ATOM     25  F   UNL     1       6.051   3.112  15.169  0.00  0.00    +0.000 F 
ENDBRANCH  21  22
ENDBRANCH  20  21
ENDBRANCH   3  20
BRANCH   6  26
ATOM     26  O   UNL     1       2.693   5.196  20.391  0.00  0.00    +0.000 OA
BRANCH  26  27
ATOM     27  C   UNL     1       2.678   3.792  20.716  0.00  0.00    +0.000 C 
BRANCH  27  28
ATOM     28  C   UNL     1       1.270   3.201  20.723  0.00  0.00    +0.000 C 
ATOM     29  F   UNL     1       0.916   2.692  21.921  0.00  0.00    +0.000 F 
ATOM     30  F   UNL     1       0.352   4.143  20.391  0.00  0.00    +0.000 F 
ATOM     31  F   UNL     1       1.166   2.207  19.811  0.00  0.00    +0.000 F 
ENDBRANCH  27  28
ENDBRANCH  26  27
ENDBRANCH   6  26
TORSDOF 9
ENDMDL
MODEL 7
REMARK VINA RESULT:      -7.9      1.965      2.194
REMARK  Name = 
REMARK  9 active torsions:
REMARK  status: ('A' for Active; 'I' for Inactive)
REMARK    1  A    between atoms: C_8  and  C_9
REMARK    2  A    between atoms: C_9  and  N_10
REMARK    3  A    between atoms: C_11  and  C_13
REMARK    4  A    between atoms: C_15  and  O_16
REMARK    5  A    between atoms: O_16  and  C_17
REMARK    6  A    between atoms: C_17  and  C_18
REMARK    7  A    between atoms: C_24  and  O_25
REMARK    8  A    between atoms: O_25  and  C_26
REMARK    9  A    between atoms: C_26  and  C_27
REMARK                            x       y       z     vdW  Elec       q    Type
REMARK                         _______ _______ _______ _____ _____    ______ ____
ROOT
ATOM      1  C   UNL     1       3.036   6.286  18.406  0.00  0.00    +0.000 A 
ATOM      2  C   UNL     1       4.215   6.484  17.656  0.00  0.00    +0.000 A 
ATOM      3  C   UNL     1       4.913   5.413  17.091  0.00  0.00    +0.000 A 
ATOM      4  C   UNL     1       4.410   4.125  17.255  0.00  0.00    +0.000 A 
ATOM      5  C   UNL     1       3.233   3.916  17.992  0.00  0.00    +0.000 A 
ATOM      6  C   UNL     1       2.531   4.990  18.559  0.00  0.00    +0.000 A 
ENDROOT
BRANCH   1   8
ATOM      7  N   UNL     1       1.937   8.446  18.010  0.00  0.00    +0.000 N 
ATOM      8  C   UNL     1       2.386   7.521  18.923  0.00  0.00    +0.000 C 
ATOM      9  O   UNL     1       2.285   7.666  20.137  0.00  0.00    +0.000 OA
ATOM     10  H   UNL     1       1.989   8.241  17.019  0.00  0.00    +0.000 HD
BRANCH   7  11
ATOM     11  C   UNL     1       1.438   9.751  18.440  0.00  0.00    +0.000 C 
BRANCH  11  19
ATOM     12  O   UNL     1      -0.567   8.409  21.638  0.00  0.00    +0.000 OA
ATOM     13  C   UNL     1      -0.266   9.591  21.617  0.00  0.00    +0.000 C 
ATOM     14  N   UNL     1       0.133  10.305  20.506  0.00  0.00    +0.000 N 
ATOM     15  C   UNL     1       0.322  11.749  20.550  0.00  0.00    +0.000 C 
ATOM     16  C   UNL     1      -0.769  12.460  19.749  0.00  0.00    +0.000 C 
ATOM     17  C   UNL     1      -0.932  11.870  18.345  0.00  0.00    +0.000 C 
ATOM     18  C   UNL     1      -1.056  10.342  18.383  0.00  0.00    +0.000 C 
ATOM     19  C   UNL     1       0.085   9.681  19.179  0.00  0.00    +0.000 C 
ENDBRANCH  11  19
ENDBRANCH   7  11
ENDBRANCH   1   8
BRANCH   3  20
ATOM     20  O   UNL     1       6.025   5.755  16.373  0.00  0.00    +0.000 OA
BRANCH  20  21
ATOM     21  C   UNL     1       6.772   4.690  15.768  0.00  0.00    +0.000 C 
BRANCH  21  22
ATOM     22  C   UNL     1       6.421   4.506  14.290  0.00  0.00    +0.000 C 
ATOM     23  F   UNL     1       5.175   4.921  13.981  0.00  0.00    +0.000 F 
ATOM     24  F   UNL     1       7.286   5.183  13.498  0.00  0.00    +0.000 F 
ATOM     25  F   UNL     1       6.507   3.198  13.942  0.00  0.00    +0.000 F 
ENDBRANCH  21  22
ENDBRANCH  20  21
ENDBRANCH   3  20
BRANCH   6  26
ATOM     26  O   UNL     1       1.418   4.622  19.273  0.00  0.00    +0.000 OA
BRANCH  26  27
ATOM     27  C   UNL     1       1.636   4.386  20.678  0.00  0.00    +0.000 C 
BRANCH  27  28
ATOM     28  C   UNL     1       1.733   2.902  21.021  0.00  0.00    +0.000 C 
ATOM     29  F   UNL     1       1.350   2.097  20.009  0.00  0.00    +0.000 F 
ATOM     30  F   UNL     1       3.007   2.567  21.350  0.00  0.00    +0.000 F 
ATOM     31  F   UNL     1       0.958   2.608  22.091  0.00  0.00    +0.000 F 
ENDBRANCH  27  28
ENDBRANCH  26  27
ENDBRANCH   6  26
TORSDOF 9
ENDMDL
MODEL 8
REMARK VINA RESULT:      -7.9      1.028      4.525
REMARK  Name = 
REMARK  9 active torsions:
REMARK  status: ('A' for Active; 'I' for Inactive)
REMARK    1  A    between atoms: C_8  and  C_9
REMARK    2  A    between atoms: C_9  and  N_10
REMARK    3  A    between atoms: C_11  and  C_13
REMARK    4  A    between atoms: C_15  and  O_16
REMARK    5  A    between atoms: O_16  and  C_17
REMARK    6  A    between atoms: C_17  and  C_18
REMARK    7  A    between atoms: C_24  and  O_25
REMARK    8  A    between atoms: O_25  and  C_26
REMARK    9  A    between atoms: C_26  and  C_27
REMARK                            x       y       z     vdW  Elec       q    Type
REMARK                         _______ _______ _______ _____ _____    ______ ____
ROOT
ATOM      1  C   UNL     1       3.007   6.479  17.810  0.00  0.00    +0.000 A 
ATOM      2  C   UNL     1       1.958   5.555  18.001  0.00  0.00    +0.000 A 
ATOM      3  C   UNL     1       2.168   4.176  17.902  0.00  0.00    +0.000 A 
ATOM      4  C   UNL     1       3.454   3.714  17.635  0.00  0.00    +0.000 A 
ATOM      5  C   UNL     1       4.507   4.623  17.452  0.00  0.00    +0.000 A 
ATOM      6  C   UNL     1       4.298   6.007  17.552  0.00  0.00    +0.000 A 
ENDROOT
BRANCH   1   8
ATOM      7  N   UNL     1       1.992   8.287  19.128  0.00  0.00    +0.000 N 
ATOM      8  C   UNL     1       2.640   7.912  17.975  0.00  0.00    +0.000 C 
ATOM      9  O   UNL     1       2.923   8.697  17.074  0.00  0.00    +0.000 OA
ATOM     10  H   UNL     1       1.843   7.607  19.865  0.00  0.00    +0.000 HD
BRANCH   7  11
ATOM     11  C   UNL     1       1.456   9.637  19.290  0.00  0.00    +0.000 C 
BRANCH  11  19
ATOM     12  O   UNL     1      -0.640   8.846  22.611  0.00  0.00    +0.000 OA
ATOM     13  C   UNL     1      -0.352  10.011  22.391  0.00  0.00    +0.000 C 
ATOM     14  N   UNL     1       0.076  10.525  21.184  0.00  0.00    +0.000 N 
ATOM     15  C   UNL     1       0.247  11.957  20.977  0.00  0.00    +0.000 C 
ATOM     16  C   UNL     1      -0.825  12.496  20.030  0.00  0.00    +0.000 C 
ATOM     17  C   UNL     1      -0.934  11.665  18.748  0.00  0.00    +0.000 C 
ATOM     18  C   UNL     1      -1.041  10.165  19.052  0.00  0.00    +0.000 C 
ATOM     19  C   UNL     1       0.080   9.676  19.988  0.00  0.00    +0.000 C 
ENDBRANCH  11  19
ENDBRANCH   7  11
ENDBRANCH   1   8
BRANCH   3  20
ATOM     20  O   UNL     1       1.067   3.400  18.133  0.00  0.00    +0.000 OA
BRANCH  20  21
ATOM     21  C   UNL     1       1.109   2.516  19.261  0.00  0.00    +0.000 C 
BRANCH  21  22
ATOM     22  C   UNL     1       1.229   3.274  20.584  0.00  0.00    +0.000 C 
ATOM     23  F   UNL     1       2.488   3.672  20.860  0.00  0.00    +0.000 F 
ATOM     24  F   UNL     1       0.442   4.377  20.585  0.00  0.00    +0.000 F 
ATOM     25  F   UNL     1       0.818   2.495  21.616  0.00  0.00    +0.000 F 
ENDBRANCH  21  22
ENDBRANCH  20  21
ENDBRANCH   3  20
BRANCH   6  26
ATOM     26  O   UNL     1       5.418   6.765  17.319  0.00  0.00    +0.000 OA
BRANCH  26  27
ATOM     27  C   UNL     1       6.641   6.022  17.141  0.00  0.00    +0.000 C 
BRANCH  27  28
ATOM     28  C   UNL     1       7.479   5.949  18.414  0.00  0.00    +0.000 C 
ATOM     29  F   UNL     1       8.311   4.887  18.441  0.00  0.00    +0.000 F 
ATOM     30  F   UNL     1       8.236   7.066  18.556  0.00  0.00    +0.000 F 
ATOM     31  F   UNL     1       6.682   5.869  19.506  0.00  0.00    +0.000 F 
ENDBRANCH  27  28
ENDBRANCH  26  27
ENDBRANCH   6  26
TORSDOF 9
ENDMDL
MODEL 9
REMARK VINA RESULT:      -7.9      1.715      2.120
REMARK  Name = 
REMARK  9 active torsions:
REMARK  status: ('A' for Active; 'I' for Inactive)
REMARK    1  A    between atoms: C_8  and  C_9
REMARK    2  A    between atoms: C_9  and  N_10
REMARK    3  A    between atoms: C_11  and  C_13
REMARK    4  A    between atoms: C_15  and  O_16
REMARK    5  A    between atoms: O_16  and  C_17
REMARK    6  A    between atoms: C_17  and  C_18
REMARK    7  A    between atoms: C_24  and  O_25
REMARK    8  A    between atoms: O_25  and  C_26
REMARK    9  A    between atoms: C_26  and  C_27
REMARK                            x       y       z     vdW  Elec       q    Type
REMARK                         _______ _______ _______ _____ _____    ______ ____
ROOT
ATOM      1  C   UNL     1       2.800   6.214  18.488  0.00  0.00    +0.000 A 
ATOM      2  C   UNL     1       3.914   6.456  17.656  0.00  0.00    +0.000 A 
ATOM      3  C   UNL     1       4.545   5.424  16.956  0.00  0.00    +0.000 A 
ATOM      4  C   UNL     1       4.038   4.132  17.068  0.00  0.00    +0.000 A 
ATOM      5  C   UNL     1       2.925   3.880  17.886  0.00  0.00    +0.000 A 
ATOM      6  C   UNL     1       2.289   4.915  18.589  0.00  0.00    +0.000 A 
ENDROOT
BRANCH   1   8
ATOM      7  N   UNL     1       1.808   8.456  18.350  0.00  0.00    +0.000 N 
ATOM      8  C   UNL     1       2.215   7.413  19.147  0.00  0.00    +0.000 C 
ATOM      9  O   UNL     1       2.127   7.425  20.372  0.00  0.00    +0.000 OA
ATOM     10  H   UNL     1       1.844   8.363  17.341  0.00  0.00    +0.000 HD
BRANCH   7  11
ATOM     11  C   UNL     1       1.377   9.727  18.929  0.00  0.00    +0.000 C 
BRANCH  11  19
ATOM     12  O   UNL     1      -0.758   8.208  21.959  0.00  0.00    +0.000 OA
ATOM     13  C   UNL     1      -0.411   9.375  22.044  0.00  0.00    +0.000 C 
ATOM     14  N   UNL     1       0.043  10.162  21.006  0.00  0.00    +0.000 N 
ATOM     15  C   UNL     1       0.287  11.588  21.174  0.00  0.00    +0.000 C 
ATOM     16  C   UNL     1      -0.755  12.406  20.412  0.00  0.00    +0.000 C 
ATOM     17  C   UNL     1      -0.906  11.942  18.961  0.00  0.00    +0.000 C 
ATOM     18  C   UNL     1      -1.090  10.422  18.868  0.00  0.00    +0.000 C 
ATOM     19  C   UNL     1       0.004   9.652  19.631  0.00  0.00    +0.000 C 
ENDBRANCH  11  19
ENDBRANCH   7  11
ENDBRANCH   1   8
BRANCH   3  20
ATOM     20  O   UNL     1       5.596   5.809  16.172  0.00  0.00    +0.000 OA
BRANCH  20  21
ATOM     21  C   UNL     1       5.526   5.494  14.774  0.00  0.00    +0.000 C 
BRANCH  21  22
ATOM     22  C   UNL     1       6.612   4.504  14.350  0.00  0.00    +0.000 C 
ATOM     23  F   UNL     1       7.105   3.779  15.376  0.00  0.00    +0.000 F 
ATOM     24  F   UNL     1       6.143   3.636  13.423  0.00  0.00    +0.000 F 
ATOM     25  F   UNL     1       7.656   5.160  13.784  0.00  0.00    +0.000 F 
ENDBRANCH  21  22
ENDBRANCH  20  21
ENDBRANCH   3  20
BRANCH   6  26
ATOM     26  O   UNL     1       1.237   4.505  19.367  0.00  0.00    +0.000 OA
BRANCH  26  27
ATOM     27  C   UNL     1       1.345   3.170  19.900  0.00  0.00    +0.000 C 
BRANCH  27  28
ATOM     28  C   UNL     1       2.007   3.133  21.274  0.00  0.00    +0.000 C 
ATOM     29  F   UNL     1       3.181   2.470  21.280  0.00  0.00    +0.000 F 
ATOM     30  F   UNL     1       2.245   4.390  21.726  0.00  0.00    +0.000 F 
ATOM     31  F   UNL     1       1.196   2.534  22.178  0.00  0.00    +0.000 F 
ENDBRANCH  27  28
ENDBRANCH  26  27
ENDBRANCH   6  26
TORSDOF 9
ENDMDL
