MODEL 1
REMARK VINA RESULT:      -8.1      0.000      0.000
REMARK  Name = 
REMARK  5 active torsions:
REMARK  status: ('A' for Active; 'I' for Inactive)
REMARK    1  A    between atoms: C_1  and  N_2
REMARK    2  A    between atoms: N_8  and  C_9
REMARK    3  A    between atoms: C_9  and  C_10
REMARK    4  A    between atoms: N_12  and  C_13
REMARK    5  A    between atoms: N_26  and  C_27
REMARK                            x       y       z     vdW  Elec       q    Type
REMARK                         _______ _______ _______ _____ _____    ______ ____
ROOT
ATOM      1  C   UNL     1       1.600   8.199  20.662  0.00  0.00    +0.000 C 
ATOM      2  O   UNL     1       1.108   8.515  19.578  0.00  0.00    +0.000 OA
ATOM      3  N   UNL     1       2.078   6.915  20.976  0.00  0.00    +0.000 N 
ATOM      4  H   UNL     1       2.168   6.663  21.954  0.00  0.00    +0.000 HD
ENDROOT
BRANCH   3   5
ATOM      5  C   UNL     1       1.848   5.827  20.071  0.00  0.00    +0.000 A 
ATOM      6  C   UNL     1       0.799   4.911  20.323  0.00  0.00    +0.000 A 
ATOM      7  C   UNL     1       0.875   3.562  19.946  0.00  0.00    +0.000 A 
ATOM      8  C   UNL     1       2.068   3.192  19.359  0.00  0.00    +0.000 A 
ATOM      9  C   UNL     1       2.945   4.155  18.901  0.00  0.00    +0.000 A 
ATOM     10  C   UNL     1       3.957   3.562  18.178  0.00  0.00    +0.000 A 
ATOM     11  C   UNL     1       4.486   4.233  17.093  0.00  0.00    +0.000 A 
ATOM     12  C   UNL     1       4.184   5.606  17.047  0.00  0.00    +0.000 A 
ATOM     13  C   UNL     1       3.556   6.267  18.136  0.00  0.00    +0.000 A 
ATOM     14  C   UNL     1       2.790   5.498  19.055  0.00  0.00    +0.000 A 
ATOM     15  C   UNL     1       4.055   2.146  18.607  0.00  0.00    +0.000 C 
ATOM     16  C   UNL     1       2.577   1.839  18.984  0.00  0.00    +0.000 C 
ENDBRANCH   3   5
BRANCH   1  17
ATOM     17  C   UNL     1       1.741   9.278  21.711  0.00  0.00    +0.000 C 
BRANCH  17  25
ATOM     18  C   UNL     1      -2.670  14.352  20.864  0.00  0.00    +0.000 C 
ATOM     19  N   UNL     1      -1.812  13.209  21.121  0.00  0.00    +0.000 N 
ATOM     20  C   UNL     1      -2.113  12.414  22.212  0.00  0.00    +0.000 A 
ATOM     21  O   UNL     1      -3.060  12.591  22.978  0.00  0.00    +0.000 OA
ATOM     22  C   UNL     1      -1.195  11.324  22.397  0.00  0.00    +0.000 A 
ATOM     23  N   UNL     1      -1.196  10.420  23.421  0.00  0.00    +0.000 NA
ATOM     24  C   UNL     1      -0.142   9.669  23.231  0.00  0.00    +0.000 A 
ATOM     25  N   UNL     1       0.524   9.994  22.065  0.00  0.00    +0.000 N 
ATOM     26  C   UNL     1      -0.100  11.131  21.560  0.00  0.00    +0.000 A 
ATOM     27  N   UNL     1       0.186  11.988  20.514  0.00  0.00    +0.000 N 
ATOM     28  C   UNL     1       1.340  11.950  19.644  0.00  0.00    +0.000 C 
ATOM     29  C   UNL     1      -0.732  13.032  20.245  0.00  0.00    +0.000 A 
ATOM     30  O   UNL     1      -0.586  13.786  19.276  0.00  0.00    +0.000 OA
ENDBRANCH  17  25
ENDBRANCH   1  17
TORSDOF 3
ENDMDL
MODEL 2
REMARK VINA RESULT:      -8.1      3.439      9.016
REMARK  Name = 
REMARK  5 active torsions:
REMARK  status: ('A' for Active; 'I' for Inactive)
REMARK    1  A    between atoms: C_1  and  N_2
REMARK    2  A    between atoms: N_8  and  C_9
REMARK    3  A    between atoms: C_9  and  C_10
REMARK    4  A    between atoms: N_12  and  C_13
REMARK    5  A    between atoms: N_26  and  C_27
REMARK                            x       y       z     vdW  Elec       q    Type
REMARK                         _______ _______ _______ _____ _____    ______ ____
ROOT
ATOM      1  C   UNL     1       1.046   9.310  19.193  0.00  0.00    +0.000 C 
ATOM      2  O   UNL     1       1.544   9.981  18.287  0.00  0.00    +0.000 OA
ATOM      3  N   UNL     1      -0.269   9.462  19.666  0.00  0.00    +0.000 N 
ATOM      4  H   UNL     1      -0.489   9.108  20.590  0.00  0.00    +0.000 HD
ENDROOT
BRANCH   3   5
ATOM      5  C   UNL     1      -1.068  10.562  19.213  0.00  0.00    +0.000 A 
ATOM      6  C   UNL     1      -1.211  11.711  20.028  0.00  0.00    +0.000 A 
ATOM      7  C   UNL     1      -2.377  12.490  20.026  0.00  0.00    +0.000 A 
ATOM      8  C   UNL     1      -3.386  12.021  19.208  0.00  0.00    +0.000 A 
ATOM      9  C   UNL     1      -3.113  11.066  18.249  0.00  0.00    +0.000 A 
ATOM     10  C   UNL     1      -4.207  10.903  17.427  0.00  0.00    +0.000 A 
ATOM     11  C   UNL     1      -4.002  10.619  16.090  0.00  0.00    +0.000 A 
ATOM     12  C   UNL     1      -2.705  10.176  15.775  0.00  0.00    +0.000 A 
ATOM     13  C   UNL     1      -1.759   9.861  16.787  0.00  0.00    +0.000 A 
ATOM     14  C   UNL     1      -1.916  10.442  18.076  0.00  0.00    +0.000 A 
ATOM     15  C   UNL     1      -5.407  11.362  18.166  0.00  0.00    +0.000 C 
ATOM     16  C   UNL     1      -4.801  12.475  19.069  0.00  0.00    +0.000 C 
ENDBRANCH   3   5
BRANCH   1  17
ATOM     17  C   UNL     1       1.894   8.222  19.808  0.00  0.00    +0.000 C 
BRANCH  17  25
ATOM     18  C   UNL     1       3.547   1.962  17.808  0.00  0.00    +0.000 C 
ATOM     19  N   UNL     1       3.230   3.343  18.121  0.00  0.00    +0.000 N 
ATOM     20  C   UNL     1       3.778   4.325  17.317  0.00  0.00    +0.000 A 
ATOM     21  O   UNL     1       4.508   4.120  16.347  0.00  0.00    +0.000 OA
ATOM     22  C   UNL     1       3.426   5.659  17.718  0.00  0.00    +0.000 A 
ATOM     23  N   UNL     1       3.872   6.824  17.163  0.00  0.00    +0.000 NA
ATOM     24  C   UNL     1       3.362   7.782  17.895  0.00  0.00    +0.000 A 
ATOM     25  N   UNL     1       2.525   7.295  18.879  0.00  0.00    +0.000 N 
ATOM     26  C   UNL     1       2.630   5.907  18.833  0.00  0.00    +0.000 A 
ATOM     27  N   UNL     1       2.149   4.890  19.636  0.00  0.00    +0.000 N 
ATOM     28  C   UNL     1       1.403   5.026  20.867  0.00  0.00    +0.000 C 
ATOM     29  C   UNL     1       2.407   3.556  19.237  0.00  0.00    +0.000 A 
ATOM     30  O   UNL     1       1.939   2.595  19.858  0.00  0.00    +0.000 OA
ENDBRANCH  17  25
ENDBRANCH   1  17
TORSDOF 3
ENDMDL
MODEL 3
REMARK VINA RESULT:      -8.0      2.074      3.096
REMARK  Name = 
REMARK  5 active torsions:
REMARK  status: ('A' for Active; 'I' for Inactive)
REMARK    1  A    between atoms: C_1  and  N_2
REMARK    2  A    between atoms: N_8  and  C_9
REMARK    3  A    between atoms: C_9  and  C_10
REMARK    4  A    between atoms: N_12  and  C_13
REMARK    5  A    between atoms: N_26  and  C_27
REMARK                            x       y       z     vdW  Elec       q    Type
REMARK                         _______ _______ _______ _____ _____    ______ ____
ROOT
ATOM      1  C   UNL     1       1.828   8.534  18.683  0.00  0.00    +0.000 C 
ATOM      2  O   UNL     1       2.022   8.490  19.899  0.00  0.00    +0.000 OA
ATOM      3  N   UNL     1       2.133   7.492  17.791  0.00  0.00    +0.000 N 
ATOM      4  H   UNL     1       2.239   7.719  16.808  0.00  0.00    +0.000 HD
ENDROOT
BRANCH   3   5
ATOM      5  C   UNL     1       2.871   6.352  18.249  0.00  0.00    +0.000 A 
ATOM      6  C   UNL     1       4.205   6.156  17.816  0.00  0.00    +0.000 A 
ATOM      7  C   UNL     1       4.759   4.878  17.652  0.00  0.00    +0.000 A 
ATOM      8  C   UNL     1       3.889   3.834  17.897  0.00  0.00    +0.000 A 
ATOM      9  C   UNL     1       2.700   4.063  18.559  0.00  0.00    +0.000 A 
ATOM     10  C   UNL     1       2.098   2.863  18.869  0.00  0.00    +0.000 A 
ATOM     11  C   UNL     1       1.381   2.758  20.046  0.00  0.00    +0.000 A 
ATOM     12  C   UNL     1       1.041   3.987  20.638  0.00  0.00    +0.000 A 
ATOM     13  C   UNL     1       1.250   5.221  19.965  0.00  0.00    +0.000 A 
ATOM     14  C   UNL     1       2.230   5.283  18.936  0.00  0.00    +0.000 A 
ATOM     15  C   UNL     1       2.621   1.835  17.937  0.00  0.00    +0.000 C 
ATOM     16  C   UNL     1       4.059   2.368  17.672  0.00  0.00    +0.000 C 
ENDBRANCH   3   5
BRANCH   1  17
ATOM     17  C   UNL     1       1.177   9.776  18.120  0.00  0.00    +0.000 C 
BRANCH  17  25
ATOM     18  C   UNL     1      -4.561  12.847  20.006  0.00  0.00    +0.000 C 
ATOM     19  N   UNL     1      -3.289  12.208  19.721  0.00  0.00    +0.000 N 
ATOM     20  C   UNL     1      -2.241  12.452  20.589  0.00  0.00    +0.000 A 
ATOM     21  O   UNL     1      -2.303  13.160  21.593  0.00  0.00    +0.000 OA
ATOM     22  C   UNL     1      -1.019  11.795  20.212  0.00  0.00    +0.000 A 
ATOM     23  N   UNL     1       0.193  11.906  20.831  0.00  0.00    +0.000 NA
ATOM     24  C   UNL     1       1.027  11.209  20.103  0.00  0.00    +0.000 A 
ATOM     25  N   UNL     1       0.394  10.572  19.054  0.00  0.00    +0.000 N 
ATOM     26  C   UNL     1      -0.925  11.020  19.060  0.00  0.00    +0.000 A 
ATOM     27  N   UNL     1      -1.990  10.851  18.196  0.00  0.00    +0.000 N 
ATOM     28  C   UNL     1      -1.987  10.157  16.928  0.00  0.00    +0.000 C 
ATOM     29  C   UNL     1      -3.235  11.416  18.566  0.00  0.00    +0.000 A 
ATOM     30  O   UNL     1      -4.252  11.236  17.886  0.00  0.00    +0.000 OA
ENDBRANCH  17  25
ENDBRANCH   1  17
TORSDOF 3
ENDMDL
MODEL 4
REMARK VINA RESULT:      -8.0      2.147      3.401
REMARK  Name = 
REMARK  5 active torsions:
REMARK  status: ('A' for Active; 'I' for Inactive)
REMARK    1  A    between atoms: C_1  and  N_2
REMARK    2  A    between atoms: N_8  and  C_9
REMARK    3  A    between atoms: C_9  and  C_10
REMARK    4  A    between atoms: N_12  and  C_13
REMARK    5  A    between atoms: N_26  and  C_27
REMARK                            x       y       z     vdW  Elec       q    Type
REMARK                         _______ _______ _______ _____ _____    ______ ____
ROOT
ATOM      1  C   UNL     1       1.175   9.113  19.540  0.00  0.00    +0.000 C 
ATOM      2  O   UNL     1       1.690   8.964  20.650  0.00  0.00    +0.000 OA
ATOM      3  N   UNL     1       1.453   8.311  18.420  0.00  0.00    +0.000 N 
ATOM      4  H   UNL     1       1.241   8.683  17.501  0.00  0.00    +0.000 HD
ENDROOT
BRANCH   3   5
ATOM      5  C   UNL     1       2.518   7.354  18.473  0.00  0.00    +0.000 A 
ATOM      6  C   UNL     1       3.670   7.535  17.671  0.00  0.00    +0.000 A 
ATOM      7  C   UNL     1       4.407   6.456  17.162  0.00  0.00    +0.000 A 
ATOM      8  C   UNL     1       3.891   5.211  17.461  0.00  0.00    +0.000 A 
ATOM      9  C   UNL     1       2.935   5.075  18.448  0.00  0.00    +0.000 A 
ATOM     10  C   UNL     1       2.722   3.739  18.712  0.00  0.00    +0.000 A 
ATOM     11  C   UNL     1       2.430   3.352  20.006  0.00  0.00    +0.000 A 
ATOM     12  C   UNL     1       2.031   4.398  20.857  0.00  0.00    +0.000 A 
ATOM     13  C   UNL     1       1.763   5.702  20.359  0.00  0.00    +0.000 A 
ATOM     14  C   UNL     1       2.353   6.100  19.128  0.00  0.00    +0.000 A 
ATOM     15  C   UNL     1       3.146   2.964  17.522  0.00  0.00    +0.000 C 
ATOM     16  C   UNL     1       4.292   3.860  16.968  0.00  0.00    +0.000 C 
ENDBRANCH   3   5
BRANCH   1  17
ATOM     17  C   UNL     1       0.142  10.204  19.386  0.00  0.00    +0.000 C 
BRANCH  17  25
ATOM     18  C   UNL     1       3.305  16.058  20.668  0.00  0.00    +0.000 C 
ATOM     19  N   UNL     1       2.540  14.838  20.481  0.00  0.00    +0.000 N 
ATOM     20  C   UNL     1       1.635  14.491  21.467  0.00  0.00    +0.000 A 
ATOM     21  O   UNL     1       1.418  15.141  22.488  0.00  0.00    +0.000 OA
ATOM     22  C   UNL     1       0.945  13.259  21.203  0.00  0.00    +0.000 A 
ATOM     23  N   UNL     1       0.052  12.631  22.024  0.00  0.00    +0.000 NA
ATOM     24  C   UNL     1      -0.256  11.511  21.421  0.00  0.00    +0.000 A 
ATOM     25  N   UNL     1       0.348  11.404  20.184  0.00  0.00    +0.000 N 
ATOM     26  C   UNL     1       1.206  12.495  20.069  0.00  0.00    +0.000 A 
ATOM     27  N   UNL     1       2.160  12.861  19.139  0.00  0.00    +0.000 N 
ATOM     28  C   UNL     1       2.589  12.106  17.983  0.00  0.00    +0.000 C 
ATOM     29  C   UNL     1       2.812  14.105  19.317  0.00  0.00    +0.000 A 
ATOM     30  O   UNL     1       3.616  14.537  18.482  0.00  0.00    +0.000 OA
ENDBRANCH  17  25
ENDBRANCH   1  17
TORSDOF 3
ENDMDL
MODEL 5
REMARK VINA RESULT:      -7.9      1.549      2.721
REMARK  Name = 
REMARK  5 active torsions:
REMARK  status: ('A' for Active; 'I' for Inactive)
REMARK    1  A    between atoms: C_1  and  N_2
REMARK    2  A    between atoms: N_8  and  C_9
REMARK    3  A    between atoms: C_9  and  C_10
REMARK    4  A    between atoms: N_12  and  C_13
REMARK    5  A    between atoms: N_26  and  C_27
REMARK                            x       y       z     vdW  Elec       q    Type
REMARK                         _______ _______ _______ _____ _____    ______ ____
ROOT
ATOM      1  C   UNL     1       2.229   7.763  18.302  0.00  0.00    +0.000 C 
ATOM      2  O   UNL     1       1.555   7.137  17.484  0.00  0.00    +0.000 OA
ATOM      3  N   UNL     1       3.305   7.223  19.027  0.00  0.00    +0.000 N 
ATOM      4  H   UNL     1       3.591   7.691  19.880  0.00  0.00    +0.000 HD
ENDROOT
BRANCH   3   5
ATOM      5  C   UNL     1       3.568   5.815  18.972  0.00  0.00    +0.000 A 
ATOM      6  C   UNL     1       4.370   5.288  17.931  0.00  0.00    +0.000 A 
ATOM      7  C   UNL     1       4.173   4.000  17.413  0.00  0.00    +0.000 A 
ATOM      8  C   UNL     1       3.110   3.311  17.961  0.00  0.00    +0.000 A 
ATOM      9  C   UNL     1       2.530   3.750  19.135  0.00  0.00    +0.000 A 
ATOM     10  C   UNL     1       1.637   2.808  19.597  0.00  0.00    +0.000 A 
ATOM     11  C   UNL     1       1.493   2.636  20.960  0.00  0.00    +0.000 A 
ATOM     12  C   UNL     1       2.010   3.683  21.743  0.00  0.00    +0.000 A 
ATOM     13  C   UNL     1       2.459   4.898  21.159  0.00  0.00    +0.000 A 
ATOM     14  C   UNL     1       2.855   4.897  19.793  0.00  0.00    +0.000 A 
ATOM     15  C   UNL     1       1.218   1.972  18.447  0.00  0.00    +0.000 C 
ATOM     16  C   UNL     1       2.497   2.010  17.562  0.00  0.00    +0.000 C 
ENDBRANCH   3   5
BRANCH   1  17
ATOM     17  C   UNL     1       1.906   9.225  18.507  0.00  0.00    +0.000 C 
BRANCH  17  25
ATOM     18  C   UNL     1      -0.914  13.690  22.753  0.00  0.00    +0.000 C 
ATOM     19  N   UNL     1      -0.376  12.642  21.904  0.00  0.00    +0.000 N 
ATOM     20  C   UNL     1      -0.477  11.338  22.353  0.00  0.00    +0.000 A 
ATOM     21  O   UNL     1      -0.999  10.993  23.413  0.00  0.00    +0.000 OA
ATOM     22  C   UNL     1       0.103  10.376  21.457  0.00  0.00    +0.000 A 
ATOM     23  N   UNL     1       0.216   9.031  21.663  0.00  0.00    +0.000 NA
ATOM     24  C   UNL     1       0.878   8.570  20.633  0.00  0.00    +0.000 A 
ATOM     25  N   UNL     1       1.147   9.555  19.705  0.00  0.00    +0.000 N 
ATOM     26  C   UNL     1       0.727  10.756  20.272  0.00  0.00    +0.000 A 
ATOM     27  N   UNL     1       0.849  12.080  19.894  0.00  0.00    +0.000 N 
ATOM     28  C   UNL     1       1.557  12.601  18.747  0.00  0.00    +0.000 C 
ATOM     29  C   UNL     1       0.226  13.057  20.708  0.00  0.00    +0.000 A 
ATOM     30  O   UNL     1       0.221  14.252  20.390  0.00  0.00    +0.000 OA
ENDBRANCH  17  25
ENDBRANCH   1  17
TORSDOF 3
ENDMDL
MODEL 6
REMARK VINA RESULT:      -7.9      2.059      3.810
REMARK  Name = 
REMARK  5 active torsions:
REMARK  status: ('A' for Active; 'I' for Inactive)
REMARK    1  A    between atoms: C_1  and  N_2
REMARK    2  A    between atoms: N_8  and  C_9
REMARK    3  A    between atoms: C_9  and  C_10
REMARK    4  A    between atoms: N_12  and  C_13
REMARK    5  A    between atoms: N_26  and  C_27
REMARK                            x       y       z     vdW  Elec       q    Type
REMARK                         _______ _______ _______ _____ _____    ______ ____
ROOT
ATOM      1  C   UNL     1       1.429   8.726  19.683  0.00  0.00    +0.000 C 
ATOM      2  O   UNL     1       1.829   8.493  20.825  0.00  0.00    +0.000 OA
ATOM      3  N   UNL     1       1.666   7.898  18.572  0.00  0.00    +0.000 N 
ATOM      4  H   UNL     1       1.584   8.304  17.647  0.00  0.00    +0.000 HD
ENDROOT
BRANCH   3   5
ATOM      5  C   UNL     1       2.566   6.789  18.687  0.00  0.00    +0.000 A 
ATOM      6  C   UNL     1       3.810   6.817  18.012  0.00  0.00    +0.000 A 
ATOM      7  C   UNL     1       4.427   5.654  17.530  0.00  0.00    +0.000 A 
ATOM      8  C   UNL     1       3.704   4.493  17.721  0.00  0.00    +0.000 A 
ATOM      9  C   UNL     1       2.641   4.475  18.601  0.00  0.00    +0.000 A 
ATOM     10  C   UNL     1       2.206   3.180  18.784  0.00  0.00    +0.000 A 
ATOM     11  C   UNL     1       1.726   2.804  20.023  0.00  0.00    +0.000 A 
ATOM     12  C   UNL     1       1.400   3.873  20.877  0.00  0.00    +0.000 A 
ATOM     13  C   UNL     1       1.382   5.216  20.414  0.00  0.00    +0.000 A 
ATOM     14  C   UNL     1       2.150   5.557  19.266  0.00  0.00    +0.000 A 
ATOM     15  C   UNL     1       2.632   2.385  17.607  0.00  0.00    +0.000 C 
ATOM     16  C   UNL     1       3.949   3.112  17.209  0.00  0.00    +0.000 C 
ENDBRANCH   3   5
BRANCH   1  17
ATOM     17  C   UNL     1       0.588   9.964  19.472  0.00  0.00    +0.000 C 
BRANCH  17  25
ATOM     18  C   UNL     1       1.966  16.329  21.342  0.00  0.00    +0.000 C 
ATOM     19  N   UNL     1       1.775  14.971  20.868  0.00  0.00    +0.000 N 
ATOM     20  C   UNL     1       2.448  14.591  19.721  0.00  0.00    +0.000 A 
ATOM     21  O   UNL     1       3.206  15.312  19.074  0.00  0.00    +0.000 OA
ATOM     22  C   UNL     1       2.178  13.238  19.318  0.00  0.00    +0.000 A 
ATOM     23  N   UNL     1       2.639  12.613  18.195  0.00  0.00    +0.000 NA
ATOM     24  C   UNL     1       2.078  11.430  18.194  0.00  0.00    +0.000 A 
ATOM     25  N   UNL     1       1.312  11.217  19.323  0.00  0.00    +0.000 N 
ATOM     26  C   UNL     1       1.296  12.422  20.020  0.00  0.00    +0.000 A 
ATOM     27  N   UNL     1       0.606  12.868  21.132  0.00  0.00    +0.000 N 
ATOM     28  C   UNL     1      -0.403  12.153  21.880  0.00  0.00    +0.000 C 
ATOM     29  C   UNL     1       0.897  14.169  21.611  0.00  0.00    +0.000 A 
ATOM     30  O   UNL     1       0.383  14.604  22.648  0.00  0.00    +0.000 OA
ENDBRANCH  17  25
ENDBRANCH   1  17
TORSDOF 3
ENDMDL
MODEL 7
REMARK VINA RESULT:      -7.9      1.718      2.811
REMARK  Name = 
REMARK  5 active torsions:
REMARK  status: ('A' for Active; 'I' for Inactive)
REMARK    1  A    between atoms: C_1  and  N_2
REMARK    2  A    between atoms: N_8  and  C_9
REMARK    3  A    between atoms: C_9  and  C_10
REMARK    4  A    between atoms: N_12  and  C_13
REMARK    5  A    between atoms: N_26  and  C_27
REMARK                            x       y       z     vdW  Elec       q    Type
REMARK                         _______ _______ _______ _____ _____    ______ ____
ROOT
ATOM      1  C   UNL     1       1.781   8.707  18.168  0.00  0.00    +0.000 C 
ATOM      2  O   UNL     1       2.578   8.671  17.229  0.00  0.00    +0.000 OA
ATOM      3  N   UNL     1       1.774   7.799  19.241  0.00  0.00    +0.000 N 
ATOM      4  H   UNL     1       0.922   7.705  19.783  0.00  0.00    +0.000 HD
ENDROOT
BRANCH   3   5
ATOM      5  C   UNL     1       2.618   6.641  19.203  0.00  0.00    +0.000 A 
ATOM      6  C   UNL     1       3.872   6.705  18.549  0.00  0.00    +0.000 A 
ATOM      7  C   UNL     1       4.441   5.594  17.909  0.00  0.00    +0.000 A 
ATOM      8  C   UNL     1       3.661   4.455  17.924  0.00  0.00    +0.000 A 
ATOM      9  C   UNL     1       2.584   4.363  18.783  0.00  0.00    +0.000 A 
ATOM     10  C   UNL     1       2.086   3.079  18.773  0.00  0.00    +0.000 A 
ATOM     11  C   UNL     1       1.570   2.552  19.941  0.00  0.00    +0.000 A 
ATOM     12  C   UNL     1       1.281   3.502  20.937  0.00  0.00    +0.000 A 
ATOM     13  C   UNL     1       1.334   4.897  20.673  0.00  0.00    +0.000 A 
ATOM     14  C   UNL     1       2.135   5.360  19.593  0.00  0.00    +0.000 A 
ATOM     15  C   UNL     1       2.492   2.441  17.497  0.00  0.00    +0.000 C 
ATOM     16  C   UNL     1       3.848   3.152  17.220  0.00  0.00    +0.000 C 
ENDBRANCH   3   5
BRANCH   1  17
ATOM     17  C   UNL     1       0.771   9.830  18.190  0.00  0.00    +0.000 C 
BRANCH  17  25
ATOM     18  C   UNL     1      -3.432  13.185  22.313  0.00  0.00    +0.000 C 
ATOM     19  N   UNL     1      -2.475  12.420  21.535  0.00  0.00    +0.000 N 
ATOM     20  C   UNL     1      -1.334  11.977  22.177  0.00  0.00    +0.000 A 
ATOM     21  O   UNL     1      -1.069  12.170  23.364  0.00  0.00    +0.000 OA
ATOM     22  C   UNL     1      -0.438  11.250  21.321  0.00  0.00    +0.000 A 
ATOM     23  N   UNL     1       0.791  10.756  21.654  0.00  0.00    +0.000 NA
ATOM     24  C   UNL     1       1.279  10.249  20.551  0.00  0.00    +0.000 A 
ATOM     25  N   UNL     1       0.381  10.321  19.504  0.00  0.00    +0.000 N 
ATOM     26  C   UNL     1      -0.707  11.054  19.969  0.00  0.00    +0.000 A 
ATOM     27  N   UNL     1      -1.839  11.564  19.362  0.00  0.00    +0.000 N 
ATOM     28  C   UNL     1      -2.177  11.513  17.957  0.00  0.00    +0.000 C 
ATOM     29  C   UNL     1      -2.788  12.222  20.182  0.00  0.00    +0.000 A 
ATOM     30  O   UNL     1      -3.862  12.630  19.726  0.00  0.00    +0.000 OA
ENDBRANCH  17  25
ENDBRANCH   1  17
TORSDOF 3
ENDMDL
MODEL 8
REMARK VINA RESULT:      -7.7      2.556      3.663
REMARK  Name = 
REMARK  5 active torsions:
REMARK  status: ('A' for Active; 'I' for Inactive)
REMARK    1  A    between atoms: C_1  and  N_2
REMARK    2  A    between atoms: N_8  and  C_9
REMARK    3  A    between atoms: C_9  and  C_10
REMARK    4  A    between atoms: N_12  and  C_13
REMARK    5  A    between atoms: N_26  and  C_27
REMARK                            x       y       z     vdW  Elec       q    Type
REMARK                         _______ _______ _______ _____ _____    ______ ____
ROOT
ATOM      1  C   UNL     1       1.691   9.179  18.683  0.00  0.00    +0.000 C 
ATOM      2  O   UNL     1       2.145   9.166  17.537  0.00  0.00    +0.000 OA
ATOM      3  N   UNL     1       1.931   8.184  19.645  0.00  0.00    +0.000 N 
ATOM      4  H   UNL     1       1.287   8.107  20.425  0.00  0.00    +0.000 HD
ENDROOT
BRANCH   3   5
ATOM      5  C   UNL     1       2.601   6.974  19.269  0.00  0.00    +0.000 A 
ATOM      6  C   UNL     1       3.424   6.952  18.117  0.00  0.00    +0.000 A 
ATOM      7  C   UNL     1       3.578   5.803  17.328  0.00  0.00    +0.000 A 
ATOM      8  C   UNL     1       2.829   4.716  17.735  0.00  0.00    +0.000 A 
ATOM      9  C   UNL     1       2.256   4.699  18.990  0.00  0.00    +0.000 A 
ATOM     10  C   UNL     1       1.737   3.450  19.252  0.00  0.00    +0.000 A 
ATOM     11  C   UNL     1       1.779   2.965  20.544  0.00  0.00    +0.000 A 
ATOM     12  C   UNL     1       2.026   3.938  21.529  0.00  0.00    +0.000 A 
ATOM     13  C   UNL     1       2.030   5.325  21.222  0.00  0.00    +0.000 A 
ATOM     14  C   UNL     1       2.278   5.729  19.880  0.00  0.00    +0.000 A 
ATOM     15  C   UNL     1       1.485   2.780  17.953  0.00  0.00    +0.000 C 
ATOM     16  C   UNL     1       2.605   3.400  17.068  0.00  0.00    +0.000 C 
ENDBRANCH   3   5
BRANCH   1  17
ATOM     17  C   UNL     1       0.856  10.369  19.094  0.00  0.00    +0.000 C 
BRANCH  17  25
ATOM     18  C   UNL     1      -5.547  12.587  19.129  0.00  0.00    +0.000 C 
ATOM     19  N   UNL     1      -4.195  12.074  19.001  0.00  0.00    +0.000 N 
ATOM     20  C   UNL     1      -3.941  11.185  17.972  0.00  0.00    +0.000 A 
ATOM     21  O   UNL     1      -4.770  10.802  17.147  0.00  0.00    +0.000 OA
ATOM     22  C   UNL     1      -2.583  10.716  17.941  0.00  0.00    +0.000 A 
ATOM     23  N   UNL     1      -2.060   9.785  17.090  0.00  0.00    +0.000 NA
ATOM     24  C   UNL     1      -0.822   9.609  17.477  0.00  0.00    +0.000 A 
ATOM     25  N   UNL     1      -0.478  10.451  18.516  0.00  0.00    +0.000 N 
ATOM     26  C   UNL     1      -1.644  11.113  18.889  0.00  0.00    +0.000 A 
ATOM     27  N   UNL     1      -1.963  11.964  19.930  0.00  0.00    +0.000 N 
ATOM     28  C   UNL     1      -1.108  12.367  21.024  0.00  0.00    +0.000 C 
ATOM     29  C   UNL     1      -3.269  12.512  19.958  0.00  0.00    +0.000 A 
ATOM     30  O   UNL     1      -3.601  13.344  20.811  0.00  0.00    +0.000 OA
ENDBRANCH  17  25
ENDBRANCH   1  17
TORSDOF 3
ENDMDL
MODEL 9
REMARK VINA RESULT:      -7.7      0.975      1.017
REMARK  Name = 
REMARK  5 active torsions:
REMARK  status: ('A' for Active; 'I' for Inactive)
REMARK    1  A    between atoms: C_1  and  N_2
REMARK    2  A    between atoms: N_8  and  C_9
REMARK    3  A    between atoms: C_9  and  C_10
REMARK    4  A    between atoms: N_12  and  C_13
REMARK    5  A    between atoms: N_26  and  C_27
REMARK                            x       y       z     vdW  Elec       q    Type
REMARK                         _______ _______ _______ _____ _____    ______ ____
ROOT
ATOM      1  C   UNL     1       1.437   8.891  20.204  0.00  0.00    +0.000 C 
ATOM      2  O   UNL     1       0.878   8.912  19.106  0.00  0.00    +0.000 OA
ATOM      3  N   UNL     1       2.084   7.767  20.746  0.00  0.00    +0.000 N 
ATOM      4  H   UNL     1       2.232   7.737  21.748  0.00  0.00    +0.000 HD
ENDROOT
BRANCH   3   5
ATOM      5  C   UNL     1       1.971   6.495  20.096  0.00  0.00    +0.000 A 
ATOM      6  C   UNL     1       1.035   5.543  20.567  0.00  0.00    +0.000 A 
ATOM      7  C   UNL     1       1.261   4.162  20.476  0.00  0.00    +0.000 A 
ATOM      8  C   UNL     1       2.483   3.809  19.939  0.00  0.00    +0.000 A 
ATOM      9  C   UNL     1       3.239   4.744  19.262  0.00  0.00    +0.000 A 
ATOM     10  C   UNL     1       4.305   4.127  18.645  0.00  0.00    +0.000 A 
ATOM     11  C   UNL     1       4.744   4.609  17.427  0.00  0.00    +0.000 A 
ATOM     12  C   UNL     1       4.287   5.900  17.107  0.00  0.00    +0.000 A 
ATOM     13  C   UNL     1       3.598   6.703  18.055  0.00  0.00    +0.000 A 
ATOM     14  C   UNL     1       2.933   6.065  19.139  0.00  0.00    +0.000 A 
ATOM     15  C   UNL     1       4.568   2.852  19.355  0.00  0.00    +0.000 C 
ATOM     16  C   UNL     1       3.138   2.472  19.837  0.00  0.00    +0.000 C 
ENDBRANCH   3   5
BRANCH   1  17
ATOM     17  C   UNL     1       1.466  10.173  21.002  0.00  0.00    +0.000 C 
BRANCH  17  25
ATOM     18  C   UNL     1      -3.751  14.277  22.366  0.00  0.00    +0.000 C 
ATOM     19  N   UNL     1      -2.693  13.308  22.142  0.00  0.00    +0.000 N 
ATOM     20  C   UNL     1      -2.641  12.210  22.981  0.00  0.00    +0.000 A 
ATOM     21  O   UNL     1      -3.428  11.983  23.899  0.00  0.00    +0.000 OA
ATOM     22  C   UNL     1      -1.548  11.321  22.696  0.00  0.00    +0.000 A 
ATOM     23  N   UNL     1      -1.202  10.201  23.396  0.00  0.00    +0.000 NA
ATOM     24  C   UNL     1      -0.106   9.758  22.835  0.00  0.00    +0.000 A 
ATOM     25  N   UNL     1       0.251  10.506  21.732  0.00  0.00    +0.000 N 
ATOM     26  C   UNL     1      -0.630  11.584  21.684  0.00  0.00    +0.000 A 
ATOM     27  N   UNL     1      -0.696  12.724  20.907  0.00  0.00    +0.000 N 
ATOM     28  C   UNL     1       0.249  13.154  19.901  0.00  0.00    +0.000 C 
ATOM     29  C   UNL     1      -1.799  13.591  21.100  0.00  0.00    +0.000 A 
ATOM     30  O   UNL     1      -1.970  14.586  20.386  0.00  0.00    +0.000 OA
ENDBRANCH  17  25
ENDBRANCH   1  17
TORSDOF 3
ENDMDL
