MODEL 1
REMARK VINA RESULT:      -7.1      0.000      0.000
REMARK  Name = 
REMARK  7 active torsions:
REMARK  status: ('A' for Active; 'I' for Inactive)
REMARK    1  A    between atoms: C_1  and  C_2
REMARK    2  A    between atoms: C_5  and  C_6
REMARK    3  A    between atoms: C_7  and  C_8
REMARK    4  A    between atoms: C_8  and  N_9
REMARK    5  A    between atoms: N_9  and  C_10
REMARK    6  A    between atoms: N_9  and  C_11
REMARK    7  A    between atoms: C_11  and  C_12
REMARK                            x       y       z     vdW  Elec       q    Type
REMARK                         _______ _______ _______ _____ _____    ______ ____
ROOT
ATOM      1  C   UNL     1       3.594   5.013  19.218  0.00  0.00    +0.000 C 
ENDROOT
BRANCH   1   2
ATOM      2  C   UNL     1       2.922   6.351  19.130  0.00  0.00    +0.000 A 
ATOM      3  C   UNL     1       2.925   7.267  18.048  0.00  0.00    +0.000 A 
ATOM      4  C   UNL     1       2.166   8.335  18.472  0.00  0.00    +0.000 A 
ATOM      5  N   UNL     1       1.761   8.013  19.732  0.00  0.00    +0.000 N 
ATOM      6  N   UNL     1       2.210   6.818  20.167  0.00  0.00    +0.000 NA
ATOM      7  C   UNL     1       1.008   8.876  20.611  0.00  0.00    +0.000 C 
ATOM      8  C   UNL     1       0.531  10.146  19.903  0.00  0.00    +0.000 C 
ATOM      9  N   UNL     1       1.355  10.638  18.790  0.00  0.00    +0.000 NA
ATOM     10  C   UNL     1       1.749   9.602  17.831  0.00  0.00    +0.000 C 
ATOM     11  H   UNL     1       2.189  11.103  19.143  0.00  0.00    +0.000 HD
ENDBRANCH   1   2
BRANCH   1  12
ATOM     12  N   UNL     1       4.018   4.507  17.887  0.00  0.00    +0.000 NA
ATOM     13  C   UNL     1       3.097   3.438  17.484  0.00  0.00    +0.000 C 
BRANCH  12  14
ATOM     14  C   UNL     1       5.414   4.029  17.935  0.00  0.00    +0.000 C 
BRANCH  14  21
ATOM     15  C   UNL     1       5.570   3.937  14.662  0.00  0.00    +0.000 C 
ATOM     16  C   UNL     1       6.331   4.797  15.595  0.00  0.00    +0.000 A 
ATOM     17  N   UNL     1       7.227   5.675  15.116  0.00  0.00    +0.000 NA
ATOM     18  O   UNL     1       7.781   6.288  16.227  0.00  0.00    +0.000 OA
ATOM     19  C   UNL     1       7.219   5.778  17.352  0.00  0.00    +0.000 A 
ATOM     20  C   UNL     1       7.719   6.318  18.633  0.00  0.00    +0.000 C 
ATOM     21  C   UNL     1       6.279   4.830  17.018  0.00  0.00    +0.000 A 
ENDBRANCH  14  21
ENDBRANCH  12  14
ENDBRANCH   1  12
TORSDOF 4
ENDMDL
MODEL 2
REMARK VINA RESULT:      -7.0      0.473      1.816
REMARK  Name = 
REMARK  7 active torsions:
REMARK  status: ('A' for Active; 'I' for Inactive)
REMARK    1  A    between atoms: C_1  and  C_2
REMARK    2  A    between atoms: C_5  and  C_6
REMARK    3  A    between atoms: C_7  and  C_8
REMARK    4  A    between atoms: C_8  and  N_9
REMARK    5  A    between atoms: N_9  and  C_10
REMARK    6  A    between atoms: N_9  and  C_11
REMARK    7  A    between atoms: C_11  and  C_12
REMARK                            x       y       z     vdW  Elec       q    Type
REMARK                         _______ _______ _______ _____ _____    ______ ____
ROOT
ATOM      1  C   UNL     1       3.641   4.994  19.074  0.00  0.00    +0.000 C 
ENDROOT
BRANCH   1   2
ATOM      2  C   UNL     1       2.960   6.329  19.048  0.00  0.00    +0.000 A 
ATOM      3  C   UNL     1       2.918   7.274  17.993  0.00  0.00    +0.000 A 
ATOM      4  C   UNL     1       2.170   8.326  18.474  0.00  0.00    +0.000 A 
ATOM      5  N   UNL     1       1.813   7.967  19.739  0.00  0.00    +0.000 N 
ATOM      6  N   UNL     1       2.283   6.763  20.123  0.00  0.00    +0.000 NA
ATOM      7  C   UNL     1       1.088   8.801  20.667  0.00  0.00    +0.000 C 
ATOM      8  C   UNL     1       0.579  10.087  20.012  0.00  0.00    +0.000 C 
ATOM      9  N   UNL     1       1.358  10.615  18.884  0.00  0.00    +0.000 NA
ATOM     10  C   UNL     1       1.722   9.607  17.884  0.00  0.00    +0.000 C 
ATOM     11  H   UNL     1       2.202  11.074  19.219  0.00  0.00    +0.000 HD
ENDBRANCH   1   2
BRANCH   1  12
ATOM     12  N   UNL     1       3.932   4.483  17.711  0.00  0.00    +0.000 NA
ATOM     13  C   UNL     1       2.923   3.472  17.371  0.00  0.00    +0.000 C 
BRANCH  12  14
ATOM     14  C   UNL     1       5.298   3.927  17.645  0.00  0.00    +0.000 C 
BRANCH  14  21
ATOM     15  C   UNL     1       7.419   6.224  18.628  0.00  0.00    +0.000 C 
ATOM     16  C   UNL     1       7.116   5.783  17.249  0.00  0.00    +0.000 A 
ATOM     17  N   UNL     1       7.743   6.356  16.210  0.00  0.00    +0.000 NA
ATOM     18  O   UNL     1       7.219   5.756  15.078  0.00  0.00    +0.000 OA
ATOM     19  C   UNL     1       6.290   4.836  15.443  0.00  0.00    +0.000 A 
ATOM     20  C   UNL     1       5.618   4.115  14.343  0.00  0.00    +0.000 C 
ATOM     21  C   UNL     1       6.184   4.798  16.815  0.00  0.00    +0.000 A 
ENDBRANCH  14  21
ENDBRANCH  12  14
ENDBRANCH   1  12
TORSDOF 4
ENDMDL
MODEL 3
REMARK VINA RESULT:      -6.7      2.655      4.574
REMARK  Name = 
REMARK  7 active torsions:
REMARK  status: ('A' for Active; 'I' for Inactive)
REMARK    1  A    between atoms: C_1  and  C_2
REMARK    2  A    between atoms: C_5  and  C_6
REMARK    3  A    between atoms: C_7  and  C_8
REMARK    4  A    between atoms: C_8  and  N_9
REMARK    5  A    between atoms: N_9  and  C_10
REMARK    6  A    between atoms: N_9  and  C_11
REMARK    7  A    between atoms: C_11  and  C_12
REMARK                            x       y       z     vdW  Elec       q    Type
REMARK                         _______ _______ _______ _____ _____    ______ ____
ROOT
ATOM      1  C   UNL     1       4.098   5.483  17.087  0.00  0.00    +0.000 C 
ENDROOT
BRANCH   1   2
ATOM      2  C   UNL     1       3.358   4.706  18.135  0.00  0.00    +0.000 A 
ATOM      3  C   UNL     1       1.958   4.568  18.302  0.00  0.00    +0.000 A 
ATOM      4  C   UNL     1       1.800   3.757  19.404  0.00  0.00    +0.000 A 
ATOM      5  N   UNL     1       3.063   3.461  19.818  0.00  0.00    +0.000 N 
ATOM      6  N   UNL     1       4.034   4.028  19.075  0.00  0.00    +0.000 NA
ATOM      7  C   UNL     1       3.395   2.701  21.000  0.00  0.00    +0.000 C 
ATOM      8  C   UNL     1       2.157   2.083  21.655  0.00  0.00    +0.000 C 
ATOM      9  N   UNL     1       0.883   2.792  21.476  0.00  0.00    +0.000 NA
ATOM     10  C   UNL     1       0.615   3.202  20.095  0.00  0.00    +0.000 C 
ATOM     11  H   UNL     1       0.842   3.608  22.082  0.00  0.00    +0.000 HD
ENDBRANCH   1   2
BRANCH   1  12
ATOM     12  N   UNL     1       4.644   6.760  17.614  0.00  0.00    +0.000 NA
ATOM     13  C   UNL     1       3.663   7.823  17.358  0.00  0.00    +0.000 C 
BRANCH  12  14
ATOM     14  C   UNL     1       5.946   7.065  16.989  0.00  0.00    +0.000 C 
BRANCH  14  21
ATOM     15  C   UNL     1       7.659   5.825  19.493  0.00  0.00    +0.000 C 
ATOM     16  C   UNL     1       7.566   5.321  18.105  0.00  0.00    +0.000 A 
ATOM     17  N   UNL     1       8.248   4.224  17.743  0.00  0.00    +0.000 NA
ATOM     18  O   UNL     1       7.979   4.041  16.398  0.00  0.00    +0.000 OA
ATOM     19  C   UNL     1       7.146   5.022  15.967  0.00  0.00    +0.000 A 
ATOM     20  C   UNL     1       6.775   4.980  14.537  0.00  0.00    +0.000 C 
ATOM     21  C   UNL     1       6.836   5.865  17.009  0.00  0.00    +0.000 A 
ENDBRANCH  14  21
ENDBRANCH  12  14
ENDBRANCH   1  12
TORSDOF 4
ENDMDL
MODEL 4
REMARK VINA RESULT:      -6.6      3.168      7.149
REMARK  Name = 
REMARK  7 active torsions:
REMARK  status: ('A' for Active; 'I' for Inactive)
REMARK    1  A    between atoms: C_1  and  C_2
REMARK    2  A    between atoms: C_5  and  C_6
REMARK    3  A    between atoms: C_7  and  C_8
REMARK    4  A    between atoms: C_8  and  N_9
REMARK    5  A    between atoms: N_9  and  C_10
REMARK    6  A    between atoms: N_9  and  C_11
REMARK    7  A    between atoms: C_11  and  C_12
REMARK                            x       y       z     vdW  Elec       q    Type
REMARK                         _______ _______ _______ _____ _____    ______ ____
ROOT
ATOM      1  C   UNL     1       5.873   5.447  17.572  0.00  0.00    +0.000 C 
ENDROOT
BRANCH   1   2
ATOM      2  C   UNL     1       6.072   5.028  16.146  0.00  0.00    +0.000 A 
ATOM      3  C   UNL     1       5.314   4.102  15.387  0.00  0.00    +0.000 A 
ATOM      4  C   UNL     1       5.906   4.076  14.144  0.00  0.00    +0.000 A 
ATOM      5  N   UNL     1       6.942   4.957  14.220  0.00  0.00    +0.000 N 
ATOM      6  N   UNL     1       7.077   5.547  15.424  0.00  0.00    +0.000 NA
ATOM      7  C   UNL     1       7.905   5.200  13.172  0.00  0.00    +0.000 C 
ATOM      8  C   UNL     1       7.529   4.496  11.867  0.00  0.00    +0.000 C 
ATOM      9  N   UNL     1       6.745   3.259  11.978  0.00  0.00    +0.000 NA
ATOM     10  C   UNL     1       5.600   3.354  12.889  0.00  0.00    +0.000 C 
ATOM     11  H   UNL     1       7.340   2.486  12.267  0.00  0.00    +0.000 HD
ENDBRANCH   1   2
BRANCH   1  12
ATOM     12  N   UNL     1       4.449   5.372  17.987  0.00  0.00    +0.000 NA
ATOM     13  C   UNL     1       3.876   6.723  17.922  0.00  0.00    +0.000 C 
BRANCH  12  14
ATOM     14  C   UNL     1       4.333   4.801  19.344  0.00  0.00    +0.000 C 
BRANCH  14  21
ATOM     15  C   UNL     1       1.561   5.779  20.794  0.00  0.00    +0.000 C 
ATOM     16  C   UNL     1       1.838   4.495  20.113  0.00  0.00    +0.000 A 
ATOM     17  N   UNL     1       0.884   3.553  20.046  0.00  0.00    +0.000 NA
ATOM     18  O   UNL     1       1.462   2.480  19.390  0.00  0.00    +0.000 OA
ATOM     19  C   UNL     1       2.746   2.784  19.071  0.00  0.00    +0.000 A 
ATOM     20  C   UNL     1       3.513   1.728  18.378  0.00  0.00    +0.000 C 
ATOM     21  C   UNL     1       3.045   4.058  19.496  0.00  0.00    +0.000 A 
ENDBRANCH  14  21
ENDBRANCH  12  14
ENDBRANCH   1  12
TORSDOF 4
ENDMDL
MODEL 5
REMARK VINA RESULT:      -6.6      3.228      7.023
REMARK  Name = 
REMARK  7 active torsions:
REMARK  status: ('A' for Active; 'I' for Inactive)
REMARK    1  A    between atoms: C_1  and  C_2
REMARK    2  A    between atoms: C_5  and  C_6
REMARK    3  A    between atoms: C_7  and  C_8
REMARK    4  A    between atoms: C_8  and  N_9
REMARK    5  A    between atoms: N_9  and  C_10
REMARK    6  A    between atoms: N_9  and  C_11
REMARK    7  A    between atoms: C_11  and  C_12
REMARK                            x       y       z     vdW  Elec       q    Type
REMARK                         _______ _______ _______ _____ _____    ______ ____
ROOT
ATOM      1  C   UNL     1       5.884   5.381  17.581  0.00  0.00    +0.000 C 
ENDROOT
BRANCH   1   2
ATOM      2  C   UNL     1       6.081   4.983  16.149  0.00  0.00    +0.000 A 
ATOM      3  C   UNL     1       5.319   4.071  15.378  0.00  0.00    +0.000 A 
ATOM      4  C   UNL     1       5.910   4.061  14.134  0.00  0.00    +0.000 A 
ATOM      5  N   UNL     1       6.950   4.938  14.222  0.00  0.00    +0.000 N 
ATOM      6  N   UNL     1       7.088   5.509  15.435  0.00  0.00    +0.000 NA
ATOM      7  C   UNL     1       7.913   5.193  13.177  0.00  0.00    +0.000 C 
ATOM      8  C   UNL     1       7.533   4.510  11.862  0.00  0.00    +0.000 C 
ATOM      9  N   UNL     1       6.745   3.274  11.955  0.00  0.00    +0.000 NA
ATOM     10  C   UNL     1       5.602   3.359  12.868  0.00  0.00    +0.000 C 
ATOM     11  H   UNL     1       7.338   2.494  12.232  0.00  0.00    +0.000 HD
ENDBRANCH   1   2
BRANCH   1  12
ATOM     12  N   UNL     1       4.460   5.303  17.997  0.00  0.00    +0.000 NA
ATOM     13  C   UNL     1       3.887   6.654  17.940  0.00  0.00    +0.000 C 
BRANCH  12  14
ATOM     14  C   UNL     1       4.345   4.725  19.351  0.00  0.00    +0.000 C 
BRANCH  14  21
ATOM     15  C   UNL     1       3.490   1.743  18.291  0.00  0.00    +0.000 C 
ATOM     16  C   UNL     1       2.681   2.711  19.063  0.00  0.00    +0.000 A 
ATOM     17  N   UNL     1       1.419   2.406  19.406  0.00  0.00    +0.000 NA
ATOM     18  O   UNL     1       0.934   3.515  20.078  0.00  0.00    +0.000 OA
ATOM     19  C   UNL     1       1.899   4.468  20.132  0.00  0.00    +0.000 A 
ATOM     20  C   UNL     1       1.531   5.731  20.805  0.00  0.00    +0.000 C 
ATOM     21  C   UNL     1       3.041   4.014  19.512  0.00  0.00    +0.000 A 
ENDBRANCH  14  21
ENDBRANCH  12  14
ENDBRANCH   1  12
TORSDOF 4
ENDMDL
MODEL 6
REMARK VINA RESULT:      -6.4      2.797      3.987
REMARK  Name = 
REMARK  7 active torsions:
REMARK  status: ('A' for Active; 'I' for Inactive)
REMARK    1  A    between atoms: C_1  and  C_2
REMARK    2  A    between atoms: C_5  and  C_6
REMARK    3  A    between atoms: C_7  and  C_8
REMARK    4  A    between atoms: C_8  and  N_9
REMARK    5  A    between atoms: N_9  and  C_10
REMARK    6  A    between atoms: N_9  and  C_11
REMARK    7  A    between atoms: C_11  and  C_12
REMARK                            x       y       z     vdW  Elec       q    Type
REMARK                         _______ _______ _______ _____ _____    ______ ____
ROOT
ATOM      1  C   UNL     1       3.962   5.501  18.170  0.00  0.00    +0.000 C 
ENDROOT
BRANCH   1   2
ATOM      2  C   UNL     1       3.112   6.681  18.535  0.00  0.00    +0.000 A 
ATOM      3  C   UNL     1       2.773   7.801  17.736  0.00  0.00    +0.000 A 
ATOM      4  C   UNL     1       1.977   8.592  18.535  0.00  0.00    +0.000 A 
ATOM      5  N   UNL     1       1.882   7.927  19.720  0.00  0.00    +0.000 N 
ATOM      6  N   UNL     1       2.566   6.767  19.758  0.00  0.00    +0.000 NA
ATOM      7  C   UNL     1       1.210   8.421  20.899  0.00  0.00    +0.000 C 
ATOM      8  C   UNL     1       0.434   9.710  20.624  0.00  0.00    +0.000 C 
ATOM      9  N   UNL     1       0.942  10.580  19.555  0.00  0.00    +0.000 NA
ATOM     10  C   UNL     1       1.272   9.874  18.313  0.00  0.00    +0.000 C 
ATOM     11  H   UNL     1       1.759  11.096  19.874  0.00  0.00    +0.000 HD
ENDBRANCH   1   2
BRANCH   1  12
ATOM     12  N   UNL     1       4.651   4.916  19.348  0.00  0.00    +0.000 NA
ATOM     13  C   UNL     1       6.069   5.294  19.290  0.00  0.00    +0.000 C 
BRANCH  12  14
ATOM     14  C   UNL     1       4.483   3.450  19.374  0.00  0.00    +0.000 C 
BRANCH  14  21
ATOM     15  C   UNL     1       2.650   2.259  16.932  0.00  0.00    +0.000 C 
ATOM     16  C   UNL     1       2.247   2.551  18.325  0.00  0.00    +0.000 A 
ATOM     17  N   UNL     1       0.981   2.336  18.715  0.00  0.00    +0.000 NA
ATOM     18  O   UNL     1       0.923   2.735  20.040  0.00  0.00    +0.000 OA
ATOM     19  C   UNL     1       2.143   3.184  20.429  0.00  0.00    +0.000 A 
ATOM     20  C   UNL     1       2.246   3.669  21.821  0.00  0.00    +0.000 C 
ATOM     21  C   UNL     1       3.035   3.084  19.386  0.00  0.00    +0.000 A 
ENDBRANCH  14  21
ENDBRANCH  12  14
ENDBRANCH   1  12
TORSDOF 4
ENDMDL
MODEL 7
REMARK VINA RESULT:      -6.3      2.504      4.319
REMARK  Name = 
REMARK  7 active torsions:
REMARK  status: ('A' for Active; 'I' for Inactive)
REMARK    1  A    between atoms: C_1  and  C_2
REMARK    2  A    between atoms: C_5  and  C_6
REMARK    3  A    between atoms: C_7  and  C_8
REMARK    4  A    between atoms: C_8  and  N_9
REMARK    5  A    between atoms: N_9  and  C_10
REMARK    6  A    between atoms: N_9  and  C_11
REMARK    7  A    between atoms: C_11  and  C_12
REMARK                            x       y       z     vdW  Elec       q    Type
REMARK                         _______ _______ _______ _____ _____    ______ ____
ROOT
ATOM      1  C   UNL     1       3.900   5.560  17.164  0.00  0.00    +0.000 C 
ENDROOT
BRANCH   1   2
ATOM      2  C   UNL     1       3.317   4.741  18.277  0.00  0.00    +0.000 A 
ATOM      3  C   UNL     1       1.978   4.713  18.740  0.00  0.00    +0.000 A 
ATOM      4  C   UNL     1       1.967   3.802  19.772  0.00  0.00    +0.000 A 
ATOM      5  N   UNL     1       3.248   3.346  19.865  0.00  0.00    +0.000 N 
ATOM      6  N   UNL     1       4.096   3.902  18.977  0.00  0.00    +0.000 NA
ATOM      7  C   UNL     1       3.734   2.431  20.870  0.00  0.00    +0.000 C 
ATOM      8  C   UNL     1       2.603   1.860  21.727  0.00  0.00    +0.000 C 
ATOM      9  N   UNL     1       1.409   2.698  21.902  0.00  0.00    +0.000 NA
ATOM     10  C   UNL     1       0.901   3.284  20.658  0.00  0.00    +0.000 C 
ATOM     11  H   UNL     1       1.592   3.442  22.572  0.00  0.00    +0.000 HD
ENDBRANCH   1   2
BRANCH   1  12
ATOM     12  N   UNL     1       4.515   6.819  17.654  0.00  0.00    +0.000 NA
ATOM     13  C   UNL     1       3.532   7.901  17.510  0.00  0.00    +0.000 C 
BRANCH  12  14
ATOM     14  C   UNL     1       5.756   7.115  16.912  0.00  0.00    +0.000 C 
BRANCH  14  21
ATOM     15  C   UNL     1       6.318   4.985  14.485  0.00  0.00    +0.000 C 
ATOM     16  C   UNL     1       6.914   5.013  15.839  0.00  0.00    +0.000 A 
ATOM     17  N   UNL     1       7.802   4.074  16.199  0.00  0.00    +0.000 NA
ATOM     18  O   UNL     1       8.136   4.358  17.513  0.00  0.00    +0.000 OA
ATOM     19  C   UNL     1       7.451   5.454  17.926  0.00  0.00    +0.000 A 
ATOM     20  C   UNL     1       7.683   5.880  19.322  0.00  0.00    +0.000 C 
ATOM     21  C   UNL     1       6.662   5.926  16.903  0.00  0.00    +0.000 A 
ENDBRANCH  14  21
ENDBRANCH  12  14
ENDBRANCH   1  12
TORSDOF 4
ENDMDL
MODEL 8
REMARK VINA RESULT:      -6.3      2.755      6.818
REMARK  Name = 
REMARK  7 active torsions:
REMARK  status: ('A' for Active; 'I' for Inactive)
REMARK    1  A    between atoms: C_1  and  C_2
REMARK    2  A    between atoms: C_5  and  C_6
REMARK    3  A    between atoms: C_7  and  C_8
REMARK    4  A    between atoms: C_8  and  N_9
REMARK    5  A    between atoms: N_9  and  C_10
REMARK    6  A    between atoms: N_9  and  C_11
REMARK    7  A    between atoms: C_11  and  C_12
REMARK                            x       y       z     vdW  Elec       q    Type
REMARK                         _______ _______ _______ _____ _____    ______ ____
ROOT
ATOM      1  C   UNL     1       6.938   4.484  17.715  0.00  0.00    +0.000 C 
ENDROOT
BRANCH   1   2
ATOM      2  C   UNL     1       6.841   4.398  16.221  0.00  0.00    +0.000 A 
ATOM      3  C   UNL     1       5.982   3.585  15.441  0.00  0.00    +0.000 A 
ATOM      4  C   UNL     1       6.289   3.881  14.131  0.00  0.00    +0.000 A 
ATOM      5  N   UNL     1       7.272   4.822  14.194  0.00  0.00    +0.000 N 
ATOM      6  N   UNL     1       7.638   5.153  15.448  0.00  0.00    +0.000 NA
ATOM      7  C   UNL     1       7.969   5.374  13.057  0.00  0.00    +0.000 C 
ATOM      8  C   UNL     1       7.352   4.929  11.729  0.00  0.00    +0.000 C 
ATOM      9  N   UNL     1       6.673   3.626  11.712  0.00  0.00    +0.000 NA
ATOM     10  C   UNL     1       5.753   3.415  12.833  0.00  0.00    +0.000 C 
ATOM     11  H   UNL     1       7.355   2.871  11.691  0.00  0.00    +0.000 HD
ENDBRANCH   1   2
BRANCH   1  12
ATOM     12  N   UNL     1       6.578   5.831  18.226  0.00  0.00    +0.000 NA
ATOM     13  C   UNL     1       7.811   6.513  18.640  0.00  0.00    +0.000 C 
BRANCH  12  14
ATOM     14  C   UNL     1       5.619   5.724  19.342  0.00  0.00    +0.000 C 
BRANCH  14  21
ATOM     15  C   UNL     1       3.338   7.401  17.689  0.00  0.00    +0.000 C 
ATOM     16  C   UNL     1       3.307   5.985  18.119  0.00  0.00    +0.000 A 
ATOM     17  N   UNL     1       2.236   5.225  17.842  0.00  0.00    +0.000 NA
ATOM     18  O   UNL     1       2.501   3.986  18.401  0.00  0.00    +0.000 OA
ATOM     19  C   UNL     1       3.717   4.014  19.004  0.00  0.00    +0.000 A 
ATOM     20  C   UNL     1       4.142   2.765  19.669  0.00  0.00    +0.000 C 
ATOM     21  C   UNL     1       4.287   5.257  18.852  0.00  0.00    +0.000 A 
ENDBRANCH  14  21
ENDBRANCH  12  14
ENDBRANCH   1  12
TORSDOF 4
ENDMDL
MODEL 9
REMARK VINA RESULT:      -6.3      1.044      2.321
REMARK  Name = 
REMARK  7 active torsions:
REMARK  status: ('A' for Active; 'I' for Inactive)
REMARK    1  A    between atoms: C_1  and  C_2
REMARK    2  A    between atoms: C_5  and  C_6
REMARK    3  A    between atoms: C_7  and  C_8
REMARK    4  A    between atoms: C_8  and  N_9
REMARK    5  A    between atoms: N_9  and  C_10
REMARK    6  A    between atoms: N_9  and  C_11
REMARK    7  A    between atoms: C_11  and  C_12
REMARK                            x       y       z     vdW  Elec       q    Type
REMARK                         _______ _______ _______ _____ _____    ______ ____
ROOT
ATOM      1  C   UNL     1       3.342   4.311  19.303  0.00  0.00    +0.000 C 
ENDROOT
BRANCH   1   2
ATOM      2  C   UNL     1       2.814   5.714  19.335  0.00  0.00    +0.000 A 
ATOM      3  C   UNL     1       2.177   6.389  20.405  0.00  0.00    +0.000 A 
ATOM      4  C   UNL     1       1.888   7.646  19.924  0.00  0.00    +0.000 A 
ATOM      5  N   UNL     1       2.354   7.659  18.644  0.00  0.00    +0.000 N 
ATOM      6  N   UNL     1       2.915   6.498  18.251  0.00  0.00    +0.000 NA
ATOM      7  C   UNL     1       2.197   8.750  17.712  0.00  0.00    +0.000 C 
ATOM      8  C   UNL     1       1.609   9.997  18.376  0.00  0.00    +0.000 C 
ATOM      9  N   UNL     1       0.730   9.785  19.533  0.00  0.00    +0.000 NA
ATOM     10  C   UNL     1       1.261   8.845  20.525  0.00  0.00    +0.000 C 
ATOM     11  H   UNL     1      -0.188   9.467  19.229  0.00  0.00    +0.000 HD
ENDBRANCH   1   2
BRANCH   1  12
ATOM     12  N   UNL     1       4.130   4.033  18.075  0.00  0.00    +0.000 NA
ATOM     13  C   UNL     1       3.743   2.711  17.566  0.00  0.00    +0.000 C 
BRANCH  12  14
ATOM     14  C   UNL     1       5.576   4.100  18.359  0.00  0.00    +0.000 C 
BRANCH  14  21
ATOM     15  C   UNL     1       7.879   6.364  18.926  0.00  0.00    +0.000 C 
ATOM     16  C   UNL     1       7.277   5.969  17.633  0.00  0.00    +0.000 A 
ATOM     17  N   UNL     1       7.665   6.576  16.501  0.00  0.00    +0.000 NA
ATOM     18  O   UNL     1       6.902   6.013  15.493  0.00  0.00    +0.000 OA
ATOM     19  C   UNL     1       6.069   5.082  16.023  0.00  0.00    +0.000 A 
ATOM     20  C   UNL     1       5.167   4.398  15.074  0.00  0.00    +0.000 C 
ATOM     21  C   UNL     1       6.265   4.998  17.383  0.00  0.00    +0.000 A 
ENDBRANCH  14  21
ENDBRANCH  12  14
ENDBRANCH   1  12
TORSDOF 4
ENDMDL
