MODEL 1
REMARK VINA RESULT:      -5.9      0.000      0.000
REMARK  Name = 
REMARK  15 active torsions:
REMARK  status: ('A' for Active; 'I' for Inactive)
REMARK    1  A    between atoms: C_1  and  C_2
REMARK    2  A    between atoms: C_2  and  C_3
REMARK    3  A    between atoms: C_3  and  C_4
REMARK    4  A    between atoms: C_4  and  C_5
REMARK    5  A    between atoms: C_5  and  C_6
REMARK    6  A    between atoms: C_6  and  C_7
REMARK    7  A    between atoms: C_7  and  C_8
REMARK    8  A    between atoms: C_8  and  C_9
REMARK    9  A    between atoms: C_9  and  C_10
REMARK   10  A    between atoms: C_10  and  C_11
REMARK   11  A    between atoms: C_11  and  C_12
REMARK   12  A    between atoms: C_12  and  N_13
REMARK   13  A    between atoms: N_16  and  C_17
REMARK   14  A    between atoms: C_17  and  N_18
REMARK   15  A    between atoms: C_20  and  C_21
REMARK                            x       y       z     vdW  Elec       q    Type
REMARK                         _______ _______ _______ _____ _____    ______ ____
ROOT
ATOM      1  N   UNL     1       1.762   8.764  20.562  0.00  0.00    +0.000 NA
ATOM      2  C   UNL     1       1.021   9.677  19.657  0.00  0.00    +0.000 C 
ATOM      3  C   UNL     1      -0.428  10.088  20.060  0.00  0.00    +0.000 C 
ATOM      4  N   UNL     1      -0.668  10.372  21.492  0.00  0.00    +0.000 NA
ATOM      5  C   UNL     1       0.006   9.308  22.272  0.00  0.00    +0.000 C 
ATOM      6  C   UNL     1       1.516   9.170  21.954  0.00  0.00    +0.000 C 
ENDROOT
BRANCH   1   7
ATOM      7  C   UNL     1       1.492   7.328  20.418  0.00  0.00    +0.000 C 
BRANCH   7   8
ATOM      8  C   UNL     1       2.599   6.517  19.765  0.00  0.00    +0.000 C 
BRANCH   8   9
ATOM      9  C   UNL     1       2.649   6.711  18.258  0.00  0.00    +0.000 C 
BRANCH   9  10
ATOM     10  C   UNL     1       4.079   6.494  17.803  0.00  0.00    +0.000 C 
BRANCH  10  11
ATOM     11  C   UNL     1       4.789   5.527  18.725  0.00  0.00    +0.000 C 
BRANCH  11  12
ATOM     12  C   UNL     1       4.874   4.173  18.049  0.00  0.00    +0.000 C 
BRANCH  12  13
ATOM     13  C   UNL     1       4.368   3.103  18.996  0.00  0.00    +0.000 C 
BRANCH  13  14
ATOM     14  C   UNL     1       3.467   2.135  18.253  0.00  0.00    +0.000 C 
BRANCH  14  15
ATOM     15  C   UNL     1       2.529   2.906  17.338  0.00  0.00    +0.000 C 
BRANCH  15  16
ATOM     16  C   UNL     1       1.361   3.467  18.134  0.00  0.00    +0.000 C 
BRANCH  16  18
ATOM     17  C   UNL     1       1.083   3.265  20.610  0.00  0.00    +0.000 C 
ATOM     18  C   UNL     1       0.998   2.537  19.282  0.00  0.00    +0.000 C 
ENDBRANCH  16  18
ENDBRANCH  15  16
ENDBRANCH  14  15
ENDBRANCH  13  14
ENDBRANCH  12  13
ENDBRANCH  11  12
ENDBRANCH  10  11
ENDBRANCH   9  10
ENDBRANCH   8   9
ENDBRANCH   7   8
ENDBRANCH   1   7
BRANCH   4  19
ATOM     19  C   UNL     1      -0.194  11.703  21.906  0.00  0.00    +0.000 C 
BRANCH  19  20
ATOM     20  N   UNL     1      -0.524  12.747  20.933  0.00  0.00    +0.000 N 
ATOM     21  N   UNL     1       0.497  13.379  20.228  0.00  0.00    +0.000 NA
ATOM     22  C   UNL     1      -0.123  14.390  19.674  0.00  0.00    +0.000 A 
ATOM     23  O   UNL     1      -1.433  14.499  19.957  0.00  0.00    +0.000 OA
ATOM     24  C   UNL     1      -1.681  13.488  20.829  0.00  0.00    +0.000 A 
ATOM     25  S   UNL     1      -3.153  13.427  21.558  0.00  0.00    +0.000 S 
BRANCH  22  26
ATOM     26  C   UNL     1       0.388  15.505  18.887  0.00  0.00    +0.000 A 
ATOM     27  C   UNL     1      -0.501  16.478  18.408  0.00  0.00    +0.000 A 
ATOM     28  C   UNL     1      -0.009  17.623  17.781  0.00  0.00    +0.000 A 
ATOM     29  C   UNL     1       1.366  17.797  17.636  0.00  0.00    +0.000 A 
ATOM     30  C   UNL     1       2.252  16.822  18.104  0.00  0.00    +0.000 A 
ATOM     31  C   UNL     1       1.765  15.671  18.726  0.00  0.00    +0.000 A 
ENDBRANCH  22  26
ENDBRANCH  19  20
ENDBRANCH   4  19
TORSDOF 14
ENDMDL
MODEL 2
REMARK VINA RESULT:      -5.9      3.226      5.436
REMARK  Name = 
REMARK  15 active torsions:
REMARK  status: ('A' for Active; 'I' for Inactive)
REMARK    1  A    between atoms: C_1  and  C_2
REMARK    2  A    between atoms: C_2  and  C_3
REMARK    3  A    between atoms: C_3  and  C_4
REMARK    4  A    between atoms: C_4  and  C_5
REMARK    5  A    between atoms: C_5  and  C_6
REMARK    6  A    between atoms: C_6  and  C_7
REMARK    7  A    between atoms: C_7  and  C_8
REMARK    8  A    between atoms: C_8  and  C_9
REMARK    9  A    between atoms: C_9  and  C_10
REMARK   10  A    between atoms: C_10  and  C_11
REMARK   11  A    between atoms: C_11  and  C_12
REMARK   12  A    between atoms: C_12  and  N_13
REMARK   13  A    between atoms: N_16  and  C_17
REMARK   14  A    between atoms: C_17  and  N_18
REMARK   15  A    between atoms: C_20  and  C_21
REMARK                            x       y       z     vdW  Elec       q    Type
REMARK                         _______ _______ _______ _____ _____    ______ ____
ROOT
ATOM      1  N   UNL     1       0.177   8.719  20.797  0.00  0.00    +0.000 NA
ATOM      2  C   UNL     1      -0.681   9.091  21.949  0.00  0.00    +0.000 C 
ATOM      3  C   UNL     1      -0.368  10.424  22.692  0.00  0.00    +0.000 C 
ATOM      4  N   UNL     1       0.009  11.584  21.855  0.00  0.00    +0.000 NA
ATOM      5  C   UNL     1       0.973  11.100  20.839  0.00  0.00    +0.000 C 
ATOM      6  C   UNL     1       0.437   9.921  19.990  0.00  0.00    +0.000 C 
ENDROOT
BRANCH   1   7
ATOM      7  C   UNL     1       1.450   8.056  21.106  0.00  0.00    +0.000 C 
BRANCH   7   8
ATOM      8  C   UNL     1       2.210   7.509  19.910  0.00  0.00    +0.000 C 
BRANCH   8   9
ATOM      9  C   UNL     1       2.539   6.031  20.057  0.00  0.00    +0.000 C 
BRANCH   9  10
ATOM     10  C   UNL     1       3.767   5.737  19.219  0.00  0.00    +0.000 C 
BRANCH  10  11
ATOM     11  C   UNL     1       4.026   4.248  19.161  0.00  0.00    +0.000 C 
BRANCH  11  12
ATOM     12  C   UNL     1       3.890   3.778  17.725  0.00  0.00    +0.000 C 
BRANCH  12  13
ATOM     13  C   UNL     1       4.626   4.735  16.809  0.00  0.00    +0.000 C 
BRANCH  13  14
ATOM     14  C   UNL     1       5.860   4.062  16.237  0.00  0.00    +0.000 C 
BRANCH  14  15
ATOM     15  C   UNL     1       7.104   4.604  16.921  0.00  0.00    +0.000 C 
BRANCH  15  16
ATOM     16  C   UNL     1       7.167   6.116  16.777  0.00  0.00    +0.000 C 
BRANCH  16  18
ATOM     17  C   UNL     1       7.756   5.722  19.175  0.00  0.00    +0.000 C 
ATOM     18  C   UNL     1       7.477   6.771  18.116  0.00  0.00    +0.000 C 
ENDBRANCH  16  18
ENDBRANCH  15  16
ENDBRANCH  14  15
ENDBRANCH  13  14
ENDBRANCH  12  13
ENDBRANCH  11  12
ENDBRANCH  10  11
ENDBRANCH   9  10
ENDBRANCH   8   9
ENDBRANCH   7   8
ENDBRANCH   1   7
BRANCH   4  19
ATOM     19  C   UNL     1      -1.145  12.233  21.211  0.00  0.00    +0.000 C 
BRANCH  19  20
ATOM     20  N   UNL     1      -2.051  12.859  22.176  0.00  0.00    +0.000 N 
ATOM     21  N   UNL     1      -3.404  12.531  22.165  0.00  0.00    +0.000 NA
ATOM     22  C   UNL     1      -3.925  13.438  22.950  0.00  0.00    +0.000 A 
ATOM     23  O   UNL     1      -3.063  14.338  23.457  0.00  0.00    +0.000 OA
ATOM     24  C   UNL     1      -1.866  14.016  22.901  0.00  0.00    +0.000 A 
ATOM     25  S   UNL     1      -0.596  15.033  23.136  0.00  0.00    +0.000 S 
BRANCH  22  26
ATOM     26  C   UNL     1      -5.314  13.725  23.285  0.00  0.00    +0.000 A 
ATOM     27  C   UNL     1      -6.197  12.666  23.540  0.00  0.00    +0.000 A 
ATOM     28  C   UNL     1      -7.486  12.930  24.002  0.00  0.00    +0.000 A 
ATOM     29  C   UNL     1      -7.891  14.247  24.213  0.00  0.00    +0.000 A 
ATOM     30  C   UNL     1      -7.014  15.303  23.950  0.00  0.00    +0.000 A 
ATOM     31  C   UNL     1      -5.725  15.045  23.480  0.00  0.00    +0.000 A 
ENDBRANCH  22  26
ENDBRANCH  19  20
ENDBRANCH   4  19
TORSDOF 14
ENDMDL
MODEL 3
REMARK VINA RESULT:      -5.7      2.950      5.322
REMARK  Name = 
REMARK  15 active torsions:
REMARK  status: ('A' for Active; 'I' for Inactive)
REMARK    1  A    between atoms: C_1  and  C_2
REMARK    2  A    between atoms: C_2  and  C_3
REMARK    3  A    between atoms: C_3  and  C_4
REMARK    4  A    between atoms: C_4  and  C_5
REMARK    5  A    between atoms: C_5  and  C_6
REMARK    6  A    between atoms: C_6  and  C_7
REMARK    7  A    between atoms: C_7  and  C_8
REMARK    8  A    between atoms: C_8  and  C_9
REMARK    9  A    between atoms: C_9  and  C_10
REMARK   10  A    between atoms: C_10  and  C_11
REMARK   11  A    between atoms: C_11  and  C_12
REMARK   12  A    between atoms: C_12  and  N_13
REMARK   13  A    between atoms: N_16  and  C_17
REMARK   14  A    between atoms: C_17  and  N_18
REMARK   15  A    between atoms: C_20  and  C_21
REMARK                            x       y       z     vdW  Elec       q    Type
REMARK                         _______ _______ _______ _____ _____    ______ ____
ROOT
ATOM      1  N   UNL     1      -0.021  10.133  19.409  0.00  0.00    +0.000 NA
ATOM      2  C   UNL     1      -0.505  10.532  20.753  0.00  0.00    +0.000 C 
ATOM      3  C   UNL     1       0.057  11.849  21.371  0.00  0.00    +0.000 C 
ATOM      4  N   UNL     1       0.229  12.997  20.454  0.00  0.00    +0.000 NA
ATOM      5  C   UNL     1       0.849  12.481  19.212  0.00  0.00    +0.000 C 
ATOM      6  C   UNL     1       0.049  11.328  18.554  0.00  0.00    +0.000 C 
ENDROOT
BRANCH   1   7
ATOM      7  C   UNL     1       1.260   9.419  19.353  0.00  0.00    +0.000 C 
BRANCH   7   8
ATOM      8  C   UNL     1       1.797   9.146  17.957  0.00  0.00    +0.000 C 
BRANCH   8   9
ATOM      9  C   UNL     1       2.210   7.696  17.767  0.00  0.00    +0.000 C 
BRANCH   9  10
ATOM     10  C   UNL     1       2.692   7.165  19.102  0.00  0.00    +0.000 C 
BRANCH  10  11
ATOM     11  C   UNL     1       2.232   5.738  19.303  0.00  0.00    +0.000 C 
BRANCH  11  12
ATOM     12  C   UNL     1       2.080   5.072  17.950  0.00  0.00    +0.000 C 
BRANCH  12  13
ATOM     13  C   UNL     1       2.064   3.567  18.126  0.00  0.00    +0.000 C 
BRANCH  13  14
ATOM     14  C   UNL     1       3.136   2.931  17.260  0.00  0.00    +0.000 C 
BRANCH  14  15
ATOM     15  C   UNL     1       4.441   3.694  17.417  0.00  0.00    +0.000 C 
BRANCH  15  16
ATOM     16  C   UNL     1       4.988   4.088  16.054  0.00  0.00    +0.000 C 
BRANCH  16  18
ATOM     17  C   UNL     1       5.070   6.587  16.080  0.00  0.00    +0.000 C 
ATOM     18  C   UNL     1       5.886   5.312  16.168  0.00  0.00    +0.000 C 
ENDBRANCH  16  18
ENDBRANCH  15  16
ENDBRANCH  14  15
ENDBRANCH  13  14
ENDBRANCH  12  13
ENDBRANCH  11  12
ENDBRANCH  10  11
ENDBRANCH   9  10
ENDBRANCH   8   9
ENDBRANCH   7   8
ENDBRANCH   1   7
BRANCH   4  19
ATOM     19  C   UNL     1      -1.034  13.695  20.157  0.00  0.00    +0.000 C 
BRANCH  19  20
ATOM     20  N   UNL     1      -2.013  13.574  21.238  0.00  0.00    +0.000 N 
ATOM     21  N   UNL     1      -3.229  12.938  21.000  0.00  0.00    +0.000 NA
ATOM     22  C   UNL     1      -3.923  13.240  22.067  0.00  0.00    +0.000 A 
ATOM     23  O   UNL     1      -3.302  14.022  22.968  0.00  0.00    +0.000 OA
ATOM     24  C   UNL     1      -2.098  14.304  22.404  0.00  0.00    +0.000 A 
ATOM     25  S   UNL     1      -1.132  15.413  23.138  0.00  0.00    +0.000 S 
BRANCH  22  26
ATOM     26  C   UNL     1      -5.315  12.974  22.404  0.00  0.00    +0.000 A 
ATOM     27  C   UNL     1      -6.186  12.492  21.417  0.00  0.00    +0.000 A 
ATOM     28  C   UNL     1      -7.479  12.096  21.760  0.00  0.00    +0.000 A 
ATOM     29  C   UNL     1      -7.899  12.178  23.086  0.00  0.00    +0.000 A 
ATOM     30  C   UNL     1      -7.035  12.667  24.070  0.00  0.00    +0.000 A 
ATOM     31  C   UNL     1      -5.742  13.072  23.730  0.00  0.00    +0.000 A 
ENDBRANCH  22  26
ENDBRANCH  19  20
ENDBRANCH   4  19
TORSDOF 14
ENDMDL
MODEL 4
REMARK VINA RESULT:      -5.7      2.825      4.449
REMARK  Name = 
REMARK  15 active torsions:
REMARK  status: ('A' for Active; 'I' for Inactive)
REMARK    1  A    between atoms: C_1  and  C_2
REMARK    2  A    between atoms: C_2  and  C_3
REMARK    3  A    between atoms: C_3  and  C_4
REMARK    4  A    between atoms: C_4  and  C_5
REMARK    5  A    between atoms: C_5  and  C_6
REMARK    6  A    between atoms: C_6  and  C_7
REMARK    7  A    between atoms: C_7  and  C_8
REMARK    8  A    between atoms: C_8  and  C_9
REMARK    9  A    between atoms: C_9  and  C_10
REMARK   10  A    between atoms: C_10  and  C_11
REMARK   11  A    between atoms: C_11  and  C_12
REMARK   12  A    between atoms: C_12  and  N_13
REMARK   13  A    between atoms: N_16  and  C_17
REMARK   14  A    between atoms: C_17  and  N_18
REMARK   15  A    between atoms: C_20  and  C_21
REMARK                            x       y       z     vdW  Elec       q    Type
REMARK                         _______ _______ _______ _____ _____    ______ ____
ROOT
ATOM      1  N   UNL     1       2.010   9.491  18.873  0.00  0.00    +0.000 NA
ATOM      2  C   UNL     1       1.636  10.866  18.461  0.00  0.00    +0.000 C 
ATOM      3  C   UNL     1       0.187  11.353  18.768  0.00  0.00    +0.000 C 
ATOM      4  N   UNL     1      -0.385  10.966  20.076  0.00  0.00    +0.000 NA
ATOM      5  C   UNL     1      -0.060   9.537  20.294  0.00  0.00    +0.000 C 
ATOM      6  C   UNL     1       1.456   9.228  20.210  0.00  0.00    +0.000 C 
ENDROOT
BRANCH   1   7
ATOM      7  C   UNL     1       1.628   8.402  17.965  0.00  0.00    +0.000 C 
BRANCH   7   8
ATOM      8  C   UNL     1       2.479   7.146  18.057  0.00  0.00    +0.000 C 
BRANCH   8   9
ATOM      9  C   UNL     1       3.792   7.278  17.302  0.00  0.00    +0.000 C 
BRANCH   9  10
ATOM     10  C   UNL     1       4.803   6.354  17.951  0.00  0.00    +0.000 C 
BRANCH  10  11
ATOM     11  C   UNL     1       4.104   5.219  18.666  0.00  0.00    +0.000 C 
BRANCH  11  12
ATOM     12  C   UNL     1       4.273   3.948  17.858  0.00  0.00    +0.000 C 
BRANCH  12  13
ATOM     13  C   UNL     1       2.920   3.485  17.355  0.00  0.00    +0.000 C 
BRANCH  13  14
ATOM     14  C   UNL     1       2.664   2.055  17.794  0.00  0.00    +0.000 C 
BRANCH  14  15
ATOM     15  C   UNL     1       1.735   2.046  18.996  0.00  0.00    +0.000 C 
BRANCH  15  16
ATOM     16  C   UNL     1       1.017   3.381  19.117  0.00  0.00    +0.000 C 
BRANCH  16  18
ATOM     17  C   UNL     1       1.571   2.817  21.489  0.00  0.00    +0.000 C 
ATOM     18  C   UNL     1       1.086   3.901  20.546  0.00  0.00    +0.000 C 
ENDBRANCH  16  18
ENDBRANCH  15  16
ENDBRANCH  14  15
ENDBRANCH  13  14
ENDBRANCH  12  13
ENDBRANCH  11  12
ENDBRANCH  10  11
ENDBRANCH   9  10
ENDBRANCH   8   9
ENDBRANCH   7   8
ENDBRANCH   1   7
BRANCH   4  19
ATOM     19  C   UNL     1       0.110  11.790  21.191  0.00  0.00    +0.000 C 
BRANCH  19  20
ATOM     20  N   UNL     1      -0.970  12.431  21.943  0.00  0.00    +0.000 N 
ATOM     21  N   UNL     1      -2.228  11.836  21.984  0.00  0.00    +0.000 NA
ATOM     22  C   UNL     1      -2.974  12.779  22.500  0.00  0.00    +0.000 A 
ATOM     23  O   UNL     1      -2.344  13.934  22.782  0.00  0.00    +0.000 OA
ATOM     24  C   UNL     1      -1.069  13.742  22.354  0.00  0.00    +0.000 A 
ATOM     25  S   UNL     1      -0.044  15.027  22.353  0.00  0.00    +0.000 S 
BRANCH  22  26
ATOM     26  C   UNL     1      -4.413  12.844  22.718  0.00  0.00    +0.000 A 
ATOM     27  C   UNL     1      -4.915  12.852  24.027  0.00  0.00    +0.000 A 
ATOM     28  C   UNL     1      -6.276  13.060  24.250  0.00  0.00    +0.000 A 
ATOM     29  C   UNL     1      -7.133  13.264  23.169  0.00  0.00    +0.000 A 
ATOM     30  C   UNL     1      -6.634  13.247  21.864  0.00  0.00    +0.000 A 
ATOM     31  C   UNL     1      -5.274  13.031  21.634  0.00  0.00    +0.000 A 
ENDBRANCH  22  26
ENDBRANCH  19  20
ENDBRANCH   4  19
TORSDOF 14
ENDMDL
MODEL 5
REMARK VINA RESULT:      -5.7      1.260      2.888
REMARK  Name = 
REMARK  15 active torsions:
REMARK  status: ('A' for Active; 'I' for Inactive)
REMARK    1  A    between atoms: C_1  and  C_2
REMARK    2  A    between atoms: C_2  and  C_3
REMARK    3  A    between atoms: C_3  and  C_4
REMARK    4  A    between atoms: C_4  and  C_5
REMARK    5  A    between atoms: C_5  and  C_6
REMARK    6  A    between atoms: C_6  and  C_7
REMARK    7  A    between atoms: C_7  and  C_8
REMARK    8  A    between atoms: C_8  and  C_9
REMARK    9  A    between atoms: C_9  and  C_10
REMARK   10  A    between atoms: C_10  and  C_11
REMARK   11  A    between atoms: C_11  and  C_12
REMARK   12  A    between atoms: C_12  and  N_13
REMARK   13  A    between atoms: N_16  and  C_17
REMARK   14  A    between atoms: C_17  and  N_18
REMARK   15  A    between atoms: C_20  and  C_21
REMARK                            x       y       z     vdW  Elec       q    Type
REMARK                         _______ _______ _______ _____ _____    ______ ____
ROOT
ATOM      1  N   UNL     1       1.845   8.001  20.286  0.00  0.00    +0.000 NA
ATOM      2  C   UNL     1       1.401   9.022  19.306  0.00  0.00    +0.000 C 
ATOM      3  C   UNL     1      -0.018   9.641  19.487  0.00  0.00    +0.000 C 
ATOM      4  N   UNL     1      -0.444   9.945  20.871  0.00  0.00    +0.000 NA
ATOM      5  C   UNL     1      -0.067   8.785  21.713  0.00  0.00    +0.000 C 
ATOM      6  C   UNL     1       1.438   8.427  21.634  0.00  0.00    +0.000 C 
ENDROOT
BRANCH   1   7
ATOM      7  C   UNL     1       1.395   6.623  20.055  0.00  0.00    +0.000 C 
BRANCH   7   8
ATOM      8  C   UNL     1       2.199   5.545  20.763  0.00  0.00    +0.000 C 
BRANCH   8   9
ATOM      9  C   UNL     1       1.471   4.211  20.806  0.00  0.00    +0.000 C 
BRANCH   9  10
ATOM     10  C   UNL     1       2.501   3.118  21.005  0.00  0.00    +0.000 C 
BRANCH  10  11
ATOM     11  C   UNL     1       3.176   2.777  19.695  0.00  0.00    +0.000 C 
BRANCH  11  12
ATOM     12  C   UNL     1       2.143   2.807  18.585  0.00  0.00    +0.000 C 
BRANCH  12  13
ATOM     13  C   UNL     1       2.624   3.716  17.472  0.00  0.00    +0.000 C 
BRANCH  13  14
ATOM     14  C   UNL     1       4.132   3.619  17.337  0.00  0.00    +0.000 C 
BRANCH  14  15
ATOM     15  C   UNL     1       4.728   5.014  17.239  0.00  0.00    +0.000 C 
BRANCH  15  16
ATOM     16  C   UNL     1       5.596   5.303  18.453  0.00  0.00    +0.000 C 
BRANCH  16  18
ATOM     17  C   UNL     1       7.275   6.919  17.546  0.00  0.00    +0.000 C 
ATOM     18  C   UNL     1       7.047   5.504  18.040  0.00  0.00    +0.000 C 
ENDBRANCH  16  18
ENDBRANCH  15  16
ENDBRANCH  14  15
ENDBRANCH  13  14
ENDBRANCH  12  13
ENDBRANCH  11  12
ENDBRANCH  10  11
ENDBRANCH   9  10
ENDBRANCH   8   9
ENDBRANCH   7   8
ENDBRANCH   1   7
BRANCH   4  19
ATOM     19  C   UNL     1       0.147  11.187  21.397  0.00  0.00    +0.000 C 
BRANCH  19  20
ATOM     20  N   UNL     1       0.112  12.284  20.428  0.00  0.00    +0.000 N 
ATOM     21  N   UNL     1       1.305  12.847  19.982  0.00  0.00    +0.000 NA
ATOM     22  C   UNL     1       0.897  13.923  19.359  0.00  0.00    +0.000 A 
ATOM     23  O   UNL     1      -0.431  14.136  19.367  0.00  0.00    +0.000 OA
ATOM     24  C   UNL     1      -0.936  13.124  20.120  0.00  0.00    +0.000 A 
ATOM     25  S   UNL     1      -2.528  13.168  20.522  0.00  0.00    +0.000 S 
BRANCH  22  26
ATOM     26  C   UNL     1       1.648  15.013  18.749  0.00  0.00    +0.000 A 
ATOM     27  C   UNL     1       2.864  14.740  18.107  0.00  0.00    +0.000 A 
ATOM     28  C   UNL     1       3.518  15.747  17.396  0.00  0.00    +0.000 A 
ATOM     29  C   UNL     1       2.956  17.020  17.323  0.00  0.00    +0.000 A 
ATOM     30  C   UNL     1       1.748  17.295  17.971  0.00  0.00    +0.000 A 
ATOM     31  C   UNL     1       1.094  16.293  18.691  0.00  0.00    +0.000 A 
ENDBRANCH  22  26
ENDBRANCH  19  20
ENDBRANCH   4  19
TORSDOF 14
ENDMDL
MODEL 6
REMARK VINA RESULT:      -5.7      1.556      3.114
REMARK  Name = 
REMARK  15 active torsions:
REMARK  status: ('A' for Active; 'I' for Inactive)
REMARK    1  A    between atoms: C_1  and  C_2
REMARK    2  A    between atoms: C_2  and  C_3
REMARK    3  A    between atoms: C_3  and  C_4
REMARK    4  A    between atoms: C_4  and  C_5
REMARK    5  A    between atoms: C_5  and  C_6
REMARK    6  A    between atoms: C_6  and  C_7
REMARK    7  A    between atoms: C_7  and  C_8
REMARK    8  A    between atoms: C_8  and  C_9
REMARK    9  A    between atoms: C_9  and  C_10
REMARK   10  A    between atoms: C_10  and  C_11
REMARK   11  A    between atoms: C_11  and  C_12
REMARK   12  A    between atoms: C_12  and  N_13
REMARK   13  A    between atoms: N_16  and  C_17
REMARK   14  A    between atoms: C_17  and  N_18
REMARK   15  A    between atoms: C_20  and  C_21
REMARK                            x       y       z     vdW  Elec       q    Type
REMARK                         _______ _______ _______ _____ _____    ______ ____
ROOT
ATOM      1  N   UNL     1       1.999   7.855  20.272  0.00  0.00    +0.000 NA
ATOM      2  C   UNL     1       1.690   8.897  19.261  0.00  0.00    +0.000 C 
ATOM      3  C   UNL     1       0.273   9.546  19.291  0.00  0.00    +0.000 C 
ATOM      4  N   UNL     1      -0.297   9.846  20.623  0.00  0.00    +0.000 NA
ATOM      5  C   UNL     1      -0.042   8.670  21.487  0.00  0.00    +0.000 C 
ATOM      6  C   UNL     1       1.454   8.277  21.571  0.00  0.00    +0.000 C 
ENDROOT
BRANCH   1   7
ATOM      7  C   UNL     1       1.548   6.490  19.974  0.00  0.00    +0.000 C 
BRANCH   7   8
ATOM      8  C   UNL     1       2.387   5.377  20.580  0.00  0.00    +0.000 C 
BRANCH   8   9
ATOM      9  C   UNL     1       3.619   5.060  19.748  0.00  0.00    +0.000 C 
BRANCH   9  10
ATOM     10  C   UNL     1       3.457   3.665  19.180  0.00  0.00    +0.000 C 
BRANCH  10  11
ATOM     11  C   UNL     1       4.423   3.440  18.038  0.00  0.00    +0.000 C 
BRANCH  11  12
ATOM     12  C   UNL     1       3.982   4.268  16.847  0.00  0.00    +0.000 C 
BRANCH  12  13
ATOM     13  C   UNL     1       5.192   4.639  16.013  0.00  0.00    +0.000 C 
BRANCH  13  14
ATOM     14  C   UNL     1       5.242   6.142  15.811  0.00  0.00    +0.000 C 
BRANCH  14  15
ATOM     15  C   UNL     1       5.839   6.806  17.041  0.00  0.00    +0.000 C 
BRANCH  15  16
ATOM     16  C   UNL     1       7.318   6.472  17.155  0.00  0.00    +0.000 C 
BRANCH  16  18
ATOM     17  C   UNL     1       7.585   5.654  19.503  0.00  0.00    +0.000 C 
ATOM     18  C   UNL     1       7.838   6.804  18.547  0.00  0.00    +0.000 C 
ENDBRANCH  16  18
ENDBRANCH  15  16
ENDBRANCH  14  15
ENDBRANCH  13  14
ENDBRANCH  12  13
ENDBRANCH  11  12
ENDBRANCH  10  11
ENDBRANCH   9  10
ENDBRANCH   8   9
ENDBRANCH   7   8
ENDBRANCH   1   7
BRANCH   4  19
ATOM     19  C   UNL     1       0.258  11.069  21.228  0.00  0.00    +0.000 C 
BRANCH  19  20
ATOM     20  N   UNL     1       0.151  12.233  20.347  0.00  0.00    +0.000 N 
ATOM     21  N   UNL     1       1.303  12.792  19.800  0.00  0.00    +0.000 NA
ATOM     22  C   UNL     1       0.865  13.921  19.306  0.00  0.00    +0.000 A 
ATOM     23  O   UNL     1      -0.443  14.173  19.489  0.00  0.00    +0.000 OA
ATOM     24  C   UNL     1      -0.893  13.124  20.226  0.00  0.00    +0.000 A 
ATOM     25  S   UNL     1      -2.424  13.186  20.819  0.00  0.00    +0.000 S 
BRANCH  22  26
ATOM     26  C   UNL     1       1.580  15.030  18.686  0.00  0.00    +0.000 A 
ATOM     27  C   UNL     1       2.832  14.803  18.097  0.00  0.00    +0.000 A 
ATOM     28  C   UNL     1       3.457  15.820  17.375  0.00  0.00    +0.000 A 
ATOM     29  C   UNL     1       2.832  17.058  17.238  0.00  0.00    +0.000 A 
ATOM     30  C   UNL     1       1.588  17.288  17.833  0.00  0.00    +0.000 A 
ATOM     31  C   UNL     1       0.961  16.276  18.563  0.00  0.00    +0.000 A 
ENDBRANCH  22  26
ENDBRANCH  19  20
ENDBRANCH   4  19
TORSDOF 14
ENDMDL
MODEL 7
REMARK VINA RESULT:      -5.6      2.467      4.114
REMARK  Name = 
REMARK  15 active torsions:
REMARK  status: ('A' for Active; 'I' for Inactive)
REMARK    1  A    between atoms: C_1  and  C_2
REMARK    2  A    between atoms: C_2  and  C_3
REMARK    3  A    between atoms: C_3  and  C_4
REMARK    4  A    between atoms: C_4  and  C_5
REMARK    5  A    between atoms: C_5  and  C_6
REMARK    6  A    between atoms: C_6  and  C_7
REMARK    7  A    between atoms: C_7  and  C_8
REMARK    8  A    between atoms: C_8  and  C_9
REMARK    9  A    between atoms: C_9  and  C_10
REMARK   10  A    between atoms: C_10  and  C_11
REMARK   11  A    between atoms: C_11  and  C_12
REMARK   12  A    between atoms: C_12  and  N_13
REMARK   13  A    between atoms: N_16  and  C_17
REMARK   14  A    between atoms: C_17  and  N_18
REMARK   15  A    between atoms: C_20  and  C_21
REMARK                            x       y       z     vdW  Elec       q    Type
REMARK                         _______ _______ _______ _____ _____    ______ ____
ROOT
ATOM      1  N   UNL     1       2.365   8.634  18.623  0.00  0.00    +0.000 NA
ATOM      2  C   UNL     1       2.019  10.012  18.195  0.00  0.00    +0.000 C 
ATOM      3  C   UNL     1       0.635  10.585  18.625  0.00  0.00    +0.000 C 
ATOM      4  N   UNL     1       0.180  10.275  19.998  0.00  0.00    +0.000 NA
ATOM      5  C   UNL     1       0.455   8.839  20.241  0.00  0.00    +0.000 C 
ATOM      6  C   UNL     1       1.938   8.448  20.018  0.00  0.00    +0.000 C 
ENDROOT
BRANCH   1   7
ATOM      7  C   UNL     1       1.840   7.535  17.802  0.00  0.00    +0.000 C 
BRANCH   7   8
ATOM      8  C   UNL     1       2.372   6.153  18.142  0.00  0.00    +0.000 C 
BRANCH   8   9
ATOM      9  C   UNL     1       3.871   6.037  17.916  0.00  0.00    +0.000 C 
BRANCH   9  10
ATOM     10  C   UNL     1       4.508   5.570  19.209  0.00  0.00    +0.000 C 
BRANCH  10  11
ATOM     11  C   UNL     1       4.964   4.133  19.089  0.00  0.00    +0.000 C 
BRANCH  11  12
ATOM     12  C   UNL     1       4.473   3.567  17.771  0.00  0.00    +0.000 C 
BRANCH  12  13
ATOM     13  C   UNL     1       3.623   2.340  18.033  0.00  0.00    +0.000 C 
BRANCH  13  14
ATOM     14  C   UNL     1       2.214   2.564  17.518  0.00  0.00    +0.000 C 
BRANCH  14  15
ATOM     15  C   UNL     1       1.259   2.726  18.691  0.00  0.00    +0.000 C 
BRANCH  15  16
ATOM     16  C   UNL     1       1.852   2.099  19.943  0.00  0.00    +0.000 C 
BRANCH  16  18
ATOM     17  C   UNL     1       1.946   4.230  21.247  0.00  0.00    +0.000 C 
ATOM     18  C   UNL     1       1.370   2.828  21.188  0.00  0.00    +0.000 C 
ENDBRANCH  16  18
ENDBRANCH  15  16
ENDBRANCH  14  15
ENDBRANCH  13  14
ENDBRANCH  12  13
ENDBRANCH  11  12
ENDBRANCH  10  11
ENDBRANCH   9  10
ENDBRANCH   8   9
ENDBRANCH   7   8
ENDBRANCH   1   7
BRANCH   4  19
ATOM     19  C   UNL     1       0.827  11.111  21.024  0.00  0.00    +0.000 C 
BRANCH  19  20
ATOM     20  N   UNL     1      -0.056  12.161  21.535  0.00  0.00    +0.000 N 
ATOM     21  N   UNL     1      -1.105  11.826  22.387  0.00  0.00    +0.000 NA
ATOM     22  C   UNL     1      -1.806  12.930  22.425  0.00  0.00    +0.000 A 
ATOM     23  O   UNL     1      -1.342  13.944  21.674  0.00  0.00    +0.000 OA
ATOM     24  C   UNL     1      -0.257  13.431  21.038  0.00  0.00    +0.000 A 
ATOM     25  S   UNL     1       0.462  14.332  19.867  0.00  0.00    +0.000 S 
BRANCH  22  26
ATOM     26  C   UNL     1      -3.088  13.222  23.053  0.00  0.00    +0.000 A 
ATOM     27  C   UNL     1      -3.820  14.345  22.641  0.00  0.00    +0.000 A 
ATOM     28  C   UNL     1      -5.110  14.554  23.129  0.00  0.00    +0.000 A 
ATOM     29  C   UNL     1      -5.669  13.642  24.023  0.00  0.00    +0.000 A 
ATOM     30  C   UNL     1      -4.936  12.528  24.441  0.00  0.00    +0.000 A 
ATOM     31  C   UNL     1      -3.641  12.318  23.962  0.00  0.00    +0.000 A 
ENDBRANCH  22  26
ENDBRANCH  19  20
ENDBRANCH   4  19
TORSDOF 14
ENDMDL
MODEL 8
REMARK VINA RESULT:      -5.6      2.688      4.518
REMARK  Name = 
REMARK  15 active torsions:
REMARK  status: ('A' for Active; 'I' for Inactive)
REMARK    1  A    between atoms: C_1  and  C_2
REMARK    2  A    between atoms: C_2  and  C_3
REMARK    3  A    between atoms: C_3  and  C_4
REMARK    4  A    between atoms: C_4  and  C_5
REMARK    5  A    between atoms: C_5  and  C_6
REMARK    6  A    between atoms: C_6  and  C_7
REMARK    7  A    between atoms: C_7  and  C_8
REMARK    8  A    between atoms: C_8  and  C_9
REMARK    9  A    between atoms: C_9  and  C_10
REMARK   10  A    between atoms: C_10  and  C_11
REMARK   11  A    between atoms: C_11  and  C_12
REMARK   12  A    between atoms: C_12  and  N_13
REMARK   13  A    between atoms: N_16  and  C_17
REMARK   14  A    between atoms: C_17  and  N_18
REMARK   15  A    between atoms: C_20  and  C_21
REMARK                            x       y       z     vdW  Elec       q    Type
REMARK                         _______ _______ _______ _____ _____    ______ ____
ROOT
ATOM      1  N   UNL     1       2.259   7.245  20.014  0.00  0.00    +0.000 NA
ATOM      2  C   UNL     1       2.325   8.105  18.807  0.00  0.00    +0.000 C 
ATOM      3  C   UNL     1       1.089   8.994  18.474  0.00  0.00    +0.000 C 
ATOM      4  N   UNL     1       0.411   9.650  19.614  0.00  0.00    +0.000 NA
ATOM      5  C   UNL     1       0.284   8.641  20.692  0.00  0.00    +0.000 C 
ATOM      6  C   UNL     1       1.635   8.006  21.107  0.00  0.00    +0.000 C 
ENDROOT
BRANCH   1   7
ATOM      7  C   UNL     1       1.575   5.953  19.869  0.00  0.00    +0.000 C 
BRANCH   7   8
ATOM      8  C   UNL     1       2.127   4.822  20.720  0.00  0.00    +0.000 C 
BRANCH   8   9
ATOM      9  C   UNL     1       2.228   3.514  19.952  0.00  0.00    +0.000 C 
BRANCH   9  10
ATOM     10  C   UNL     1       3.696   3.180  19.780  0.00  0.00    +0.000 C 
BRANCH  10  11
ATOM     11  C   UNL     1       3.968   2.692  18.374  0.00  0.00    +0.000 C 
BRANCH  11  12
ATOM     12  C   UNL     1       3.536   3.760  17.388  0.00  0.00    +0.000 C 
BRANCH  12  13
ATOM     13  C   UNL     1       4.684   4.077  16.451  0.00  0.00    +0.000 C 
BRANCH  13  14
ATOM     14  C   UNL     1       4.820   5.579  16.285  0.00  0.00    +0.000 C 
BRANCH  14  15
ATOM     15  C   UNL     1       6.244   6.003  16.606  0.00  0.00    +0.000 C 
BRANCH  15  16
ATOM     16  C   UNL     1       7.091   4.789  16.952  0.00  0.00    +0.000 C 
BRANCH  16  18
ATOM     17  C   UNL     1       6.779   5.439  19.345  0.00  0.00    +0.000 C 
ATOM     18  C   UNL     1       7.774   4.976  18.299  0.00  0.00    +0.000 C 
ENDBRANCH  16  18
ENDBRANCH  15  16
ENDBRANCH  14  15
ENDBRANCH  13  14
ENDBRANCH  12  13
ENDBRANCH  11  12
ENDBRANCH  10  11
ENDBRANCH   9  10
ENDBRANCH   8   9
ENDBRANCH   7   8
ENDBRANCH   1   7
BRANCH   4  19
ATOM     19  C   UNL     1       1.121  10.846  20.100  0.00  0.00    +0.000 C 
BRANCH  19  20
ATOM     20  N   UNL     1       0.210  11.886  20.580  0.00  0.00    +0.000 N 
ATOM     21  N   UNL     1       0.100  12.128  21.947  0.00  0.00    +0.000 NA
ATOM     22  C   UNL     1      -0.952  12.904  22.015  0.00  0.00    +0.000 A 
ATOM     23  O   UNL     1      -1.554  13.178  20.845  0.00  0.00    +0.000 OA
ATOM     24  C   UNL     1      -0.856  12.464  19.924  0.00  0.00    +0.000 A 
ATOM     25  S   UNL     1      -1.432  12.394  18.387  0.00  0.00    +0.000 S 
BRANCH  22  26
ATOM     26  C   UNL     1      -1.670  13.435  23.167  0.00  0.00    +0.000 A 
ATOM     27  C   UNL     1      -1.158  14.550  23.847  0.00  0.00    +0.000 A 
ATOM     28  C   UNL     1      -1.907  15.156  24.856  0.00  0.00    +0.000 A 
ATOM     29  C   UNL     1      -3.165  14.652  25.182  0.00  0.00    +0.000 A 
ATOM     30  C   UNL     1      -3.672  13.536  24.510  0.00  0.00    +0.000 A 
ATOM     31  C   UNL     1      -2.923  12.921  23.505  0.00  0.00    +0.000 A 
ENDBRANCH  22  26
ENDBRANCH  19  20
ENDBRANCH   4  19
TORSDOF 14
ENDMDL
MODEL 9
REMARK VINA RESULT:      -5.6      2.681      4.036
REMARK  Name = 
REMARK  15 active torsions:
REMARK  status: ('A' for Active; 'I' for Inactive)
REMARK    1  A    between atoms: C_1  and  C_2
REMARK    2  A    between atoms: C_2  and  C_3
REMARK    3  A    between atoms: C_3  and  C_4
REMARK    4  A    between atoms: C_4  and  C_5
REMARK    5  A    between atoms: C_5  and  C_6
REMARK    6  A    between atoms: C_6  and  C_7
REMARK    7  A    between atoms: C_7  and  C_8
REMARK    8  A    between atoms: C_8  and  C_9
REMARK    9  A    between atoms: C_9  and  C_10
REMARK   10  A    between atoms: C_10  and  C_11
REMARK   11  A    between atoms: C_11  and  C_12
REMARK   12  A    between atoms: C_12  and  N_13
REMARK   13  A    between atoms: N_16  and  C_17
REMARK   14  A    between atoms: C_17  and  N_18
REMARK   15  A    between atoms: C_20  and  C_21
REMARK                            x       y       z     vdW  Elec       q    Type
REMARK                         _______ _______ _______ _____ _____    ______ ____
ROOT
ATOM      1  N   UNL     1       1.204  10.344  17.985  0.00  0.00    +0.000 NA
ATOM      2  C   UNL     1      -0.236   9.996  18.052  0.00  0.00    +0.000 C 
ATOM      3  C   UNL     1      -0.992  10.265  19.389  0.00  0.00    +0.000 C 
ATOM      4  N   UNL     1      -0.668  11.522  20.099  0.00  0.00    +0.000 NA
ATOM      5  C   UNL     1       0.806  11.671  20.079  0.00  0.00    +0.000 C 
ATOM      6  C   UNL     1       1.413  11.637  18.654  0.00  0.00    +0.000 C 
ENDROOT
BRANCH   1   7
ATOM      7  C   UNL     1       2.149   9.358  18.526  0.00  0.00    +0.000 C 
BRANCH   7   8
ATOM      8  C   UNL     1       2.014   7.950  17.971  0.00  0.00    +0.000 C 
BRANCH   8   9
ATOM      9  C   UNL     1       3.125   7.029  18.449  0.00  0.00    +0.000 C 
BRANCH   9  10
ATOM     10  C   UNL     1       4.156   6.923  17.343  0.00  0.00    +0.000 C 
BRANCH  10  11
ATOM     11  C   UNL     1       4.648   5.499  17.210  0.00  0.00    +0.000 C 
BRANCH  11  12
ATOM     12  C   UNL     1       4.346   4.749  18.493  0.00  0.00    +0.000 C 
BRANCH  12  13
ATOM     13  C   UNL     1       3.831   3.364  18.160  0.00  0.00    +0.000 C 
BRANCH  13  14
ATOM     14  C   UNL     1       2.672   3.461  17.186  0.00  0.00    +0.000 C 
BRANCH  14  15
ATOM     15  C   UNL     1       1.409   3.863  17.930  0.00  0.00    +0.000 C 
BRANCH  15  16
ATOM     16  C   UNL     1       1.199   2.961  19.136  0.00  0.00    +0.000 C 
BRANCH  16  18
ATOM     17  C   UNL     1       1.978   3.528  21.443  0.00  0.00    +0.000 C 
ATOM     18  C   UNL     1       0.924   3.788  20.384  0.00  0.00    +0.000 C 
ENDBRANCH  16  18
ENDBRANCH  15  16
ENDBRANCH  14  15
ENDBRANCH  13  14
ENDBRANCH  12  13
ENDBRANCH  11  12
ENDBRANCH  10  11
ENDBRANCH   9  10
ENDBRANCH   8   9
ENDBRANCH   7   8
ENDBRANCH   1   7
BRANCH   4  19
ATOM     19  C   UNL     1      -1.321  12.703  19.511  0.00  0.00    +0.000 C 
BRANCH  19  20
ATOM     20  N   UNL     1      -1.440  13.812  20.459  0.00  0.00    +0.000 N 
ATOM     21  N   UNL     1      -2.296  13.696  21.551  0.00  0.00    +0.000 NA
ATOM     22  C   UNL     1      -2.343  14.921  22.008  0.00  0.00    +0.000 A 
ATOM     23  O   UNL     1      -1.628  15.830  21.322  0.00  0.00    +0.000 OA
ATOM     24  C   UNL     1      -1.105  15.136  20.278  0.00  0.00    +0.000 A 
ATOM     25  S   UNL     1      -0.324  15.972  19.098  0.00  0.00    +0.000 S 
BRANCH  22  26
ATOM     26  C   UNL     1      -3.141  15.509  23.077  0.00  0.00    +0.000 A 
ATOM     27  C   UNL     1      -2.505  16.220  24.104  0.00  0.00    +0.000 A 
ATOM     28  C   UNL     1      -3.266  16.909  25.050  0.00  0.00    +0.000 A 
ATOM     29  C   UNL     1      -4.657  16.890  24.967  0.00  0.00    +0.000 A 
ATOM     30  C   UNL     1      -5.292  16.174  23.948  0.00  0.00    +0.000 A 
ATOM     31  C   UNL     1      -4.535  15.476  23.004  0.00  0.00    +0.000 A 
ENDBRANCH  22  26
ENDBRANCH  19  20
ENDBRANCH   4  19
TORSDOF 14
ENDMDL
