MODEL 1
REMARK VINA RESULT:      -8.2      0.000      0.000
REMARK  Name = 
REMARK  3 active torsions:
REMARK  status: ('A' for Active; 'I' for Inactive)
REMARK    1  A    between atoms: C_2  and  C_3
REMARK    2  A    between atoms: C_11  and  O_12
REMARK    3  A    between atoms: O_12  and  C_13
REMARK                            x       y       z     vdW  Elec       q    Type
REMARK                         _______ _______ _______ _____ _____    ______ ____
ROOT
ATOM      1  O   UNL     1       8.121   4.193  17.083  0.00  0.00    +0.000 OA
ATOM      2  C   UNL     1       7.161   4.712  16.517  0.00  0.00    +0.000 C 
ATOM      3  N   UNL     1       6.193   5.401  17.240  0.00  0.00    +0.000 N 
ATOM      4  C   UNL     1       6.317   5.599  18.671  0.00  0.00    +0.000 C 
ATOM      5  C   UNL     1       4.884   5.542  19.160  0.00  0.00    +0.000 C 
ATOM      6  C   UNL     1       4.122   6.257  18.042  0.00  0.00    +0.000 C 
ATOM      7  C   UNL     1       4.862   5.781  16.782  0.00  0.00    +0.000 C 
ENDROOT
BRANCH   2   8
ATOM      8  C   UNL     1       7.011   4.619  15.051  0.00  0.00    +0.000 A 
ATOM      9  C   UNL     1       6.187   3.679  14.452  0.00  0.00    +0.000 A 
ATOM     10  S   UNL     1       6.281   3.781  12.746  0.00  0.00    +0.000 S 
ATOM     11  C   UNL     1       7.404   5.061  12.908  0.00  0.00    +0.000 A 
ATOM     12  N   UNL     1       7.707   5.414  14.137  0.00  0.00    +0.000 NA
ENDBRANCH   2   8
BRANCH   6  13
ATOM     13  O   UNL     1       2.759   5.848  17.990  0.00  0.00    +0.000 OA
BRANCH  13  14
ATOM     14  C   UNL     1       2.456   4.544  18.275  0.00  0.00    +0.000 A 
ATOM     15  C   UNL     1       2.522   3.471  17.387  0.00  0.00    +0.000 A 
ATOM     16  C   UNL     1       2.192   2.181  17.813  0.00  0.00    +0.000 A 
ATOM     17  C   UNL     1       1.798   1.958  19.131  0.00  0.00    +0.000 A 
ATOM     18  C   UNL     1       1.733   3.030  20.018  0.00  0.00    +0.000 A 
ATOM     19 CL   UNL     1       1.248   2.760  21.647  0.00  0.00    +0.000 Cl
ATOM     20  C   UNL     1       2.064   4.318  19.597  0.00  0.00    +0.000 A 
ENDBRANCH  13  14
ENDBRANCH   6  13
TORSDOF 3
ENDMDL
MODEL 2
REMARK VINA RESULT:      -7.9      1.108      1.663
REMARK  Name = 
REMARK  3 active torsions:
REMARK  status: ('A' for Active; 'I' for Inactive)
REMARK    1  A    between atoms: C_2  and  C_3
REMARK    2  A    between atoms: C_11  and  O_12
REMARK    3  A    between atoms: O_12  and  C_13
REMARK                            x       y       z     vdW  Elec       q    Type
REMARK                         _______ _______ _______ _____ _____    ______ ____
ROOT
ATOM      1  O   UNL     1       8.093   4.159  16.900  0.00  0.00    +0.000 OA
ATOM      2  C   UNL     1       7.208   4.766  16.300  0.00  0.00    +0.000 C 
ATOM      3  N   UNL     1       6.303   5.570  16.984  0.00  0.00    +0.000 N 
ATOM      4  C   UNL     1       6.413   5.785  18.413  0.00  0.00    +0.000 C 
ATOM      5  C   UNL     1       4.970   5.892  18.865  0.00  0.00    +0.000 C 
ATOM      6  C   UNL     1       4.317   6.661  17.714  0.00  0.00    +0.000 C 
ATOM      7  C   UNL     1       5.032   6.080  16.483  0.00  0.00    +0.000 C 
ENDROOT
BRANCH   2   8
ATOM      8  C   UNL     1       7.084   4.657  14.833  0.00  0.00    +0.000 A 
ATOM      9  C   UNL     1       6.253   3.726  14.229  0.00  0.00    +0.000 A 
ATOM     10  S   UNL     1       6.381   3.805  12.524  0.00  0.00    +0.000 S 
ATOM     11  C   UNL     1       7.528   5.064  12.692  0.00  0.00    +0.000 A 
ATOM     12  N   UNL     1       7.814   5.426  13.922  0.00  0.00    +0.000 NA
ENDBRANCH   2   8
BRANCH   6  13
ATOM     13  O   UNL     1       2.921   6.399  17.634  0.00  0.00    +0.000 OA
BRANCH  13  14
ATOM     14  C   UNL     1       2.334   5.669  18.632  0.00  0.00    +0.000 A 
ATOM     15  C   UNL     1       2.176   6.067  19.960  0.00  0.00    +0.000 A 
ATOM     16  C   UNL     1       1.546   5.223  20.880  0.00  0.00    +0.000 A 
ATOM     17  C   UNL     1       1.067   3.979  20.474  0.00  0.00    +0.000 A 
ATOM     18  C   UNL     1       1.224   3.582  19.149  0.00  0.00    +0.000 A 
ATOM     19 CL   UNL     1       0.634   2.046  18.643  0.00  0.00    +0.000 Cl
ATOM     20  C   UNL     1       1.850   4.422  18.228  0.00  0.00    +0.000 A 
ENDBRANCH  13  14
ENDBRANCH   6  13
TORSDOF 3
ENDMDL
MODEL 3
REMARK VINA RESULT:      -7.5      1.096      1.478
REMARK  Name = 
REMARK  3 active torsions:
REMARK  status: ('A' for Active; 'I' for Inactive)
REMARK    1  A    between atoms: C_2  and  C_3
REMARK    2  A    between atoms: C_11  and  O_12
REMARK    3  A    between atoms: O_12  and  C_13
REMARK                            x       y       z     vdW  Elec       q    Type
REMARK                         _______ _______ _______ _____ _____    ______ ____
ROOT
ATOM      1  O   UNL     1       8.116   4.237  17.211  0.00  0.00    +0.000 OA
ATOM      2  C   UNL     1       7.152   4.746  16.642  0.00  0.00    +0.000 C 
ATOM      3  N   UNL     1       6.187   5.444  17.359  0.00  0.00    +0.000 N 
ATOM      4  C   UNL     1       6.316   5.663  18.785  0.00  0.00    +0.000 C 
ATOM      5  C   UNL     1       4.885   5.610  19.282  0.00  0.00    +0.000 C 
ATOM      6  C   UNL     1       4.117   6.307  18.157  0.00  0.00    +0.000 C 
ATOM      7  C   UNL     1       4.852   5.814  16.900  0.00  0.00    +0.000 C 
ENDROOT
BRANCH   2   8
ATOM      8  C   UNL     1       6.996   4.631  15.178  0.00  0.00    +0.000 A 
ATOM      9  C   UNL     1       6.153   3.695  14.597  0.00  0.00    +0.000 A 
ATOM     10  S   UNL     1       6.244   3.767  12.889  0.00  0.00    +0.000 S 
ATOM     11  C   UNL     1       7.391   5.029  13.026  0.00  0.00    +0.000 A 
ATOM     12  N   UNL     1       7.704   5.397  14.248  0.00  0.00    +0.000 NA
ENDBRANCH   2   8
BRANCH   6  13
ATOM     13  O   UNL     1       2.755   5.896  18.117  0.00  0.00    +0.000 OA
BRANCH  13  14
ATOM     14  C   UNL     1       2.388   4.780  18.820  0.00  0.00    +0.000 A 
ATOM     15  C   UNL     1       1.451   4.729  19.852  0.00  0.00    +0.000 A 
ATOM     16  C   UNL     1       1.162   3.515  20.483  0.00  0.00    +0.000 A 
ATOM     17  C   UNL     1       1.806   2.346  20.081  0.00  0.00    +0.000 A 
ATOM     18  C   UNL     1       2.741   2.398  19.051  0.00  0.00    +0.000 A 
ATOM     19 CL   UNL     1       3.539   0.957  18.551  0.00  0.00    +0.000 Cl
ATOM     20  C   UNL     1       3.031   3.606  18.417  0.00  0.00    +0.000 A 
ENDBRANCH  13  14
ENDBRANCH   6  13
TORSDOF 3
ENDMDL
MODEL 4
REMARK VINA RESULT:      -7.1      2.694      3.432
REMARK  Name = 
REMARK  3 active torsions:
REMARK  status: ('A' for Active; 'I' for Inactive)
REMARK    1  A    between atoms: C_2  and  C_3
REMARK    2  A    between atoms: C_11  and  O_12
REMARK    3  A    between atoms: O_12  and  C_13
REMARK                            x       y       z     vdW  Elec       q    Type
REMARK                         _______ _______ _______ _____ _____    ______ ____
ROOT
ATOM      1  O   UNL     1       8.091   4.028  17.064  0.00  0.00    +0.000 OA
ATOM      2  C   UNL     1       7.235   4.707  16.500  0.00  0.00    +0.000 C 
ATOM      3  N   UNL     1       6.413   5.563  17.225  0.00  0.00    +0.000 N 
ATOM      4  C   UNL     1       6.581   5.745  18.652  0.00  0.00    +0.000 C 
ATOM      5  C   UNL     1       5.165   5.949  19.152  0.00  0.00    +0.000 C 
ATOM      6  C   UNL     1       4.534   6.781  18.033  0.00  0.00    +0.000 C 
ATOM      7  C   UNL     1       5.167   6.171  16.772  0.00  0.00    +0.000 C 
ENDROOT
BRANCH   2   8
ATOM      8  C   UNL     1       7.058   4.632  15.037  0.00  0.00    +0.000 A 
ATOM      9  C   UNL     1       6.204   3.715  14.442  0.00  0.00    +0.000 A 
ATOM     10  S   UNL     1       6.272   3.833  12.736  0.00  0.00    +0.000 S 
ATOM     11  C   UNL     1       7.426   5.086  12.891  0.00  0.00    +0.000 A 
ATOM     12  N   UNL     1       7.757   5.420  14.118  0.00  0.00    +0.000 NA
ENDBRANCH   2   8
BRANCH   6  13
ATOM     13  O   UNL     1       3.120   6.623  17.994  0.00  0.00    +0.000 OA
BRANCH  13  14
ATOM     14  C   UNL     1       2.334   7.661  18.416  0.00  0.00    +0.000 A 
ATOM     15  C   UNL     1       1.801   8.669  17.612  0.00  0.00    +0.000 A 
ATOM     16  C   UNL     1       1.002   9.670  18.173  0.00  0.00    +0.000 A 
ATOM     17  C   UNL     1       0.729   9.664  19.540  0.00  0.00    +0.000 A 
ATOM     18  C   UNL     1       1.260   8.657  20.341  0.00  0.00    +0.000 A 
ATOM     19 CL   UNL     1       0.926   8.646  22.029  0.00  0.00    +0.000 Cl
ATOM     20  C   UNL     1       2.056   7.656  19.785  0.00  0.00    +0.000 A 
ENDBRANCH  13  14
ENDBRANCH   6  13
TORSDOF 3
ENDMDL
MODEL 5
REMARK VINA RESULT:      -7.1      3.678      6.796
REMARK  Name = 
REMARK  3 active torsions:
REMARK  status: ('A' for Active; 'I' for Inactive)
REMARK    1  A    between atoms: C_2  and  C_3
REMARK    2  A    between atoms: C_11  and  O_12
REMARK    3  A    between atoms: O_12  and  C_13
REMARK                            x       y       z     vdW  Elec       q    Type
REMARK                         _______ _______ _______ _____ _____    ______ ____
ROOT
ATOM      1  O   UNL     1       1.903   6.919  18.065  0.00  0.00    +0.000 OA
ATOM      2  C   UNL     1       2.685   6.014  18.349  0.00  0.00    +0.000 C 
ATOM      3  N   UNL     1       3.950   5.957  17.775  0.00  0.00    +0.000 N 
ATOM      4  C   UNL     1       4.423   6.997  16.884  0.00  0.00    +0.000 C 
ATOM      5  C   UNL     1       5.282   6.244  15.887  0.00  0.00    +0.000 C 
ATOM      6  C   UNL     1       5.966   5.193  16.765  0.00  0.00    +0.000 C 
ATOM      7  C   UNL     1       4.850   4.809  17.749  0.00  0.00    +0.000 C 
ENDROOT
BRANCH   2   8
ATOM      8  C   UNL     1       2.301   4.962  19.311  0.00  0.00    +0.000 A 
ATOM      9  C   UNL     1       1.503   3.887  18.950  0.00  0.00    +0.000 A 
ATOM     10  S   UNL     1       1.181   2.883  20.299  0.00  0.00    +0.000 S 
ATOM     11  C   UNL     1       2.116   3.933  21.274  0.00  0.00    +0.000 A 
ATOM     12  N   UNL     1       2.647   4.968  20.665  0.00  0.00    +0.000 NA
ENDBRANCH   2   8
BRANCH   6  13
ATOM     13  O   UNL     1       6.362   4.054  16.009  0.00  0.00    +0.000 OA
BRANCH  13  14
ATOM     14  C   UNL     1       6.637   4.216  14.678  0.00  0.00    +0.000 A 
ATOM     15  C   UNL     1       7.638   5.024  14.137  0.00  0.00    +0.000 A 
ATOM     16  C   UNL     1       7.818   5.091  12.752  0.00  0.00    +0.000 A 
ATOM     17  C   UNL     1       7.001   4.347  11.902  0.00  0.00    +0.000 A 
ATOM     18  C   UNL     1       6.003   3.541  12.443  0.00  0.00    +0.000 A 
ATOM     19 CL   UNL     1       4.992   2.620  11.398  0.00  0.00    +0.000 Cl
ATOM     20  C   UNL     1       5.822   3.469  13.824  0.00  0.00    +0.000 A 
ENDBRANCH  13  14
ENDBRANCH   6  13
TORSDOF 3
ENDMDL
MODEL 6
REMARK VINA RESULT:      -7.1      4.252      5.470
REMARK  Name = 
REMARK  3 active torsions:
REMARK  status: ('A' for Active; 'I' for Inactive)
REMARK    1  A    between atoms: C_2  and  C_3
REMARK    2  A    between atoms: C_11  and  O_12
REMARK    3  A    between atoms: O_12  and  C_13
REMARK                            x       y       z     vdW  Elec       q    Type
REMARK                         _______ _______ _______ _____ _____    ______ ____
ROOT
ATOM      1  O   UNL     1       3.800   2.429  18.644  0.00  0.00    +0.000 OA
ATOM      2  C   UNL     1       4.163   3.602  18.705  0.00  0.00    +0.000 C 
ATOM      3  N   UNL     1       3.473   4.522  19.487  0.00  0.00    +0.000 N 
ATOM      4  C   UNL     1       2.353   4.122  20.314  0.00  0.00    +0.000 C 
ATOM      5  C   UNL     1       1.429   5.322  20.263  0.00  0.00    +0.000 C 
ATOM      6  C   UNL     1       2.409   6.497  20.283  0.00  0.00    +0.000 C 
ATOM      7  C   UNL     1       3.567   5.976  19.417  0.00  0.00    +0.000 C 
ENDROOT
BRANCH   2   8
ATOM      8  C   UNL     1       5.344   4.065  17.951  0.00  0.00    +0.000 A 
ATOM      9  C   UNL     1       5.337   4.187  16.570  0.00  0.00    +0.000 A 
ATOM     10  S   UNL     1       6.871   4.679  15.990  0.00  0.00    +0.000 S 
ATOM     11  C   UNL     1       7.447   4.698  17.601  0.00  0.00    +0.000 A 
ATOM     12  N   UNL     1       6.579   4.369  18.530  0.00  0.00    +0.000 NA
ENDBRANCH   2   8
BRANCH   6  13
ATOM     13  O   UNL     1       1.845   7.663  19.692  0.00  0.00    +0.000 OA
BRANCH  13  14
ATOM     14  C   UNL     1       1.205   8.562  20.501  0.00  0.00    +0.000 A 
ATOM     15  C   UNL     1       1.242   8.587  21.896  0.00  0.00    +0.000 A 
ATOM     16  C   UNL     1       0.547   9.573  22.603  0.00  0.00    +0.000 A 
ATOM     17  C   UNL     1      -0.186  10.541  21.917  0.00  0.00    +0.000 A 
ATOM     18  C   UNL     1      -0.222  10.516  20.526  0.00  0.00    +0.000 A 
ATOM     19 CL   UNL     1      -1.125  11.709  19.676  0.00  0.00    +0.000 Cl
ATOM     20  C   UNL     1       0.473   9.536  19.817  0.00  0.00    +0.000 A 
ENDBRANCH  13  14
ENDBRANCH   6  13
TORSDOF 3
ENDMDL
MODEL 7
REMARK VINA RESULT:      -7.0      3.953      5.249
REMARK  Name = 
REMARK  3 active torsions:
REMARK  status: ('A' for Active; 'I' for Inactive)
REMARK    1  A    between atoms: C_2  and  C_3
REMARK    2  A    between atoms: C_11  and  O_12
REMARK    3  A    between atoms: O_12  and  C_13
REMARK                            x       y       z     vdW  Elec       q    Type
REMARK                         _______ _______ _______ _____ _____    ______ ____
ROOT
ATOM      1  O   UNL     1       4.201   2.530  19.301  0.00  0.00    +0.000 OA
ATOM      2  C   UNL     1       4.422   3.719  19.084  0.00  0.00    +0.000 C 
ATOM      3  N   UNL     1       3.645   4.709  19.674  0.00  0.00    +0.000 N 
ATOM      4  C   UNL     1       2.598   4.384  20.621  0.00  0.00    +0.000 C 
ATOM      5  C   UNL     1       1.536   5.431  20.348  0.00  0.00    +0.000 C 
ATOM      6  C   UNL     1       2.369   6.682  20.061  0.00  0.00    +0.000 C 
ATOM      7  C   UNL     1       3.562   6.111  19.277  0.00  0.00    +0.000 C 
ENDROOT
BRANCH   2   8
ATOM      8  C   UNL     1       5.524   4.128  18.190  0.00  0.00    +0.000 A 
ATOM      9  C   UNL     1       5.391   4.135  16.810  0.00  0.00    +0.000 A 
ATOM     10  S   UNL     1       6.858   4.590  16.055  0.00  0.00    +0.000 S 
ATOM     11  C   UNL     1       7.577   4.749  17.601  0.00  0.00    +0.000 A 
ATOM     12  N   UNL     1       6.801   4.490  18.628  0.00  0.00    +0.000 NA
ENDBRANCH   2   8
BRANCH   6  13
ATOM     13  O   UNL     1       1.658   7.613  19.253  0.00  0.00    +0.000 OA
BRANCH  13  14
ATOM     14  C   UNL     1       1.241   8.786  19.820  0.00  0.00    +0.000 A 
ATOM     15  C   UNL     1       1.178  10.029  19.189  0.00  0.00    +0.000 A 
ATOM     16  C   UNL     1       0.722  11.152  19.886  0.00  0.00    +0.000 A 
ATOM     17  C   UNL     1       0.321  11.036  21.216  0.00  0.00    +0.000 A 
ATOM     18  C   UNL     1       0.383   9.795  21.845  0.00  0.00    +0.000 A 
ATOM     19 CL   UNL     1      -0.109   9.647  23.487  0.00  0.00    +0.000 Cl
ATOM     20  C   UNL     1       0.836   8.672  21.153  0.00  0.00    +0.000 A 
ENDBRANCH  13  14
ENDBRANCH   6  13
TORSDOF 3
ENDMDL
MODEL 8
REMARK VINA RESULT:      -6.7      4.012      6.513
REMARK  Name = 
REMARK  3 active torsions:
REMARK  status: ('A' for Active; 'I' for Inactive)
REMARK    1  A    between atoms: C_2  and  C_3
REMARK    2  A    between atoms: C_11  and  O_12
REMARK    3  A    between atoms: O_12  and  C_13
REMARK                            x       y       z     vdW  Elec       q    Type
REMARK                         _______ _______ _______ _____ _____    ______ ____
ROOT
ATOM      1  O   UNL     1       6.440   5.354  19.837  0.00  0.00    +0.000 OA
ATOM      2  C   UNL     1       5.680   4.770  19.067  0.00  0.00    +0.000 C 
ATOM      3  N   UNL     1       6.100   4.403  17.793  0.00  0.00    +0.000 N 
ATOM      4  C   UNL     1       7.463   4.625  17.353  0.00  0.00    +0.000 C 
ATOM      5  C   UNL     1       7.310   4.938  15.877  0.00  0.00    +0.000 C 
ATOM      6  C   UNL     1       6.188   3.989  15.450  0.00  0.00    +0.000 C 
ATOM      7  C   UNL     1       5.254   4.014  16.670  0.00  0.00    +0.000 C 
ENDROOT
BRANCH   2   8
ATOM      8  C   UNL     1       4.301   4.440  19.476  0.00  0.00    +0.000 A 
ATOM      9  C   UNL     1       3.327   5.414  19.641  0.00  0.00    +0.000 A 
ATOM     10  S   UNL     1       1.858   4.724  20.184  0.00  0.00    +0.000 S 
ATOM     11  C   UNL     1       2.602   3.183  20.166  0.00  0.00    +0.000 A 
ATOM     12  N   UNL     1       3.858   3.151  19.784  0.00  0.00    +0.000 NA
ENDBRANCH   2   8
BRANCH   6  13
ATOM     13  O   UNL     1       5.501   4.472  14.301  0.00  0.00    +0.000 OA
BRANCH  13  14
ATOM     14  C   UNL     1       5.530   3.720  13.158  0.00  0.00    +0.000 A 
ATOM     15  C   UNL     1       6.561   2.870  12.757  0.00  0.00    +0.000 A 
ATOM     16  C   UNL     1       6.458   2.149  11.564  0.00  0.00    +0.000 A 
ATOM     17  C   UNL     1       5.320   2.272  10.768  0.00  0.00    +0.000 A 
ATOM     18  C   UNL     1       4.291   3.120  11.168  0.00  0.00    +0.000 A 
ATOM     19 CL   UNL     1       2.885   3.275  10.188  0.00  0.00    +0.000 Cl
ATOM     20  C   UNL     1       4.390   3.839  12.359  0.00  0.00    +0.000 A 
ENDBRANCH  13  14
ENDBRANCH   6  13
TORSDOF 3
ENDMDL
MODEL 9
REMARK VINA RESULT:      -6.6      1.988      2.401
REMARK  Name = 
REMARK  3 active torsions:
REMARK  status: ('A' for Active; 'I' for Inactive)
REMARK    1  A    between atoms: C_2  and  C_3
REMARK    2  A    between atoms: C_11  and  O_12
REMARK    3  A    between atoms: O_12  and  C_13
REMARK                            x       y       z     vdW  Elec       q    Type
REMARK                         _______ _______ _______ _____ _____    ______ ____
ROOT
ATOM      1  O   UNL     1       7.999   5.416  14.236  0.00  0.00    +0.000 OA
ATOM      2  C   UNL     1       6.912   4.888  14.462  0.00  0.00    +0.000 C 
ATOM      3  N   UNL     1       6.280   5.054  15.690  0.00  0.00    +0.000 N 
ATOM      4  C   UNL     1       6.837   5.910  16.718  0.00  0.00    +0.000 C 
ATOM      5  C   UNL     1       6.463   5.204  18.006  0.00  0.00    +0.000 C 
ATOM      6  C   UNL     1       5.062   4.672  17.699  0.00  0.00    +0.000 C 
ATOM      7  C   UNL     1       5.183   4.254  16.225  0.00  0.00    +0.000 C 
ENDROOT
BRANCH   2   8
ATOM      8  C   UNL     1       6.247   4.066  13.433  0.00  0.00    +0.000 A 
ATOM      9  C   UNL     1       6.959   3.252  12.565  0.00  0.00    +0.000 A 
ATOM     10  S   UNL     1       5.913   2.483  11.449  0.00  0.00    +0.000 S 
ATOM     11  C   UNL     1       4.586   3.274  12.184  0.00  0.00    +0.000 A 
ATOM     12  N   UNL     1       4.870   4.062  13.196  0.00  0.00    +0.000 NA
ENDBRANCH   2   8
BRANCH   6  13
ATOM     13  O   UNL     1       4.743   3.540  18.500  0.00  0.00    +0.000 OA
BRANCH  13  14
ATOM     14  C   UNL     1       3.562   3.540  19.193  0.00  0.00    +0.000 A 
ATOM     15  C   UNL     1       2.794   2.420  19.512  0.00  0.00    +0.000 A 
ATOM     16  C   UNL     1       1.607   2.562  20.237  0.00  0.00    +0.000 A 
ATOM     17  C   UNL     1       1.184   3.825  20.648  0.00  0.00    +0.000 A 
ATOM     18  C   UNL     1       1.950   4.942  20.329  0.00  0.00    +0.000 A 
ATOM     19 CL   UNL     1       1.432   6.504  20.835  0.00  0.00    +0.000 Cl
ATOM     20  C   UNL     1       3.137   4.805  19.609  0.00  0.00    +0.000 A 
ENDBRANCH  13  14
ENDBRANCH   6  13
TORSDOF 3
ENDMDL
