MODEL 1
REMARK VINA RESULT:      -9.1      0.000      0.000
REMARK  Name = 
REMARK  4 active torsions:
REMARK  status: ('A' for Active; 'I' for Inactive)
REMARK    1  A    between atoms: C_1  and  C_2
REMARK    2  A    between atoms: C_2  and  C_3
REMARK    3  A    between atoms: N_7  and  C_8
REMARK    4  A    between atoms: C_8  and  C_9
REMARK                            x       y       z     vdW  Elec       q    Type
REMARK                         _______ _______ _______ _____ _____    ______ ____
ROOT
ATOM      1  C   UNL     1       5.199   4.389  17.550  0.00  0.00    +0.000 C 
ATOM      2  C   UNL     1       4.289   3.202  17.191  0.00  0.00    +0.000 C 
ATOM      3  C   UNL     1       2.811   3.575  17.147  0.00  0.00    +0.000 C 
ATOM      4  C   UNL     1       2.359   4.437  18.333  0.00  0.00    +0.000 C 
ATOM      5  N   UNL     1       3.291   5.532  18.652  0.00  0.00    +0.000 NA
ATOM      6  C   UNL     1       4.648   5.015  18.848  0.00  0.00    +0.000 C 
ENDROOT
BRANCH   1   8
ATOM      7  C   UNL     1       4.673   6.695  16.530  0.00  0.00    +0.000 C 
ATOM      8  C   UNL     1       5.490   5.409  16.398  0.00  0.00    +0.000 C 
ATOM      9  N   UNL     1       5.225   4.769  15.114  0.00  0.00    +0.000 N 
ATOM     10  C   UNL     1       6.387   4.458  14.447  0.00  0.00    +0.000 C 
ATOM     11  O   UNL     1       6.456   3.746  13.459  0.00  0.00    +0.000 OA
ATOM     12  N   UNL     1       7.415   5.070  15.067  0.00  0.00    +0.000 N 
ATOM     13  C   UNL     1       6.972   5.771  16.146  0.00  0.00    +0.000 C 
ATOM     14  O   UNL     1       7.647   6.581  16.760  0.00  0.00    +0.000 OA
ATOM     15  H   UNL     1       4.355   4.328  14.844  0.00  0.00    +0.000 HD
ATOM     16  H   UNL     1       8.360   5.088  14.733  0.00  0.00    +0.000 HD
ENDBRANCH   1   8
BRANCH   5  17
ATOM     17  C   UNL     1       2.867   6.280  19.854  0.00  0.00    +0.000 C 
BRANCH  17  18
ATOM     18  C   UNL     1       2.100   7.553  19.558  0.00  0.00    +0.000 A 
ATOM     19  C   UNL     1       2.132   8.107  18.260  0.00  0.00    +0.000 A 
ATOM     20  C   UNL     1       1.505   9.317  17.966  0.00  0.00    +0.000 A 
ATOM     21  C   UNL     1       0.827   9.960  18.982  0.00  0.00    +0.000 A 
ATOM     22  C   UNL     1       0.752   9.408  20.266  0.00  0.00    +0.000 A 
ATOM     23  C   UNL     1       1.398   8.220  20.574  0.00  0.00    +0.000 A 
ATOM     24  C   UNL     1      -0.048  10.292  21.172  0.00  0.00    +0.000 C 
ATOM     25  C   UNL     1      -0.784  11.173  20.149  0.00  0.00    +0.000 C 
ATOM     26  C   UNL     1       0.147  11.291  18.936  0.00  0.00    +0.000 C 
ENDBRANCH  17  18
ENDBRANCH   5  17
TORSDOF 3
ENDMDL
MODEL 2
REMARK VINA RESULT:      -8.9      3.209      7.161
REMARK  Name = 
REMARK  4 active torsions:
REMARK  status: ('A' for Active; 'I' for Inactive)
REMARK    1  A    between atoms: C_1  and  C_2
REMARK    2  A    between atoms: C_2  and  C_3
REMARK    3  A    between atoms: N_7  and  C_8
REMARK    4  A    between atoms: C_8  and  C_9
REMARK                            x       y       z     vdW  Elec       q    Type
REMARK                         _______ _______ _______ _____ _____    ______ ____
ROOT
ATOM      1  C   UNL     1       2.996   5.127  20.057  0.00  0.00    +0.000 C 
ATOM      2  C   UNL     1       2.455   6.525  19.712  0.00  0.00    +0.000 C 
ATOM      3  C   UNL     1       2.657   6.898  18.247  0.00  0.00    +0.000 C 
ATOM      4  C   UNL     1       4.059   6.567  17.717  0.00  0.00    +0.000 C 
ATOM      5  N   UNL     1       4.537   5.233  18.114  0.00  0.00    +0.000 NA
ATOM      6  C   UNL     1       4.458   5.066  19.568  0.00  0.00    +0.000 C 
ENDROOT
BRANCH   1   8
ATOM      7  C   UNL     1       0.751   3.897  20.335  0.00  0.00    +0.000 C 
ATOM      8  C   UNL     1       2.104   3.915  19.625  0.00  0.00    +0.000 C 
ATOM      9  N   UNL     1       2.828   2.674  19.880  0.00  0.00    +0.000 N 
ATOM     10  C   UNL     1       3.287   2.100  18.717  0.00  0.00    +0.000 C 
ATOM     11  O   UNL     1       4.084   1.178  18.661  0.00  0.00    +0.000 OA
ATOM     12  N   UNL     1       2.709   2.726  17.673  0.00  0.00    +0.000 N 
ATOM     13  C   UNL     1       1.886   3.718  18.107  0.00  0.00    +0.000 C 
ATOM     14  O   UNL     1       1.083   4.301  17.397  0.00  0.00    +0.000 OA
ATOM     15  H   UNL     1       3.219   2.392  20.771  0.00  0.00    +0.000 HD
ATOM     16  H   UNL     1       2.795   2.444  16.715  0.00  0.00    +0.000 HD
ENDBRANCH   1   8
BRANCH   5  17
ATOM     17  C   UNL     1       5.923   4.989  17.662  0.00  0.00    +0.000 C 
BRANCH  17  18
ATOM     18  C   UNL     1       6.053   4.694  16.182  0.00  0.00    +0.000 A 
ATOM     19  C   UNL     1       5.205   3.740  15.578  0.00  0.00    +0.000 A 
ATOM     20  C   UNL     1       5.344   3.383  14.238  0.00  0.00    +0.000 A 
ATOM     21  C   UNL     1       6.330   4.006  13.499  0.00  0.00    +0.000 A 
ATOM     22  C   UNL     1       7.155   4.981  14.070  0.00  0.00    +0.000 A 
ATOM     23  C   UNL     1       7.043   5.320  15.409  0.00  0.00    +0.000 A 
ATOM     24  C   UNL     1       8.126   5.506  13.057  0.00  0.00    +0.000 C 
ATOM     25  C   UNL     1       7.466   5.042  11.748  0.00  0.00    +0.000 C 
ATOM     26  C   UNL     1       6.721   3.743  12.080  0.00  0.00    +0.000 C 
ENDBRANCH  17  18
ENDBRANCH   5  17
TORSDOF 3
ENDMDL
MODEL 3
REMARK VINA RESULT:      -8.8      3.327      7.135
REMARK  Name = 
REMARK  4 active torsions:
REMARK  status: ('A' for Active; 'I' for Inactive)
REMARK    1  A    between atoms: C_1  and  C_2
REMARK    2  A    between atoms: C_2  and  C_3
REMARK    3  A    between atoms: N_7  and  C_8
REMARK    4  A    between atoms: C_8  and  C_9
REMARK                            x       y       z     vdW  Elec       q    Type
REMARK                         _______ _______ _______ _____ _____    ______ ____
ROOT
ATOM      1  C   UNL     1       2.996   5.034  19.923  0.00  0.00    +0.000 C 
ATOM      2  C   UNL     1       2.589   6.437  19.445  0.00  0.00    +0.000 C 
ATOM      3  C   UNL     1       2.938   6.694  17.982  0.00  0.00    +0.000 C 
ATOM      4  C   UNL     1       4.350   6.235  17.598  0.00  0.00    +0.000 C 
ATOM      5  N   UNL     1       4.696   4.901  18.118  0.00  0.00    +0.000 NA
ATOM      6  C   UNL     1       4.486   4.841  19.568  0.00  0.00    +0.000 C 
ENDROOT
BRANCH   1   8
ATOM      7  C   UNL     1       0.706   3.891  20.205  0.00  0.00    +0.000 C 
ATOM      8  C   UNL     1       2.058   3.858  19.492  0.00  0.00    +0.000 C 
ATOM      9  N   UNL     1       2.733   2.589  19.745  0.00  0.00    +0.000 N 
ATOM     10  C   UNL     1       3.167   1.999  18.580  0.00  0.00    +0.000 C 
ATOM     11  O   UNL     1       3.927   1.047  18.521  0.00  0.00    +0.000 OA
ATOM     12  N   UNL     1       2.611   2.647  17.538  0.00  0.00    +0.000 N 
ATOM     13  C   UNL     1       1.828   3.670  17.974  0.00  0.00    +0.000 C 
ATOM     14  O   UNL     1       1.047   4.285  17.266  0.00  0.00    +0.000 OA
ATOM     15  H   UNL     1       3.115   2.292  20.634  0.00  0.00    +0.000 HD
ATOM     16  H   UNL     1       2.684   2.363  16.579  0.00  0.00    +0.000 HD
ENDBRANCH   1   8
BRANCH   5  17
ATOM     17  C   UNL     1       6.092   4.534  17.805  0.00  0.00    +0.000 C 
BRANCH  17  18
ATOM     18  C   UNL     1       6.413   4.507  16.324  0.00  0.00    +0.000 A 
ATOM     19  C   UNL     1       7.514   5.239  15.830  0.00  0.00    +0.000 A 
ATOM     20  C   UNL     1       7.795   5.303  14.466  0.00  0.00    +0.000 A 
ATOM     21  C   UNL     1       6.974   4.610  13.600  0.00  0.00    +0.000 A 
ATOM     22  C   UNL     1       5.900   3.849  14.074  0.00  0.00    +0.000 A 
ATOM     23  C   UNL     1       5.595   3.803  15.426  0.00  0.00    +0.000 A 
ATOM     24  C   UNL     1       5.180   3.190  12.938  0.00  0.00    +0.000 C 
ATOM     25  C   UNL     1       6.229   3.304  11.819  0.00  0.00    +0.000 C 
ATOM     26  C   UNL     1       7.024   4.585  12.106  0.00  0.00    +0.000 C 
ENDBRANCH  17  18
ENDBRANCH   5  17
TORSDOF 3
ENDMDL
MODEL 4
REMARK VINA RESULT:      -8.7      1.331      1.673
REMARK  Name = 
REMARK  4 active torsions:
REMARK  status: ('A' for Active; 'I' for Inactive)
REMARK    1  A    between atoms: C_1  and  C_2
REMARK    2  A    between atoms: C_2  and  C_3
REMARK    3  A    between atoms: N_7  and  C_8
REMARK    4  A    between atoms: C_8  and  C_9
REMARK                            x       y       z     vdW  Elec       q    Type
REMARK                         _______ _______ _______ _____ _____    ______ ____
ROOT
ATOM      1  C   UNL     1       5.264   4.205  18.669  0.00  0.00    +0.000 C 
ATOM      2  C   UNL     1       4.519   3.376  17.609  0.00  0.00    +0.000 C 
ATOM      3  C   UNL     1       3.377   4.141  16.949  0.00  0.00    +0.000 C 
ATOM      4  C   UNL     1       2.497   4.910  17.943  0.00  0.00    +0.000 C 
ATOM      5  N   UNL     1       3.267   5.651  18.957  0.00  0.00    +0.000 NA
ATOM      6  C   UNL     1       4.206   4.761  19.645  0.00  0.00    +0.000 C 
ENDROOT
BRANCH   1   8
ATOM      7  C   UNL     1       7.244   5.759  19.209  0.00  0.00    +0.000 C 
ATOM      8  C   UNL     1       6.283   5.263  18.129  0.00  0.00    +0.000 C 
ATOM      9  N   UNL     1       5.549   6.383  17.550  0.00  0.00    +0.000 N 
ATOM     10  C   UNL     1       5.603   6.374  16.175  0.00  0.00    +0.000 C 
ATOM     11  O   UNL     1       4.916   7.071  15.445  0.00  0.00    +0.000 OA
ATOM     12  N   UNL     1       6.532   5.479  15.787  0.00  0.00    +0.000 N 
ATOM     13  C   UNL     1       7.091   4.872  16.869  0.00  0.00    +0.000 C 
ATOM     14  O   UNL     1       8.095   4.180  16.823  0.00  0.00    +0.000 OA
ATOM     15  H   UNL     1       4.843   6.933  18.023  0.00  0.00    +0.000 HD
ATOM     16  H   UNL     1       6.840   5.342  14.843  0.00  0.00    +0.000 HD
ENDBRANCH   1   8
BRANCH   5  17
ATOM     17  C   UNL     1       2.385   6.303  19.947  0.00  0.00    +0.000 C 
BRANCH  17  18
ATOM     18  C   UNL     1       1.931   7.694  19.557  0.00  0.00    +0.000 A 
ATOM     19  C   UNL     1       2.259   8.210  18.285  0.00  0.00    +0.000 A 
ATOM     20  C   UNL     1       1.927   9.513  17.917  0.00  0.00    +0.000 A 
ATOM     21  C   UNL     1       1.245  10.292  18.830  0.00  0.00    +0.000 A 
ATOM     22  C   UNL     1       0.879   9.786  20.082  0.00  0.00    +0.000 A 
ATOM     23  C   UNL     1       1.230   8.502  20.467  0.00  0.00    +0.000 A 
ATOM     24  C   UNL     1       0.141  10.824  20.872  0.00  0.00    +0.000 C 
ATOM     25  C   UNL     1      -0.253  11.813  19.763  0.00  0.00    +0.000 C 
ATOM     26  C   UNL     1       0.850  11.728  18.700  0.00  0.00    +0.000 C 
ENDBRANCH  17  18
ENDBRANCH   5  17
TORSDOF 3
ENDMDL
MODEL 5
REMARK VINA RESULT:      -8.6      3.021      7.529
REMARK  Name = 
REMARK  4 active torsions:
REMARK  status: ('A' for Active; 'I' for Inactive)
REMARK    1  A    between atoms: C_1  and  C_2
REMARK    2  A    between atoms: C_2  and  C_3
REMARK    3  A    between atoms: N_7  and  C_8
REMARK    4  A    between atoms: C_8  and  C_9
REMARK                            x       y       z     vdW  Elec       q    Type
REMARK                         _______ _______ _______ _____ _____    ______ ____
ROOT
ATOM      1  C   UNL     1       3.048   5.514  19.958  0.00  0.00    +0.000 C 
ATOM      2  C   UNL     1       2.386   6.860  19.622  0.00  0.00    +0.000 C 
ATOM      3  C   UNL     1       2.516   7.238  18.150  0.00  0.00    +0.000 C 
ATOM      4  C   UNL     1       3.924   7.019  17.581  0.00  0.00    +0.000 C 
ATOM      5  N   UNL     1       4.520   5.730  17.971  0.00  0.00    +0.000 NA
ATOM      6  C   UNL     1       4.496   5.568  19.427  0.00  0.00    +0.000 C 
ENDROOT
BRANCH   1   8
ATOM      7  C   UNL     1       1.510   4.388  18.227  0.00  0.00    +0.000 C 
ATOM      8  C   UNL     1       2.247   4.231  19.557  0.00  0.00    +0.000 C 
ATOM      9  N   UNL     1       1.305   3.902  20.622  0.00  0.00    +0.000 N 
ATOM     10  C   UNL     1       1.713   2.806  21.347  0.00  0.00    +0.000 C 
ATOM     11  O   UNL     1       1.222   2.447  22.404  0.00  0.00    +0.000 OA
ATOM     12  N   UNL     1       2.730   2.213  20.692  0.00  0.00    +0.000 N 
ATOM     13  C   UNL     1       3.026   2.895  19.553  0.00  0.00    +0.000 C 
ATOM     14  O   UNL     1       3.754   2.471  18.670  0.00  0.00    +0.000 OA
ATOM     15  H   UNL     1       0.605   4.527  21.003  0.00  0.00    +0.000 HD
ATOM     16  H   UNL     1       3.150   1.341  20.951  0.00  0.00    +0.000 HD
ENDBRANCH   1   8
BRANCH   5  17
ATOM     17  C   UNL     1       5.908   5.596  17.480  0.00  0.00    +0.000 C 
BRANCH  17  18
ATOM     18  C   UNL     1       6.021   5.061  16.068  0.00  0.00    +0.000 A 
ATOM     19  C   UNL     1       5.155   4.034  15.634  0.00  0.00    +0.000 A 
ATOM     20  C   UNL     1       5.277   3.461  14.369  0.00  0.00    +0.000 A 
ATOM     21  C   UNL     1       6.265   3.940  13.532  0.00  0.00    +0.000 A 
ATOM     22  C   UNL     1       7.109   4.983  13.930  0.00  0.00    +0.000 A 
ATOM     23  C   UNL     1       7.013   5.538  15.197  0.00  0.00    +0.000 A 
ATOM     24  C   UNL     1       8.078   5.320  12.839  0.00  0.00    +0.000 C 
ATOM     25  C   UNL     1       7.399   4.659  11.628  0.00  0.00    +0.000 C 
ATOM     26  C   UNL     1       6.640   3.442  12.173  0.00  0.00    +0.000 C 
ENDBRANCH  17  18
ENDBRANCH   5  17
TORSDOF 3
ENDMDL
MODEL 6
REMARK VINA RESULT:      -8.5      1.996      2.886
REMARK  Name = 
REMARK  4 active torsions:
REMARK  status: ('A' for Active; 'I' for Inactive)
REMARK    1  A    between atoms: C_1  and  C_2
REMARK    2  A    between atoms: C_2  and  C_3
REMARK    3  A    between atoms: N_7  and  C_8
REMARK    4  A    between atoms: C_8  and  C_9
REMARK                            x       y       z     vdW  Elec       q    Type
REMARK                         _______ _______ _______ _____ _____    ______ ____
ROOT
ATOM      1  C   UNL     1       4.190   3.146  18.441  0.00  0.00    +0.000 C 
ATOM      2  C   UNL     1       3.056   2.581  17.569  0.00  0.00    +0.000 C 
ATOM      3  C   UNL     1       1.951   3.596  17.295  0.00  0.00    +0.000 C 
ATOM      4  C   UNL     1       1.517   4.382  18.539  0.00  0.00    +0.000 C 
ATOM      5  N   UNL     1       2.645   4.862  19.354  0.00  0.00    +0.000 NA
ATOM      6  C   UNL     1       3.541   3.755  19.702  0.00  0.00    +0.000 C 
ENDROOT
BRANCH   1   8
ATOM      7  C   UNL     1       5.503   3.634  16.280  0.00  0.00    +0.000 C 
ATOM      8  C   UNL     1       5.221   4.075  17.717  0.00  0.00    +0.000 C 
ATOM      9  N   UNL     1       6.459   4.109  18.489  0.00  0.00    +0.000 N 
ATOM     10  C   UNL     1       6.615   5.304  19.153  0.00  0.00    +0.000 C 
ATOM     11  O   UNL     1       7.448   5.518  20.018  0.00  0.00    +0.000 OA
ATOM     12  N   UNL     1       5.702   6.178  18.686  0.00  0.00    +0.000 N 
ATOM     13  C   UNL     1       4.924   5.592  17.734  0.00  0.00    +0.000 C 
ATOM     14  O   UNL     1       4.165   6.203  17.000  0.00  0.00    +0.000 OA
ATOM     15  H   UNL     1       7.002   3.302  18.769  0.00  0.00    +0.000 HD
ATOM     16  H   UNL     1       5.658   7.149  18.930  0.00  0.00    +0.000 HD
ENDBRANCH   1   8
BRANCH   5  17
ATOM     17  C   UNL     1       2.186   5.533  20.588  0.00  0.00    +0.000 C 
BRANCH  17  18
ATOM     18  C   UNL     1       1.763   6.975  20.393  0.00  0.00    +0.000 A 
ATOM     19  C   UNL     1       0.955   7.608  21.362  0.00  0.00    +0.000 A 
ATOM     20  C   UNL     1       0.480   8.906  21.183  0.00  0.00    +0.000 A 
ATOM     21  C   UNL     1       0.838   9.575  20.030  0.00  0.00    +0.000 A 
ATOM     22  C   UNL     1       1.668   8.978  19.074  0.00  0.00    +0.000 A 
ATOM     23  C   UNL     1       2.121   7.677  19.231  0.00  0.00    +0.000 A 
ATOM     24  C   UNL     1       1.913   9.915  17.931  0.00  0.00    +0.000 C 
ATOM     25  C   UNL     1       1.495  11.256  18.556  0.00  0.00    +0.000 C 
ATOM     26  C   UNL     1       0.398  10.931  19.578  0.00  0.00    +0.000 C 
ENDBRANCH  17  18
ENDBRANCH   5  17
TORSDOF 3
ENDMDL
MODEL 7
REMARK VINA RESULT:      -8.5      1.659      2.209
REMARK  Name = 
REMARK  4 active torsions:
REMARK  status: ('A' for Active; 'I' for Inactive)
REMARK    1  A    between atoms: C_1  and  C_2
REMARK    2  A    between atoms: C_2  and  C_3
REMARK    3  A    between atoms: N_7  and  C_8
REMARK    4  A    between atoms: C_8  and  C_9
REMARK                            x       y       z     vdW  Elec       q    Type
REMARK                         _______ _______ _______ _____ _____    ______ ____
ROOT
ATOM      1  C   UNL     1       4.494   3.433  18.301  0.00  0.00    +0.000 C 
ATOM      2  C   UNL     1       3.318   2.774  17.562  0.00  0.00    +0.000 C 
ATOM      3  C   UNL     1       2.224   3.765  17.177  0.00  0.00    +0.000 C 
ATOM      4  C   UNL     1       1.852   4.737  18.303  0.00  0.00    +0.000 C 
ATOM      5  N   UNL     1       3.019   5.304  18.999  0.00  0.00    +0.000 NA
ATOM      6  C   UNL     1       3.904   4.239  19.478  0.00  0.00    +0.000 C 
ENDROOT
BRANCH   1   8
ATOM      7  C   UNL     1       5.604   3.664  15.990  0.00  0.00    +0.000 C 
ATOM      8  C   UNL     1       5.516   4.217  17.412  0.00  0.00    +0.000 C 
ATOM      9  N   UNL     1       6.828   4.186  18.051  0.00  0.00    +0.000 N 
ATOM     10  C   UNL     1       7.154   5.400  18.609  0.00  0.00    +0.000 C 
ATOM     11  O   UNL     1       8.090   5.590  19.368  0.00  0.00    +0.000 OA
ATOM     12  N   UNL     1       6.274   6.323  18.176  0.00  0.00    +0.000 N 
ATOM     13  C   UNL     1       5.352   5.753  17.352  0.00  0.00    +0.000 C 
ATOM     14  O   UNL     1       4.573   6.384  16.657  0.00  0.00    +0.000 OA
ATOM     15  H   UNL     1       7.327   3.351  18.331  0.00  0.00    +0.000 HD
ATOM     16  H   UNL     1       6.338   7.307  18.354  0.00  0.00    +0.000 HD
ENDBRANCH   1   8
BRANCH   5  17
ATOM     17  C   UNL     1       2.619   6.163  20.133  0.00  0.00    +0.000 C 
BRANCH  17  18
ATOM     18  C   UNL     1       2.046   7.505  19.727  0.00  0.00    +0.000 A 
ATOM     19  C   UNL     1       2.326   8.031  18.447  0.00  0.00    +0.000 A 
ATOM     20  C   UNL     1       1.883   9.296  18.064  0.00  0.00    +0.000 A 
ATOM     21  C   UNL     1       1.137  10.024  18.969  0.00  0.00    +0.000 A 
ATOM     22  C   UNL     1       0.817   9.505  20.228  0.00  0.00    +0.000 A 
ATOM     23  C   UNL     1       1.278   8.260  20.628  0.00  0.00    +0.000 A 
ATOM     24  C   UNL     1      -0.007  10.484  21.007  0.00  0.00    +0.000 C 
ATOM     25  C   UNL     1      -0.487  11.421  19.886  0.00  0.00    +0.000 C 
ATOM     26  C   UNL     1       0.618  11.419  18.822  0.00  0.00    +0.000 C 
ENDBRANCH  17  18
ENDBRANCH   5  17
TORSDOF 3
ENDMDL
MODEL 8
REMARK VINA RESULT:      -8.5      0.855      1.575
REMARK  Name = 
REMARK  4 active torsions:
REMARK  status: ('A' for Active; 'I' for Inactive)
REMARK    1  A    between atoms: C_1  and  C_2
REMARK    2  A    between atoms: C_2  and  C_3
REMARK    3  A    between atoms: N_7  and  C_8
REMARK    4  A    between atoms: C_8  and  C_9
REMARK                            x       y       z     vdW  Elec       q    Type
REMARK                         _______ _______ _______ _____ _____    ______ ____
ROOT
ATOM      1  C   UNL     1       4.880   3.981  18.020  0.00  0.00    +0.000 C 
ATOM      2  C   UNL     1       3.933   2.983  17.334  0.00  0.00    +0.000 C 
ATOM      3  C   UNL     1       2.512   3.516  17.183  0.00  0.00    +0.000 C 
ATOM      4  C   UNL     1       1.973   4.195  18.449  0.00  0.00    +0.000 C 
ATOM      5  N   UNL     1       2.940   5.108  19.082  0.00  0.00    +0.000 NA
ATOM      6  C   UNL     1       4.209   4.421  19.338  0.00  0.00    +0.000 C 
ENDROOT
BRANCH   1   8
ATOM      7  C   UNL     1       4.736   6.486  17.442  0.00  0.00    +0.000 C 
ATOM      8  C   UNL     1       5.413   5.152  17.128  0.00  0.00    +0.000 C 
ATOM      9  N   UNL     1       5.227   4.807  15.723  0.00  0.00    +0.000 N 
ATOM     10  C   UNL     1       6.416   4.477  15.115  0.00  0.00    +0.000 C 
ATOM     11  O   UNL     1       6.517   3.961  14.014  0.00  0.00    +0.000 OA
ATOM     12  N   UNL     1       7.428   4.819  15.936  0.00  0.00    +0.000 N 
ATOM     13  C   UNL     1       6.946   5.356  17.089  0.00  0.00    +0.000 C 
ATOM     14  O   UNL     1       7.632   5.940  17.912  0.00  0.00    +0.000 OA
ATOM     15  H   UNL     1       4.350   4.543  15.292  0.00  0.00    +0.000 HD
ATOM     16  H   UNL     1       8.401   4.776  15.698  0.00  0.00    +0.000 HD
ENDBRANCH   1   8
BRANCH   5  17
ATOM     17  C   UNL     1       2.418   5.671  20.345  0.00  0.00    +0.000 C 
BRANCH  17  18
ATOM     18  C   UNL     1       1.894   7.087  20.226  0.00  0.00    +0.000 A 
ATOM     19  C   UNL     1       1.087   7.627  21.252  0.00  0.00    +0.000 A 
ATOM     20  C   UNL     1       0.521   8.896  21.145  0.00  0.00    +0.000 A 
ATOM     21  C   UNL     1       0.786   9.631  20.007  0.00  0.00    +0.000 A 
ATOM     22  C   UNL     1       1.613   9.129  18.996  0.00  0.00    +0.000 A 
ATOM     23  C   UNL     1       2.156   7.856  19.081  0.00  0.00    +0.000 A 
ATOM     24  C   UNL     1       1.747  10.124  17.884  0.00  0.00    +0.000 C 
ATOM     25  C   UNL     1       1.269  11.409  18.580  0.00  0.00    +0.000 C 
ATOM     26  C   UNL     1       0.239  10.971  19.629  0.00  0.00    +0.000 C 
ENDBRANCH  17  18
ENDBRANCH   5  17
TORSDOF 3
ENDMDL
MODEL 9
REMARK VINA RESULT:      -8.4      3.294      7.093
REMARK  Name = 
REMARK  4 active torsions:
REMARK  status: ('A' for Active; 'I' for Inactive)
REMARK    1  A    between atoms: C_1  and  C_2
REMARK    2  A    between atoms: C_2  and  C_3
REMARK    3  A    between atoms: N_7  and  C_8
REMARK    4  A    between atoms: C_8  and  C_9
REMARK                            x       y       z     vdW  Elec       q    Type
REMARK                         _______ _______ _______ _____ _____    ______ ____
ROOT
ATOM      1  C   UNL     1       3.151   4.991  19.998  0.00  0.00    +0.000 C 
ATOM      2  C   UNL     1       2.235   6.089  19.432  0.00  0.00    +0.000 C 
ATOM      3  C   UNL     1       2.383   6.271  17.925  0.00  0.00    +0.000 C 
ATOM      4  C   UNL     1       3.842   6.300  17.451  0.00  0.00    +0.000 C 
ATOM      5  N   UNL     1       4.678   5.251  18.058  0.00  0.00    +0.000 NA
ATOM      6  C   UNL     1       4.586   5.298  19.520  0.00  0.00    +0.000 C 
ENDROOT
BRANCH   1   8
ATOM      7  C   UNL     1       1.181   3.333  19.996  0.00  0.00    +0.000 C 
ATOM      8  C   UNL     1       2.683   3.515  19.772  0.00  0.00    +0.000 C 
ATOM      9  N   UNL     1       3.438   2.632  20.656  0.00  0.00    +0.000 N 
ATOM     10  C   UNL     1       4.381   1.904  19.968  0.00  0.00    +0.000 C 
ATOM     11  O   UNL     1       5.271   1.250  20.485  0.00  0.00    +0.000 OA
ATOM     12  N   UNL     1       4.148   2.039  18.648  0.00  0.00    +0.000 N 
ATOM     13  C   UNL     1       3.081   2.855  18.432  0.00  0.00    +0.000 C 
ATOM     14  O   UNL     1       2.524   2.983  17.354  0.00  0.00    +0.000 OA
ATOM     15  H   UNL     1       3.506   2.723  21.662  0.00  0.00    +0.000 HD
ATOM     16  H   UNL     1       4.628   1.537  17.925  0.00  0.00    +0.000 HD
ENDBRANCH   1   8
BRANCH   5  17
ATOM     17  C   UNL     1       6.092   5.369  17.647  0.00  0.00    +0.000 C 
BRANCH  17  18
ATOM     18  C   UNL     1       6.354   4.999  16.201  0.00  0.00    +0.000 A 
ATOM     19  C   UNL     1       7.572   5.369  15.590  0.00  0.00    +0.000 A 
ATOM     20  C   UNL     1       7.819   5.117  14.242  0.00  0.00    +0.000 A 
ATOM     21  C   UNL     1       6.842   4.470  13.512  0.00  0.00    +0.000 A 
ATOM     22  C   UNL     1       5.643   4.062  14.109  0.00  0.00    +0.000 A 
ATOM     23  C   UNL     1       5.378   4.335  15.442  0.00  0.00    +0.000 A 
ATOM     24  C   UNL     1       4.765   3.376  13.109  0.00  0.00    +0.000 C 
ATOM     25  C   UNL     1       5.780   3.050  12.001  0.00  0.00    +0.000 C 
ATOM     26  C   UNL     1       6.839   4.158  12.050  0.00  0.00    +0.000 C 
ENDBRANCH  17  18
ENDBRANCH   5  17
TORSDOF 3
ENDMDL
