MODEL 1
REMARK VINA RESULT:      -8.0      0.000      0.000
REMARK  Name = 
REMARK  9 active torsions:
REMARK  status: ('A' for Active; 'I' for Inactive)
REMARK    1  A    between atoms: C_2  and  C_12
REMARK    2  A    between atoms: N_3  and  C_4
REMARK    3  A    between atoms: C_4  and  C_5
REMARK    4  A    between atoms: C_12  and  C_13
REMARK    5  A    between atoms: C_12  and  N_16
REMARK    6  A    between atoms: C_13  and  C_14
REMARK    7  A    between atoms: C_14  and  O_15
REMARK    8  A    between atoms: C_20  and  C_21
REMARK    9  A    between atoms: C_20  and  C_27
REMARK                            x       y       z     vdW  Elec       q    Type
REMARK                         _______ _______ _______ _____ _____    ______ ____
ROOT
ATOM      1  N   UNL     1       0.905  10.486  19.283  0.00  0.00    +0.000 NA
ATOM      2  C   UNL     1      -0.276  10.539  18.376  0.00  0.00    +0.000 C 
ATOM      3  C   UNL     1      -1.633  10.593  19.098  0.00  0.00    +0.000 C 
ATOM      4  C   UNL     1      -1.730  11.777  20.048  0.00  0.00    +0.000 C 
ATOM      5  C   UNL     1      -2.855  12.534  20.176  0.00  0.00    +0.000 C 
ATOM      6  C   UNL     1      -0.460  11.987  20.869  0.00  0.00    +0.000 C 
ATOM      7  C   UNL     1       0.855  11.716  20.104  0.00  0.00    +0.000 C 
ENDROOT
BRANCH   5   8
ATOM      8  C   UNL     1      -4.064  12.198  19.382  0.00  0.00    +0.000 A 
ATOM      9  C   UNL     1      -5.317  12.161  20.007  0.00  0.00    +0.000 A 
ATOM     10  C   UNL     1      -6.457  11.797  19.287  0.00  0.00    +0.000 A 
ATOM     11  C   UNL     1      -6.353  11.472  17.936  0.00  0.00    +0.000 A 
ATOM     12  C   UNL     1      -5.111  11.521  17.300  0.00  0.00    +0.000 A 
ATOM     13  C   UNL     1      -3.969  11.884  18.019  0.00  0.00    +0.000 A 
ENDBRANCH   5   8
BRANCH   5  14
ATOM     14  C   UNL     1      -2.899  13.632  21.166  0.00  0.00    +0.000 A 
ATOM     15  C   UNL     1      -2.662  14.951  20.754  0.00  0.00    +0.000 A 
ATOM     16  C   UNL     1      -2.712  15.994  21.678  0.00  0.00    +0.000 A 
ATOM     17  C   UNL     1      -3.014  15.731  23.016  0.00  0.00    +0.000 A 
ATOM     18  C   UNL     1      -3.240  14.424  23.436  0.00  0.00    +0.000 A 
ATOM     19  C   UNL     1      -3.185  13.374  22.516  0.00  0.00    +0.000 A 
ENDBRANCH   5  14
BRANCH   1  20
ATOM     20  C   UNL     1       0.919   9.214  20.071  0.00  0.00    +0.000 C 
BRANCH  20  22
ATOM     21  O   UNL     1       2.236   8.303  18.241  0.00  0.00    +0.000 OA
ATOM     22  C   UNL     1       1.862   8.175  19.409  0.00  0.00    +0.000 C 
ATOM     23  N   UNL     1       2.239   7.109  20.195  0.00  0.00    +0.000 N 
ATOM     24  H   UNL     1       1.786   7.011  21.100  0.00  0.00    +0.000 HD
BRANCH  23  25
ATOM     25  C   UNL     1       3.105   6.066  19.694  0.00  0.00    +0.000 C 
BRANCH  25  26
ATOM     26  C   UNL     1       2.377   4.789  19.346  0.00  0.00    +0.000 A 
ATOM     27  C   UNL     1       1.392   4.293  20.225  0.00  0.00    +0.000 A 
ATOM     28  C   UNL     1       0.725   3.092  19.961  0.00  0.00    +0.000 A 
ATOM     29  C   UNL     1       1.028   2.365  18.813  0.00  0.00    +0.000 A 
ATOM     30  C   UNL     1       2.005   2.835  17.936  0.00  0.00    +0.000 A 
ATOM     31  C   UNL     1       2.678   4.034  18.202  0.00  0.00    +0.000 A 
ATOM     32 CL   UNL     1       3.899   4.527  17.081  0.00  0.00    +0.000 Cl
ENDBRANCH  25  26
ENDBRANCH  23  25
ENDBRANCH  20  22
BRANCH  20  33
ATOM     33  C   UNL     1       1.242   9.305  21.573  0.00  0.00    +0.000 C 
BRANCH  33  34
ATOM     34  C   UNL     1       0.118   8.997  22.548  0.00  0.00    +0.000 C 
BRANCH  34  35
ATOM     35  O   UNL     1       0.341   9.735  23.750  0.00  0.00    +0.000 OA
ATOM     36  H   UNL     1       0.196   9.134  24.500  0.00  0.00    +0.000 HD
ENDBRANCH  34  35
ENDBRANCH  33  34
ENDBRANCH  20  33
ENDBRANCH   1  20
TORSDOF 9
ENDMDL
MODEL 2
REMARK VINA RESULT:      -8.0      0.090      1.175
REMARK  Name = 
REMARK  9 active torsions:
REMARK  status: ('A' for Active; 'I' for Inactive)
REMARK    1  A    between atoms: C_2  and  C_12
REMARK    2  A    between atoms: N_3  and  C_4
REMARK    3  A    between atoms: C_4  and  C_5
REMARK    4  A    between atoms: C_12  and  C_13
REMARK    5  A    between atoms: C_12  and  N_16
REMARK    6  A    between atoms: C_13  and  C_14
REMARK    7  A    between atoms: C_14  and  O_15
REMARK    8  A    between atoms: C_20  and  C_21
REMARK    9  A    between atoms: C_20  and  C_27
REMARK                            x       y       z     vdW  Elec       q    Type
REMARK                         _______ _______ _______ _____ _____    ______ ____
ROOT
ATOM      1  N   UNL     1       0.829  10.513  19.256  0.00  0.00    +0.000 NA
ATOM      2  C   UNL     1      -0.368  10.535  18.369  0.00  0.00    +0.000 C 
ATOM      3  C   UNL     1      -1.713  10.587  19.114  0.00  0.00    +0.000 C 
ATOM      4  C   UNL     1      -1.808  11.789  20.042  0.00  0.00    +0.000 C 
ATOM      5  C   UNL     1      -2.939  12.535  20.175  0.00  0.00    +0.000 C 
ATOM      6  C   UNL     1      -0.526  12.030  20.836  0.00  0.00    +0.000 C 
ATOM      7  C   UNL     1       0.778  11.759  20.054  0.00  0.00    +0.000 C 
ENDROOT
BRANCH   5   8
ATOM      8  C   UNL     1      -4.158  12.170  19.409  0.00  0.00    +0.000 A 
ATOM      9  C   UNL     1      -4.075  11.979  18.023  0.00  0.00    +0.000 A 
ATOM     10  C   UNL     1      -5.219  11.687  17.279  0.00  0.00    +0.000 A 
ATOM     11  C   UNL     1      -6.454  11.579  17.915  0.00  0.00    +0.000 A 
ATOM     12  C   UNL     1      -6.545  11.751  19.297  0.00  0.00    +0.000 A 
ATOM     13  C   UNL     1      -5.401  12.045  20.044  0.00  0.00    +0.000 A 
ENDBRANCH   5   8
BRANCH   5  14
ATOM     14  C   UNL     1      -2.979  13.652  21.144  0.00  0.00    +0.000 A 
ATOM     15  C   UNL     1      -3.295  13.400  22.486  0.00  0.00    +0.000 A 
ATOM     16  C   UNL     1      -3.325  14.445  23.408  0.00  0.00    +0.000 A 
ATOM     17  C   UNL     1      -3.025  15.746  23.002  0.00  0.00    +0.000 A 
ATOM     18  C   UNL     1      -2.722  16.008  21.669  0.00  0.00    +0.000 A 
ATOM     19  C   UNL     1      -2.697  14.967  20.740  0.00  0.00    +0.000 A 
ENDBRANCH   5  14
BRANCH   1  20
ATOM     20  C   UNL     1       0.872   9.258  20.068  0.00  0.00    +0.000 C 
BRANCH  20  22
ATOM     21  O   UNL     1       2.282   8.389  18.289  0.00  0.00    +0.000 OA
ATOM     22  C   UNL     1       1.844   8.231  19.430  0.00  0.00    +0.000 C 
ATOM     23  N   UNL     1       2.169   7.140  20.204  0.00  0.00    +0.000 N 
ATOM     24  H   UNL     1       1.666   7.020  21.080  0.00  0.00    +0.000 HD
BRANCH  23  25
ATOM     25  C   UNL     1       3.055   6.104  19.722  0.00  0.00    +0.000 C 
BRANCH  25  26
ATOM     26  C   UNL     1       2.346   4.820  19.361  0.00  0.00    +0.000 A 
ATOM     27  C   UNL     1       1.362   4.305  20.230  0.00  0.00    +0.000 A 
ATOM     28  C   UNL     1       0.712   3.098  19.952  0.00  0.00    +0.000 A 
ATOM     29  C   UNL     1       1.033   2.383  18.802  0.00  0.00    +0.000 A 
ATOM     30  C   UNL     1       2.010   2.871  17.935  0.00  0.00    +0.000 A 
ATOM     31  C   UNL     1       2.665   4.077  18.214  0.00  0.00    +0.000 A 
ATOM     32 CL   UNL     1       3.888   4.593  17.105  0.00  0.00    +0.000 Cl
ENDBRANCH  25  26
ENDBRANCH  23  25
ENDBRANCH  20  22
BRANCH  20  33
ATOM     33  C   UNL     1       1.186   9.386  21.569  0.00  0.00    +0.000 C 
BRANCH  33  34
ATOM     34  C   UNL     1       0.062   9.084  22.546  0.00  0.00    +0.000 C 
BRANCH  34  35
ATOM     35  O   UNL     1       0.369   9.694  23.800  0.00  0.00    +0.000 OA
ATOM     36  H   UNL     1       0.452   8.987  24.463  0.00  0.00    +0.000 HD
ENDBRANCH  34  35
ENDBRANCH  33  34
ENDBRANCH  20  33
ENDBRANCH   1  20
TORSDOF 9
ENDMDL
MODEL 3
REMARK VINA RESULT:      -7.5      0.989      1.701
REMARK  Name = 
REMARK  9 active torsions:
REMARK  status: ('A' for Active; 'I' for Inactive)
REMARK    1  A    between atoms: C_2  and  C_12
REMARK    2  A    between atoms: N_3  and  C_4
REMARK    3  A    between atoms: C_4  and  C_5
REMARK    4  A    between atoms: C_12  and  C_13
REMARK    5  A    between atoms: C_12  and  N_16
REMARK    6  A    between atoms: C_13  and  C_14
REMARK    7  A    between atoms: C_14  and  O_15
REMARK    8  A    between atoms: C_20  and  C_21
REMARK    9  A    between atoms: C_20  and  C_27
REMARK                            x       y       z     vdW  Elec       q    Type
REMARK                         _______ _______ _______ _____ _____    ______ ____
ROOT
ATOM      1  N   UNL     1       1.091  10.247  19.126  0.00  0.00    +0.000 NA
ATOM      2  C   UNL     1      -0.114  10.279  18.250  0.00  0.00    +0.000 C 
ATOM      3  C   UNL     1      -1.448  10.419  19.004  0.00  0.00    +0.000 C 
ATOM      4  C   UNL     1      -1.484  11.662  19.880  0.00  0.00    +0.000 C 
ATOM      5  C   UNL     1      -2.582  12.459  19.992  0.00  0.00    +0.000 C 
ATOM      6  C   UNL     1      -0.184  11.884  20.651  0.00  0.00    +0.000 C 
ATOM      7  C   UNL     1       1.099  11.526  19.869  0.00  0.00    +0.000 C 
ENDROOT
BRANCH   5   8
ATOM      8  C   UNL     1      -3.823  12.112  19.253  0.00  0.00    +0.000 A 
ATOM      9  C   UNL     1      -3.750  11.764  17.898  0.00  0.00    +0.000 A 
ATOM     10  C   UNL     1      -4.911  11.485  17.175  0.00  0.00    +0.000 A 
ATOM     11  C   UNL     1      -6.153  11.547  17.803  0.00  0.00    +0.000 A 
ATOM     12  C   UNL     1      -6.236  11.877  19.156  0.00  0.00    +0.000 A 
ATOM     13  C   UNL     1      -5.075  12.158  19.882  0.00  0.00    +0.000 A 
ENDBRANCH   5   8
BRANCH   5  14
ATOM     14  C   UNL     1      -2.566  13.618  20.911  0.00  0.00    +0.000 A 
ATOM     15  C   UNL     1      -2.899  13.441  22.261  0.00  0.00    +0.000 A 
ATOM     16  C   UNL     1      -2.877  14.524  23.137  0.00  0.00    +0.000 A 
ATOM     17  C   UNL     1      -2.507  15.790  22.677  0.00  0.00    +0.000 A 
ATOM     18  C   UNL     1      -2.186  15.977  21.336  0.00  0.00    +0.000 A 
ATOM     19  C   UNL     1      -2.213  14.897  20.453  0.00  0.00    +0.000 A 
ENDBRANCH   5  14
BRANCH   1  20
ATOM     20  C   UNL     1       1.091   9.027  19.991  0.00  0.00    +0.000 C 
BRANCH  20  22
ATOM     21  O   UNL     1       2.499   8.037  18.274  0.00  0.00    +0.000 OA
ATOM     22  C   UNL     1       2.065   7.960  19.426  0.00  0.00    +0.000 C 
ATOM     23  N   UNL     1       2.398   6.930  20.276  0.00  0.00    +0.000 N 
ATOM     24  H   UNL     1       1.899   6.872  21.160  0.00  0.00    +0.000 HD
BRANCH  23  25
ATOM     25  C   UNL     1       3.287   5.866  19.867  0.00  0.00    +0.000 C 
BRANCH  25  26
ATOM     26  C   UNL     1       2.569   4.635  19.366  0.00  0.00    +0.000 A 
ATOM     27  C   UNL     1       2.319   4.495  17.984  0.00  0.00    +0.000 A 
ATOM     28  C   UNL     1       1.620   3.391  17.484  0.00  0.00    +0.000 A 
ATOM     29  C   UNL     1       1.161   2.406  18.353  0.00  0.00    +0.000 A 
ATOM     30  C   UNL     1       1.391   2.530  19.722  0.00  0.00    +0.000 A 
ATOM     31  C   UNL     1       2.085   3.638  20.226  0.00  0.00    +0.000 A 
ATOM     32 CL   UNL     1       2.297   3.732  21.939  0.00  0.00    +0.000 Cl
ENDBRANCH  25  26
ENDBRANCH  23  25
ENDBRANCH  20  22
BRANCH  20  33
ATOM     33  C   UNL     1       1.365   9.215  21.494  0.00  0.00    +0.000 C 
BRANCH  33  34
ATOM     34  C   UNL     1       0.190   9.047  22.443  0.00  0.00    +0.000 C 
BRANCH  34  35
ATOM     35  O   UNL     1       0.462   9.777  23.641  0.00  0.00    +0.000 OA
ATOM     36  H   UNL     1      -0.239  10.442  23.751  0.00  0.00    +0.000 HD
ENDBRANCH  34  35
ENDBRANCH  33  34
ENDBRANCH  20  33
ENDBRANCH   1  20
TORSDOF 9
ENDMDL
MODEL 4
REMARK VINA RESULT:      -7.4      3.056      9.696
REMARK  Name = 
REMARK  9 active torsions:
REMARK  status: ('A' for Active; 'I' for Inactive)
REMARK    1  A    between atoms: C_2  and  C_12
REMARK    2  A    between atoms: N_3  and  C_4
REMARK    3  A    between atoms: C_4  and  C_5
REMARK    4  A    between atoms: C_12  and  C_13
REMARK    5  A    between atoms: C_12  and  N_16
REMARK    6  A    between atoms: C_13  and  C_14
REMARK    7  A    between atoms: C_14  and  O_15
REMARK    8  A    between atoms: C_20  and  C_21
REMARK    9  A    between atoms: C_20  and  C_27
REMARK                            x       y       z     vdW  Elec       q    Type
REMARK                         _______ _______ _______ _____ _____    ______ ____
ROOT
ATOM      1  N   UNL     1       0.982   9.931  20.137  0.00  0.00    +0.000 NA
ATOM      2  C   UNL     1       1.010   8.729  21.017  0.00  0.00    +0.000 C 
ATOM      3  C   UNL     1       0.848   7.391  20.275  0.00  0.00    +0.000 C 
ATOM      4  C   UNL     1       1.907   7.199  19.200  0.00  0.00    +0.000 C 
ATOM      5  C   UNL     1       2.527   6.008  18.975  0.00  0.00    +0.000 C 
ATOM      6  C   UNL     1       2.157   8.462  18.378  0.00  0.00    +0.000 C 
ATOM      7  C   UNL     1       2.105   9.778  19.186  0.00  0.00    +0.000 C 
ENDROOT
BRANCH   5   8
ATOM      8  C   UNL     1       2.156   4.820  19.784  0.00  0.00    +0.000 A 
ATOM      9  C   UNL     1       1.207   3.914  19.294  0.00  0.00    +0.000 A 
ATOM     10  C   UNL     1       0.808   2.820  20.063  0.00  0.00    +0.000 A 
ATOM     11  C   UNL     1       1.359   2.620  21.327  0.00  0.00    +0.000 A 
ATOM     12  C   UNL     1       2.318   3.508  21.819  0.00  0.00    +0.000 A 
ATOM     13  C   UNL     1       2.717   4.604  21.051  0.00  0.00    +0.000 A 
ENDBRANCH   5   8
BRANCH   5  14
ATOM     14  C   UNL     1       3.503   5.878  17.870  0.00  0.00    +0.000 A 
ATOM     15  C   UNL     1       3.784   4.614  17.333  0.00  0.00    +0.000 A 
ATOM     16  C   UNL     1       4.694   4.483  16.286  0.00  0.00    +0.000 A 
ATOM     17  C   UNL     1       5.319   5.614  15.756  0.00  0.00    +0.000 A 
ATOM     18  C   UNL     1       5.056   6.871  16.290  0.00  0.00    +0.000 A 
ATOM     19  C   UNL     1       4.150   7.008  17.344  0.00  0.00    +0.000 A 
ENDBRANCH   5  14
BRANCH   1  20
ATOM     20  C   UNL     1      -0.359  10.092  19.492  0.00  0.00    +0.000 C 
BRANCH  20  22
ATOM     21  O   UNL     1      -1.009  11.397  21.438  0.00  0.00    +0.000 OA
ATOM     22  C   UNL     1      -1.198  11.159  20.243  0.00  0.00    +0.000 C 
ATOM     23  N   UNL     1      -2.163  11.804  19.503  0.00  0.00    +0.000 N 
ATOM     24  H   UNL     1      -2.341  11.460  18.563  0.00  0.00    +0.000 HD
BRANCH  23  25
ATOM     25  C   UNL     1      -3.021  12.810  20.087  0.00  0.00    +0.000 C 
BRANCH  25  26
ATOM     26  C   UNL     1      -4.484  12.436  20.084  0.00  0.00    +0.000 A 
ATOM     27  C   UNL     1      -5.082  11.991  18.887  0.00  0.00    +0.000 A 
ATOM     28  C   UNL     1      -6.443  11.675  18.832  0.00  0.00    +0.000 A 
ATOM     29  C   UNL     1      -7.232  11.795  19.972  0.00  0.00    +0.000 A 
ATOM     30  C   UNL     1      -6.662  12.242  21.163  0.00  0.00    +0.000 A 
ATOM     31  C   UNL     1      -5.300  12.565  21.219  0.00  0.00    +0.000 A 
ATOM     32 CL   UNL     1      -4.680  13.144  22.725  0.00  0.00    +0.000 Cl
ENDBRANCH  25  26
ENDBRANCH  23  25
ENDBRANCH  20  22
BRANCH  20  33
ATOM     33  C   UNL     1      -0.397  10.389  17.983  0.00  0.00    +0.000 C 
BRANCH  33  34
ATOM     34  C   UNL     1      -1.572   9.838  17.193  0.00  0.00    +0.000 C 
BRANCH  34  35
ATOM     35  O   UNL     1      -2.137  10.895  16.416  0.00  0.00    +0.000 OA
ATOM     36  H   UNL     1      -3.085  10.948  16.629  0.00  0.00    +0.000 HD
ENDBRANCH  34  35
ENDBRANCH  33  34
ENDBRANCH  20  33
ENDBRANCH   1  20
TORSDOF 9
ENDMDL
MODEL 5
REMARK VINA RESULT:      -7.4      3.175      9.626
REMARK  Name = 
REMARK  9 active torsions:
REMARK  status: ('A' for Active; 'I' for Inactive)
REMARK    1  A    between atoms: C_2  and  C_12
REMARK    2  A    between atoms: N_3  and  C_4
REMARK    3  A    between atoms: C_4  and  C_5
REMARK    4  A    between atoms: C_12  and  C_13
REMARK    5  A    between atoms: C_12  and  N_16
REMARK    6  A    between atoms: C_13  and  C_14
REMARK    7  A    between atoms: C_14  and  O_15
REMARK    8  A    between atoms: C_20  and  C_21
REMARK    9  A    between atoms: C_20  and  C_27
REMARK                            x       y       z     vdW  Elec       q    Type
REMARK                         _______ _______ _______ _____ _____    ______ ____
ROOT
ATOM      1  N   UNL     1       0.999  10.029  20.026  0.00  0.00    +0.000 NA
ATOM      2  C   UNL     1       1.021   8.843  20.928  0.00  0.00    +0.000 C 
ATOM      3  C   UNL     1       0.850   7.492  20.210  0.00  0.00    +0.000 C 
ATOM      4  C   UNL     1       1.908   7.275  19.139  0.00  0.00    +0.000 C 
ATOM      5  C   UNL     1       2.520   6.076  18.935  0.00  0.00    +0.000 C 
ATOM      6  C   UNL     1       2.165   8.521  18.294  0.00  0.00    +0.000 C 
ATOM      7  C   UNL     1       2.121   9.852  19.078  0.00  0.00    +0.000 C 
ENDROOT
BRANCH   5   8
ATOM      8  C   UNL     1       2.143   4.905  19.767  0.00  0.00    +0.000 A 
ATOM      9  C   UNL     1       1.176   4.005  19.301  0.00  0.00    +0.000 A 
ATOM     10  C   UNL     1       0.771   2.928  20.091  0.00  0.00    +0.000 A 
ATOM     11  C   UNL     1       1.335   2.739  21.351  0.00  0.00    +0.000 A 
ATOM     12  C   UNL     1       2.311   3.621  21.818  0.00  0.00    +0.000 A 
ATOM     13  C   UNL     1       2.716   4.700  21.030  0.00  0.00    +0.000 A 
ENDBRANCH   5   8
BRANCH   5  14
ATOM     14  C   UNL     1       3.495   5.920  17.833  0.00  0.00    +0.000 A 
ATOM     15  C   UNL     1       3.757   4.646  17.309  0.00  0.00    +0.000 A 
ATOM     16  C   UNL     1       4.666   4.491  16.264  0.00  0.00    +0.000 A 
ATOM     17  C   UNL     1       5.309   5.607  15.723  0.00  0.00    +0.000 A 
ATOM     18  C   UNL     1       5.064   6.874  16.245  0.00  0.00    +0.000 A 
ATOM     19  C   UNL     1       4.159   7.034  17.296  0.00  0.00    +0.000 A 
ENDBRANCH   5  14
BRANCH   1  20
ATOM     20  C   UNL     1      -0.341  10.185  19.379  0.00  0.00    +0.000 C 
BRANCH  20  22
ATOM     21  O   UNL     1      -1.158  12.406  18.823  0.00  0.00    +0.000 OA
ATOM     22  C   UNL     1      -0.944  11.576  19.708  0.00  0.00    +0.000 C 
ATOM     23  N   UNL     1      -1.207  11.826  21.037  0.00  0.00    +0.000 N 
ATOM     24  H   UNL     1      -0.884  11.141  21.715  0.00  0.00    +0.000 HD
BRANCH  23  25
ATOM     25  C   UNL     1      -1.758  13.087  21.477  0.00  0.00    +0.000 C 
BRANCH  25  26
ATOM     26  C   UNL     1      -3.038  12.947  22.267  0.00  0.00    +0.000 A 
ATOM     27  C   UNL     1      -2.973  12.817  23.671  0.00  0.00    +0.000 A 
ATOM     28  C   UNL     1      -4.132  12.644  24.435  0.00  0.00    +0.000 A 
ATOM     29  C   UNL     1      -5.376  12.598  23.813  0.00  0.00    +0.000 A 
ATOM     30  C   UNL     1      -5.460  12.716  22.426  0.00  0.00    +0.000 A 
ATOM     31  C   UNL     1      -4.300  12.885  21.659  0.00  0.00    +0.000 A 
ATOM     32 CL   UNL     1      -4.490  12.988  19.943  0.00  0.00    +0.000 Cl
ENDBRANCH  25  26
ENDBRANCH  23  25
ENDBRANCH  20  22
BRANCH  20  33
ATOM     33  C   UNL     1      -0.438   9.939  17.863  0.00  0.00    +0.000 C 
BRANCH  33  34
ATOM     34  C   UNL     1      -1.829   9.846  17.260  0.00  0.00    +0.000 C 
BRANCH  34  35
ATOM     35  O   UNL     1      -2.008  10.935  16.353  0.00  0.00    +0.000 OA
ATOM     36  H   UNL     1      -1.872  10.597  15.451  0.00  0.00    +0.000 HD
ENDBRANCH  34  35
ENDBRANCH  33  34
ENDBRANCH  20  33
ENDBRANCH   1  20
TORSDOF 9
ENDMDL
MODEL 6
REMARK VINA RESULT:      -7.4      3.011      9.640
REMARK  Name = 
REMARK  9 active torsions:
REMARK  status: ('A' for Active; 'I' for Inactive)
REMARK    1  A    between atoms: C_2  and  C_12
REMARK    2  A    between atoms: N_3  and  C_4
REMARK    3  A    between atoms: C_4  and  C_5
REMARK    4  A    between atoms: C_12  and  C_13
REMARK    5  A    between atoms: C_12  and  N_16
REMARK    6  A    between atoms: C_13  and  C_14
REMARK    7  A    between atoms: C_14  and  O_15
REMARK    8  A    between atoms: C_20  and  C_21
REMARK    9  A    between atoms: C_20  and  C_27
REMARK                            x       y       z     vdW  Elec       q    Type
REMARK                         _______ _______ _______ _____ _____    ______ ____
ROOT
ATOM      1  N   UNL     1       0.970  10.067  19.828  0.00  0.00    +0.000 NA
ATOM      2  C   UNL     1       0.976   8.913  20.769  0.00  0.00    +0.000 C 
ATOM      3  C   UNL     1       0.805   7.539  20.096  0.00  0.00    +0.000 C 
ATOM      4  C   UNL     1       1.874   7.280  19.045  0.00  0.00    +0.000 C 
ATOM      5  C   UNL     1       2.482   6.072  18.889  0.00  0.00    +0.000 C 
ATOM      6  C   UNL     1       2.147   8.496  18.161  0.00  0.00    +0.000 C 
ATOM      7  C   UNL     1       2.102   9.852  18.899  0.00  0.00    +0.000 C 
ENDROOT
BRANCH   5   8
ATOM      8  C   UNL     1       2.089   4.931  19.755  0.00  0.00    +0.000 A 
ATOM      9  C   UNL     1       2.694   4.772  21.009  0.00  0.00    +0.000 A 
ATOM     10  C   UNL     1       2.376   3.678  21.814  0.00  0.00    +0.000 A 
ATOM     11  C   UNL     1       1.447   2.736  21.375  0.00  0.00    +0.000 A 
ATOM     12  C   UNL     1       0.827   2.895  20.134  0.00  0.00    +0.000 A 
ATOM     13  C   UNL     1       1.145   3.989  19.326  0.00  0.00    +0.000 A 
ENDBRANCH   5   8
BRANCH   5  14
ATOM     14  C   UNL     1       3.468   5.874  17.804  0.00  0.00    +0.000 A 
ATOM     15  C   UNL     1       3.684   4.590  17.284  0.00  0.00    +0.000 A 
ATOM     16  C   UNL     1       4.603   4.395  16.255  0.00  0.00    +0.000 A 
ATOM     17  C   UNL     1       5.302   5.482  15.725  0.00  0.00    +0.000 A 
ATOM     18  C   UNL     1       5.102   6.758  16.242  0.00  0.00    +0.000 A 
ATOM     19  C   UNL     1       4.188   6.958  17.277  0.00  0.00    +0.000 A 
ENDBRANCH   5  14
BRANCH   1  20
ATOM     20  C   UNL     1      -0.361  10.209  19.161  0.00  0.00    +0.000 C 
BRANCH  20  22
ATOM     21  O   UNL     1      -0.405  12.637  19.054  0.00  0.00    +0.000 OA
ATOM     22  C   UNL     1      -0.964  11.610  19.444  0.00  0.00    +0.000 C 
ATOM     23  N   UNL     1      -2.140  11.633  20.160  0.00  0.00    +0.000 N 
ATOM     24  H   UNL     1      -2.467  10.754  20.553  0.00  0.00    +0.000 HD
BRANCH  23  25
ATOM     25  C   UNL     1      -2.797  12.875  20.499  0.00  0.00    +0.000 C 
BRANCH  25  26
ATOM     26  C   UNL     1      -3.614  12.801  21.768  0.00  0.00    +0.000 A 
ATOM     27  C   UNL     1      -5.001  13.054  21.713  0.00  0.00    +0.000 A 
ATOM     28  C   UNL     1      -5.785  13.037  22.872  0.00  0.00    +0.000 A 
ATOM     29  C   UNL     1      -5.200  12.767  24.105  0.00  0.00    +0.000 A 
ATOM     30  C   UNL     1      -3.829  12.524  24.181  0.00  0.00    +0.000 A 
ATOM     31  C   UNL     1      -3.041  12.545  23.023  0.00  0.00    +0.000 A 
ATOM     32 CL   UNL     1      -1.344  12.268  23.210  0.00  0.00    +0.000 Cl
ENDBRANCH  25  26
ENDBRANCH  23  25
ENDBRANCH  20  22
BRANCH  20  33
ATOM     33  C   UNL     1      -0.442   9.919  17.652  0.00  0.00    +0.000 C 
BRANCH  33  34
ATOM     34  C   UNL     1      -1.796  10.081  16.982  0.00  0.00    +0.000 C 
BRANCH  34  35
ATOM     35  O   UNL     1      -1.905  11.416  16.489  0.00  0.00    +0.000 OA
ATOM     36  H   UNL     1      -2.329  11.956  17.179  0.00  0.00    +0.000 HD
ENDBRANCH  34  35
ENDBRANCH  33  34
ENDBRANCH  20  33
ENDBRANCH   1  20
TORSDOF 9
ENDMDL
MODEL 7
REMARK VINA RESULT:      -7.4      1.101      1.676
REMARK  Name = 
REMARK  9 active torsions:
REMARK  status: ('A' for Active; 'I' for Inactive)
REMARK    1  A    between atoms: C_2  and  C_12
REMARK    2  A    between atoms: N_3  and  C_4
REMARK    3  A    between atoms: C_4  and  C_5
REMARK    4  A    between atoms: C_12  and  C_13
REMARK    5  A    between atoms: C_12  and  N_16
REMARK    6  A    between atoms: C_13  and  C_14
REMARK    7  A    between atoms: C_14  and  O_15
REMARK    8  A    between atoms: C_20  and  C_21
REMARK    9  A    between atoms: C_20  and  C_27
REMARK                            x       y       z     vdW  Elec       q    Type
REMARK                         _______ _______ _______ _____ _____    ______ ____
ROOT
ATOM      1  N   UNL     1       0.726  11.147  19.036  0.00  0.00    +0.000 NA
ATOM      2  C   UNL     1      -0.488  11.269  18.181  0.00  0.00    +0.000 C 
ATOM      3  C   UNL     1      -1.813  10.990  18.910  0.00  0.00    +0.000 C 
ATOM      4  C   UNL     1      -2.007  11.900  20.114  0.00  0.00    +0.000 C 
ATOM      5  C   UNL     1      -3.205  12.466  20.431  0.00  0.00    +0.000 C 
ATOM      6  C   UNL     1      -0.737  12.063  20.948  0.00  0.00    +0.000 C 
ATOM      7  C   UNL     1       0.569  12.137  20.125  0.00  0.00    +0.000 C 
ENDROOT
BRANCH   5   8
ATOM      8  C   UNL     1      -4.398  12.183  19.593  0.00  0.00    +0.000 A 
ATOM      9  C   UNL     1      -4.262  12.084  18.202  0.00  0.00    +0.000 A 
ATOM     10  C   UNL     1      -5.380  11.871  17.395  0.00  0.00    +0.000 A 
ATOM     11  C   UNL     1      -6.643  11.750  17.972  0.00  0.00    +0.000 A 
ATOM     12  C   UNL     1      -6.787  11.831  19.358  0.00  0.00    +0.000 A 
ATOM     13  C   UNL     1      -5.669  12.046  20.168  0.00  0.00    +0.000 A 
ENDBRANCH   5   8
BRANCH   5  14
ATOM     14  C   UNL     1      -3.334  13.290  21.652  0.00  0.00    +0.000 A 
ATOM     15  C   UNL     1      -3.475  12.668  22.901  0.00  0.00    +0.000 A 
ATOM     16  C   UNL     1      -3.587  13.435  24.058  0.00  0.00    +0.000 A 
ATOM     17  C   UNL     1      -3.545  14.829  23.982  0.00  0.00    +0.000 A 
ATOM     18  C   UNL     1      -3.417  15.456  22.746  0.00  0.00    +0.000 A 
ATOM     19  C   UNL     1      -3.311  14.692  21.582  0.00  0.00    +0.000 A 
ENDBRANCH   5  14
BRANCH   1  20
ATOM     20  C   UNL     1       0.915   9.738  19.501  0.00  0.00    +0.000 C 
BRANCH  20  22
ATOM     21  O   UNL     1       2.055   9.394  17.382  0.00  0.00    +0.000 OA
ATOM     22  C   UNL     1       1.810   8.953  18.506  0.00  0.00    +0.000 C 
ATOM     23  N   UNL     1       2.294   7.743  18.949  0.00  0.00    +0.000 N 
ATOM     24  H   UNL     1       1.942   7.393  19.837  0.00  0.00    +0.000 HD
BRANCH  23  25
ATOM     25  C   UNL     1       3.129   6.908  18.115  0.00  0.00    +0.000 C 
BRANCH  25  26
ATOM     26  C   UNL     1       2.923   5.429  18.337  0.00  0.00    +0.000 A 
ATOM     27  C   UNL     1       1.703   4.836  17.949  0.00  0.00    +0.000 A 
ATOM     28  C   UNL     1       1.455   3.478  18.175  0.00  0.00    +0.000 A 
ATOM     29  C   UNL     1       2.421   2.687  18.790  0.00  0.00    +0.000 A 
ATOM     30  C   UNL     1       3.629   3.257  19.189  0.00  0.00    +0.000 A 
ATOM     31  C   UNL     1       3.877   4.618  18.969  0.00  0.00    +0.000 A 
ATOM     32 CL   UNL     1       5.387   5.252  19.525  0.00  0.00    +0.000 Cl
ENDBRANCH  25  26
ENDBRANCH  23  25
ENDBRANCH  20  22
BRANCH  20  33
ATOM     33  C   UNL     1       1.437   9.519  20.932  0.00  0.00    +0.000 C 
BRANCH  33  34
ATOM     34  C   UNL     1       0.453   8.990  21.961  0.00  0.00    +0.000 C 
BRANCH  34  35
ATOM     35  O   UNL     1       0.668   9.676  23.195  0.00  0.00    +0.000 OA
ATOM     36  H   UNL     1       1.279  10.414  23.024  0.00  0.00    +0.000 HD
ENDBRANCH  34  35
ENDBRANCH  33  34
ENDBRANCH  20  33
ENDBRANCH   1  20
TORSDOF 9
ENDMDL
MODEL 8
REMARK VINA RESULT:      -7.3      3.169      9.715
REMARK  Name = 
REMARK  9 active torsions:
REMARK  status: ('A' for Active; 'I' for Inactive)
REMARK    1  A    between atoms: C_2  and  C_12
REMARK    2  A    between atoms: N_3  and  C_4
REMARK    3  A    between atoms: C_4  and  C_5
REMARK    4  A    between atoms: C_12  and  C_13
REMARK    5  A    between atoms: C_12  and  N_16
REMARK    6  A    between atoms: C_13  and  C_14
REMARK    7  A    between atoms: C_14  and  O_15
REMARK    8  A    between atoms: C_20  and  C_21
REMARK    9  A    between atoms: C_20  and  C_27
REMARK                            x       y       z     vdW  Elec       q    Type
REMARK                         _______ _______ _______ _____ _____    ______ ____
ROOT
ATOM      1  N   UNL     1       1.084  10.008  20.007  0.00  0.00    +0.000 NA
ATOM      2  C   UNL     1       1.094   8.836  20.928  0.00  0.00    +0.000 C 
ATOM      3  C   UNL     1       0.887   7.478  20.235  0.00  0.00    +0.000 C 
ATOM      4  C   UNL     1       1.926   7.222  19.154  0.00  0.00    +0.000 C 
ATOM      5  C   UNL     1       2.512   6.008  18.962  0.00  0.00    +0.000 C 
ATOM      6  C   UNL     1       2.197   8.450  18.286  0.00  0.00    +0.000 C 
ATOM      7  C   UNL     1       2.190   9.793  19.048  0.00  0.00    +0.000 C 
ENDROOT
BRANCH   5   8
ATOM      8  C   UNL     1       2.123   4.858  19.817  0.00  0.00    +0.000 A 
ATOM      9  C   UNL     1       2.800   4.627  21.021  0.00  0.00    +0.000 A 
ATOM     10  C   UNL     1       2.483   3.522  21.812  0.00  0.00    +0.000 A 
ATOM     11  C   UNL     1       1.482   2.641  21.408  0.00  0.00    +0.000 A 
ATOM     12  C   UNL     1       0.790   2.871  20.218  0.00  0.00    +0.000 A 
ATOM     13  C   UNL     1       1.107   3.976  19.424  0.00  0.00    +0.000 A 
ENDBRANCH   5   8
BRANCH   5  14
ATOM     14  C   UNL     1       3.469   5.815  17.851  0.00  0.00    +0.000 A 
ATOM     15  C   UNL     1       4.183   6.912  17.347  0.00  0.00    +0.000 A 
ATOM     16  C   UNL     1       5.095   6.738  16.308  0.00  0.00    +0.000 A 
ATOM     17  C   UNL     1       5.313   5.467  15.772  0.00  0.00    +0.000 A 
ATOM     18  C   UNL     1       4.600   4.374  16.257  0.00  0.00    +0.000 A 
ATOM     19  C   UNL     1       3.681   4.543  17.294  0.00  0.00    +0.000 A 
ENDBRANCH   5  14
BRANCH   1  20
ATOM     20  C   UNL     1      -0.260  10.181  19.375  0.00  0.00    +0.000 C 
BRANCH  20  22
ATOM     21  O   UNL     1      -0.689  12.549  19.028  0.00  0.00    +0.000 OA
ATOM     22  C   UNL     1      -0.861  11.562  19.746  0.00  0.00    +0.000 C 
ATOM     23  N   UNL     1      -1.578  11.618  20.921  0.00  0.00    +0.000 N 
ATOM     24  H   UNL     1      -1.565  10.794  21.517  0.00  0.00    +0.000 HD
BRANCH  23  25
ATOM     25  C   UNL     1      -2.179  12.847  21.386  0.00  0.00    +0.000 C 
BRANCH  25  26
ATOM     26  C   UNL     1      -3.689  12.831  21.364  0.00  0.00    +0.000 A 
ATOM     27  C   UNL     1      -4.361  12.772  20.125  0.00  0.00    +0.000 A 
ATOM     28  C   UNL     1      -5.759  12.797  20.059  0.00  0.00    +0.000 A 
ATOM     29  C   UNL     1      -6.510  12.879  21.228  0.00  0.00    +0.000 A 
ATOM     30  C   UNL     1      -5.863  12.947  22.461  0.00  0.00    +0.000 A 
ATOM     31  C   UNL     1      -4.464  12.928  22.529  0.00  0.00    +0.000 A 
ATOM     32 CL   UNL     1      -3.742  13.051  24.096  0.00  0.00    +0.000 Cl
ENDBRANCH  25  26
ENDBRANCH  23  25
ENDBRANCH  20  22
BRANCH  20  33
ATOM     33  C   UNL     1      -0.369   9.975  17.854  0.00  0.00    +0.000 C 
BRANCH  33  34
ATOM     34  C   UNL     1      -1.762   9.979  17.247  0.00  0.00    +0.000 C 
BRANCH  34  35
ATOM     35  O   UNL     1      -1.958  11.216  16.560  0.00  0.00    +0.000 OA
ATOM     36  H   UNL     1      -1.121  11.711  16.592  0.00  0.00    +0.000 HD
ENDBRANCH  34  35
ENDBRANCH  33  34
ENDBRANCH  20  33
ENDBRANCH   1  20
TORSDOF 9
ENDMDL
MODEL 9
REMARK VINA RESULT:      -7.3      1.738      2.179
REMARK  Name = 
REMARK  9 active torsions:
REMARK  status: ('A' for Active; 'I' for Inactive)
REMARK    1  A    between atoms: C_2  and  C_12
REMARK    2  A    between atoms: N_3  and  C_4
REMARK    3  A    between atoms: C_4  and  C_5
REMARK    4  A    between atoms: C_12  and  C_13
REMARK    5  A    between atoms: C_12  and  N_16
REMARK    6  A    between atoms: C_13  and  C_14
REMARK    7  A    between atoms: C_14  and  O_15
REMARK    8  A    between atoms: C_20  and  C_21
REMARK    9  A    between atoms: C_20  and  C_27
REMARK                            x       y       z     vdW  Elec       q    Type
REMARK                         _______ _______ _______ _____ _____    ______ ____
ROOT
ATOM      1  N   UNL     1      -0.217  11.949  19.446  0.00  0.00    +0.000 NA
ATOM      2  C   UNL     1      -1.324  12.142  18.468  0.00  0.00    +0.000 C 
ATOM      3  C   UNL     1      -2.725  11.820  19.017  0.00  0.00    +0.000 C 
ATOM      4  C   UNL     1      -3.057  12.640  20.254  0.00  0.00    +0.000 C 
ATOM      5  C   UNL     1      -4.284  13.190  20.472  0.00  0.00    +0.000 C 
ATOM      6  C   UNL     1      -1.892  12.732  21.238  0.00  0.00    +0.000 C 
ATOM      7  C   UNL     1      -0.500  12.857  20.579  0.00  0.00    +0.000 C 
ENDROOT
BRANCH   5   8
ATOM      8  C   UNL     1      -5.372  12.978  19.483  0.00  0.00    +0.000 A 
ATOM      9  C   UNL     1      -5.828  11.680  19.221  0.00  0.00    +0.000 A 
ATOM     10  C   UNL     1      -6.814  11.456  18.258  0.00  0.00    +0.000 A 
ATOM     11  C   UNL     1      -7.354  12.530  17.553  0.00  0.00    +0.000 A 
ATOM     12  C   UNL     1      -6.918  13.829  17.819  0.00  0.00    +0.000 A 
ATOM     13  C   UNL     1      -5.931  14.055  18.781  0.00  0.00    +0.000 A 
ENDBRANCH   5   8
BRANCH   5  14
ATOM     14  C   UNL     1      -4.555  13.923  21.728  0.00  0.00    +0.000 A 
ATOM     15  C   UNL     1      -4.160  15.262  21.852  0.00  0.00    +0.000 A 
ATOM     16  C   UNL     1      -4.420  15.964  23.028  0.00  0.00    +0.000 A 
ATOM     17  C   UNL     1      -5.091  15.340  24.082  0.00  0.00    +0.000 A 
ATOM     18  C   UNL     1      -5.476  14.008  23.972  0.00  0.00    +0.000 A 
ATOM     19  C   UNL     1      -5.212  13.298  22.799  0.00  0.00    +0.000 A 
ENDBRANCH   5  14
BRANCH   1  20
ATOM     20  C   UNL     1      -0.081  10.508  19.824  0.00  0.00    +0.000 C 
BRANCH  20  22
ATOM     21  O   UNL     1      -0.050   9.562  17.585  0.00  0.00    +0.000 OA
ATOM     22  C   UNL     1       0.542   9.696  18.658  0.00  0.00    +0.000 C 
ATOM     23  N   UNL     1       1.774   9.132  18.900  0.00  0.00    +0.000 N 
ATOM     24  H   UNL     1       2.134   9.183  19.850  0.00  0.00    +0.000 HD
BRANCH  23  25
ATOM     25  C   UNL     1       2.457   8.342  17.901  0.00  0.00    +0.000 C 
BRANCH  25  26
ATOM     26  C   UNL     1       2.915   6.994  18.403  0.00  0.00    +0.000 A 
ATOM     27  C   UNL     1       2.336   6.458  19.573  0.00  0.00    +0.000 A 
ATOM     28  C   UNL     1       2.762   5.232  20.094  0.00  0.00    +0.000 A 
ATOM     29  C   UNL     1       3.772   4.517  19.457  0.00  0.00    +0.000 A 
ATOM     30  C   UNL     1       4.363   5.034  18.305  0.00  0.00    +0.000 A 
ATOM     31  C   UNL     1       3.942   6.265  17.784  0.00  0.00    +0.000 A 
ATOM     32 CL   UNL     1       4.750   6.850  16.372  0.00  0.00    +0.000 Cl
ENDBRANCH  25  26
ENDBRANCH  23  25
ENDBRANCH  20  22
BRANCH  20  33
ATOM     33  C   UNL     1       0.668  10.177  21.127  0.00  0.00    +0.000 C 
BRANCH  33  34
ATOM     34  C   UNL     1      -0.103   9.433  22.205  0.00  0.00    +0.000 C 
BRANCH  34  35
ATOM     35  O   UNL     1       0.022  10.150  23.434  0.00  0.00    +0.000 OA
ATOM     36  H   UNL     1       0.747  10.791  23.333  0.00  0.00    +0.000 HD
ENDBRANCH  34  35
ENDBRANCH  33  34
ENDBRANCH  20  33
ENDBRANCH   1  20
TORSDOF 9
ENDMDL
