MODEL 1
REMARK VINA RESULT:      -8.4      0.000      0.000
REMARK  Name = 
REMARK  11 active torsions:
REMARK  status: ('A' for Active; 'I' for Inactive)
REMARK    1  A    between atoms: C_1  and  C_2
REMARK    2  A    between atoms: C_4  and  C_5
REMARK    3  A    between atoms: C_5  and  C_6
REMARK    4  A    between atoms: C_5  and  C_7
REMARK    5  A    between atoms: C_5  and  N_11
REMARK    6  A    between atoms: C_7  and  C_8
REMARK    7  A    between atoms: C_12  and  C_14
REMARK    8  A    between atoms: C_16  and  O_17
REMARK    9  A    between atoms: O_17  and  C_18
REMARK   10  A    between atoms: C_18  and  C_19
REMARK   11  A    between atoms: C_23  and  C_24
REMARK                            x       y       z     vdW  Elec       q    Type
REMARK                         _______ _______ _______ _____ _____    ______ ____
ROOT
ATOM      1  N   UNL     1       1.169   9.286  18.827  0.00  0.00    +0.000 N 
ATOM      2  C   UNL     1       1.785   8.308  19.584  0.00  0.00    +0.000 C 
ATOM      3  O   UNL     1       1.648   8.196  20.798  0.00  0.00    +0.000 OA
ATOM      4  H   UNL     1       1.319   9.273  17.818  0.00  0.00    +0.000 HD
ENDROOT
BRANCH   2   5
ATOM      5  C   UNL     1       2.671   7.352  18.842  0.00  0.00    +0.000 A 
ATOM      6  C   UNL     1       2.777   6.036  19.278  0.00  0.00    +0.000 A 
ATOM      7  C   UNL     1       3.634   5.178  18.587  0.00  0.00    +0.000 A 
ATOM      8  C   UNL     1       4.372   5.637  17.472  0.00  0.00    +0.000 A 
ATOM      9  C   UNL     1       4.155   6.973  17.130  0.00  0.00    +0.000 A 
ATOM     10  N   UNL     1       3.337   7.841  17.769  0.00  0.00    +0.000 NA
BRANCH   8  11
ATOM     11  C   UNL     1       5.437   4.726  16.717  0.00  0.00    +0.000 C 
ATOM     12  C   UNL     1       5.382   4.598  15.166  0.00  0.00    +0.000 C 
ATOM     13  C   UNL     1       6.911   4.396  15.206  0.00  0.00    +0.000 C 
ATOM     14  C   UNL     1       6.900   5.223  16.507  0.00  0.00    +0.000 C 
ENDBRANCH   8  11
BRANCH   7  15
ATOM     15  O   UNL     1       3.799   3.850  18.890  0.00  0.00    +0.000 OA
BRANCH  15  16
ATOM     16  C   UNL     1       2.676   3.132  19.420  0.00  0.00    +0.000 C 
BRANCH  16  17
ATOM     17  C   UNL     1       1.730   2.670  18.306  0.00  0.00    +0.000 C 
ATOM     18  F   UNL     1       2.384   2.176  17.232  0.00  0.00    +0.000 F 
ATOM     19  F   UNL     1       0.896   1.700  18.752  0.00  0.00    +0.000 F 
ATOM     20  F   UNL     1       0.958   3.694  17.875  0.00  0.00    +0.000 F 
ENDBRANCH  16  17
ENDBRANCH  15  16
ENDBRANCH   7  15
ENDBRANCH   2   5
BRANCH   1  21
ATOM     21  C   UNL     1       0.254  10.314  19.377  0.00  0.00    +0.000 C 
ATOM     22  C   UNL     1       1.065  11.603  19.656  0.00  0.00    +0.000 C 
BRANCH  21  26
ATOM     23  C   UNL     1      -3.051  10.108  15.619  0.00  0.00    +0.000 C 
ATOM     24  C   UNL     1      -2.173  10.457  16.750  0.00  0.00    +0.000 A 
ATOM     25  N   UNL     1      -1.262   9.746  17.381  0.00  0.00    +0.000 NA
ATOM     26  C   UNL     1      -0.811  10.642  18.333  0.00  0.00    +0.000 A 
ATOM     27  N   UNL     1      -1.407  11.846  18.284  0.00  0.00    +0.000 NA
ATOM     28  O   UNL     1      -2.314  11.720  17.239  0.00  0.00    +0.000 OA
ENDBRANCH  21  26
BRANCH  21  29
ATOM     29  C   UNL     1      -0.448   9.806  20.684  0.00  0.00    +0.000 C 
BRANCH  29  30
ATOM     30  C   UNL     1      -0.225  10.722  21.874  0.00  0.00    +0.000 C 
ATOM     31  C   UNL     1      -1.343  11.511  22.519  0.00  0.00    +0.000 C 
ATOM     32  C   UNL     1      -0.769  10.315  23.221  0.00  0.00    +0.000 C 
ENDBRANCH  29  30
ENDBRANCH  21  29
ENDBRANCH   1  21
TORSDOF 9
ENDMDL
MODEL 2
REMARK VINA RESULT:      -8.3      2.477      3.488
REMARK  Name = 
REMARK  11 active torsions:
REMARK  status: ('A' for Active; 'I' for Inactive)
REMARK    1  A    between atoms: C_1  and  C_2
REMARK    2  A    between atoms: C_4  and  C_5
REMARK    3  A    between atoms: C_5  and  C_6
REMARK    4  A    between atoms: C_5  and  C_7
REMARK    5  A    between atoms: C_5  and  N_11
REMARK    6  A    between atoms: C_7  and  C_8
REMARK    7  A    between atoms: C_12  and  C_14
REMARK    8  A    between atoms: C_16  and  O_17
REMARK    9  A    between atoms: O_17  and  C_18
REMARK   10  A    between atoms: C_18  and  C_19
REMARK   11  A    between atoms: C_23  and  C_24
REMARK                            x       y       z     vdW  Elec       q    Type
REMARK                         _______ _______ _______ _____ _____    ______ ____
ROOT
ATOM      1  N   UNL     1       0.988   9.301  19.201  0.00  0.00    +0.000 N 
ATOM      2  C   UNL     1       1.942   9.038  18.237  0.00  0.00    +0.000 C 
ATOM      3  O   UNL     1       2.329   9.862  17.414  0.00  0.00    +0.000 OA
ATOM      4  H   UNL     1       0.760   8.558  19.861  0.00  0.00    +0.000 HD
ENDROOT
BRANCH   2   5
ATOM      5  C   UNL     1       2.507   7.649  18.222  0.00  0.00    +0.000 A 
ATOM      6  C   UNL     1       3.705   7.403  17.559  0.00  0.00    +0.000 A 
ATOM      7  C   UNL     1       4.190   6.095  17.535  0.00  0.00    +0.000 A 
ATOM      8  C   UNL     1       3.481   5.049  18.170  0.00  0.00    +0.000 A 
ATOM      9  C   UNL     1       2.306   5.439  18.815  0.00  0.00    +0.000 A 
ATOM     10  N   UNL     1       1.797   6.691  18.864  0.00  0.00    +0.000 NA
BRANCH   8  11
ATOM     11  C   UNL     1       3.941   3.527  18.082  0.00  0.00    +0.000 C 
ATOM     12  C   UNL     1       4.145   2.706  19.388  0.00  0.00    +0.000 C 
ATOM     13  C   UNL     1       3.738   1.458  18.576  0.00  0.00    +0.000 C 
ATOM     14  C   UNL     1       2.926   2.413  17.679  0.00  0.00    +0.000 C 
ENDBRANCH   8  11
BRANCH   7  15
ATOM     15  O   UNL     1       5.376   5.726  16.952  0.00  0.00    +0.000 OA
BRANCH  15  16
ATOM     16  C   UNL     1       6.551   6.483  17.272  0.00  0.00    +0.000 C 
BRANCH  16  17
ATOM     17  C   UNL     1       7.327   5.849  18.432  0.00  0.00    +0.000 C 
ATOM     18  F   UNL     1       6.549   5.587  19.505  0.00  0.00    +0.000 F 
ATOM     19  F   UNL     1       7.896   4.680  18.051  0.00  0.00    +0.000 F 
ATOM     20  F   UNL     1       8.325   6.663  18.845  0.00  0.00    +0.000 F 
ENDBRANCH  16  17
ENDBRANCH  15  16
ENDBRANCH   7  15
ENDBRANCH   2   5
BRANCH   1  21
ATOM     21  C   UNL     1       0.321  10.613  19.378  0.00  0.00    +0.000 C 
ATOM     22  C   UNL     1       1.365  11.735  19.156  0.00  0.00    +0.000 C 
BRANCH  21  26
ATOM     23  C   UNL     1      -3.011   9.804  15.727  0.00  0.00    +0.000 C 
ATOM     24  C   UNL     1      -2.137  10.327  16.792  0.00  0.00    +0.000 A 
ATOM     25  N   UNL     1      -1.189   9.739  17.492  0.00  0.00    +0.000 NA
ATOM     26  C   UNL     1      -0.768  10.764  18.318  0.00  0.00    +0.000 A 
ATOM     27  N   UNL     1      -1.416  11.927  18.130  0.00  0.00    +0.000 NA
ATOM     28  O   UNL     1      -2.328  11.634  17.123  0.00  0.00    +0.000 OA
ENDBRANCH  21  26
BRANCH  21  29
ATOM     29  C   UNL     1      -0.328  10.731  20.801  0.00  0.00    +0.000 C 
BRANCH  29  30
ATOM     30  C   UNL     1      -0.166   9.472  21.634  0.00  0.00    +0.000 C 
ATOM     31  C   UNL     1       0.965   9.283  22.619  0.00  0.00    +0.000 C 
ATOM     32  C   UNL     1      -0.426   9.541  23.119  0.00  0.00    +0.000 C 
ENDBRANCH  29  30
ENDBRANCH  21  29
ENDBRANCH   1  21
TORSDOF 9
ENDMDL
MODEL 3
REMARK VINA RESULT:      -8.3      1.743      3.273
REMARK  Name = 
REMARK  11 active torsions:
REMARK  status: ('A' for Active; 'I' for Inactive)
REMARK    1  A    between atoms: C_1  and  C_2
REMARK    2  A    between atoms: C_4  and  C_5
REMARK    3  A    between atoms: C_5  and  C_6
REMARK    4  A    between atoms: C_5  and  C_7
REMARK    5  A    between atoms: C_5  and  N_11
REMARK    6  A    between atoms: C_7  and  C_8
REMARK    7  A    between atoms: C_12  and  C_14
REMARK    8  A    between atoms: C_16  and  O_17
REMARK    9  A    between atoms: O_17  and  C_18
REMARK   10  A    between atoms: C_18  and  C_19
REMARK   11  A    between atoms: C_23  and  C_24
REMARK                            x       y       z     vdW  Elec       q    Type
REMARK                         _______ _______ _______ _____ _____    ______ ____
ROOT
ATOM      1  N   UNL     1       0.995   9.441  18.992  0.00  0.00    +0.000 N 
ATOM      2  C   UNL     1       1.632   8.481  19.755  0.00  0.00    +0.000 C 
ATOM      3  O   UNL     1       1.579   8.435  20.980  0.00  0.00    +0.000 OA
ATOM      4  H   UNL     1       1.073   9.372  17.978  0.00  0.00    +0.000 HD
ENDROOT
BRANCH   2   5
ATOM      5  C   UNL     1       2.431   7.458  19.005  0.00  0.00    +0.000 A 
ATOM      6  C   UNL     1       2.433   6.136  19.438  0.00  0.00    +0.000 A 
ATOM      7  C   UNL     1       3.213   5.214  18.739  0.00  0.00    +0.000 A 
ATOM      8  C   UNL     1       3.978   5.614  17.620  0.00  0.00    +0.000 A 
ATOM      9  C   UNL     1       3.868   6.963  17.282  0.00  0.00    +0.000 A 
ATOM     10  N   UNL     1       3.128   7.894  17.928  0.00  0.00    +0.000 NA
BRANCH   8  11
ATOM     11  C   UNL     1       4.959   4.620  16.855  0.00  0.00    +0.000 C 
ATOM     12  C   UNL     1       5.426   4.958  15.409  0.00  0.00    +0.000 C 
ATOM     13  C   UNL     1       6.730   4.200  15.736  0.00  0.00    +0.000 C 
ATOM     14  C   UNL     1       6.477   4.576  17.209  0.00  0.00    +0.000 C 
ENDBRANCH   8  11
BRANCH   7  15
ATOM     15  O   UNL     1       3.271   3.876  19.038  0.00  0.00    +0.000 OA
BRANCH  15  16
ATOM     16  C   UNL     1       2.979   3.469  20.382  0.00  0.00    +0.000 C 
BRANCH  16  17
ATOM     17  C   UNL     1       1.647   2.716  20.464  0.00  0.00    +0.000 C 
ATOM     18  F   UNL     1       1.557   1.708  19.568  0.00  0.00    +0.000 F 
ATOM     19  F   UNL     1       1.470   2.178  21.695  0.00  0.00    +0.000 F 
ATOM     20  F   UNL     1       0.607   3.551  20.239  0.00  0.00    +0.000 F 
ENDBRANCH  16  17
ENDBRANCH  15  16
ENDBRANCH   7  15
ENDBRANCH   2   5
BRANCH   1  21
ATOM     21  C   UNL     1       0.155  10.528  19.550  0.00  0.00    +0.000 C 
ATOM     22  C   UNL     1      -0.585   9.991  20.799  0.00  0.00    +0.000 C 
BRANCH  21  26
ATOM     23  C   UNL     1       3.263  14.453  19.681  0.00  0.00    +0.000 C 
ATOM     24  C   UNL     1       2.356  13.323  19.946  0.00  0.00    +0.000 A 
ATOM     25  N   UNL     1       1.769  12.481  19.121  0.00  0.00    +0.000 NA
ATOM     26  C   UNL     1       1.058  11.677  19.993  0.00  0.00    +0.000 A 
ATOM     27  N   UNL     1       1.208  12.001  21.289  0.00  0.00    +0.000 NA
ATOM     28  O   UNL     1       2.063  13.096  21.256  0.00  0.00    +0.000 OA
ENDBRANCH  21  26
BRANCH  21  29
ATOM     29  C   UNL     1      -0.865  11.058  18.484  0.00  0.00    +0.000 C 
BRANCH  29  30
ATOM     30  C   UNL     1      -1.801   9.980  17.968  0.00  0.00    +0.000 C 
ATOM     31  C   UNL     1      -3.261  10.237  17.671  0.00  0.00    +0.000 C 
ATOM     32  C   UNL     1      -2.289  10.058  16.542  0.00  0.00    +0.000 C 
ENDBRANCH  29  30
ENDBRANCH  21  29
ENDBRANCH   1  21
TORSDOF 9
ENDMDL
MODEL 4
REMARK VINA RESULT:      -8.2      2.107      3.287
REMARK  Name = 
REMARK  11 active torsions:
REMARK  status: ('A' for Active; 'I' for Inactive)
REMARK    1  A    between atoms: C_1  and  C_2
REMARK    2  A    between atoms: C_4  and  C_5
REMARK    3  A    between atoms: C_5  and  C_6
REMARK    4  A    between atoms: C_5  and  C_7
REMARK    5  A    between atoms: C_5  and  N_11
REMARK    6  A    between atoms: C_7  and  C_8
REMARK    7  A    between atoms: C_12  and  C_14
REMARK    8  A    between atoms: C_16  and  O_17
REMARK    9  A    between atoms: O_17  and  C_18
REMARK   10  A    between atoms: C_18  and  C_19
REMARK   11  A    between atoms: C_23  and  C_24
REMARK                            x       y       z     vdW  Elec       q    Type
REMARK                         _______ _______ _______ _____ _____    ______ ____
ROOT
ATOM      1  N   UNL     1       1.098   9.408  19.203  0.00  0.00    +0.000 N 
ATOM      2  C   UNL     1       2.007   9.094  18.212  0.00  0.00    +0.000 C 
ATOM      3  O   UNL     1       2.373   9.882  17.345  0.00  0.00    +0.000 OA
ATOM      4  H   UNL     1       0.885   8.692  19.898  0.00  0.00    +0.000 HD
ENDROOT
BRANCH   2   5
ATOM      5  C   UNL     1       2.549   7.696  18.224  0.00  0.00    +0.000 A 
ATOM      6  C   UNL     1       3.701   7.400  17.504  0.00  0.00    +0.000 A 
ATOM      7  C   UNL     1       4.164   6.083  17.509  0.00  0.00    +0.000 A 
ATOM      8  C   UNL     1       3.477   5.078  18.229  0.00  0.00    +0.000 A 
ATOM      9  C   UNL     1       2.349   5.516  18.923  0.00  0.00    +0.000 A 
ATOM     10  N   UNL     1       1.863   6.779  18.948  0.00  0.00    +0.000 NA
BRANCH   8  11
ATOM     11  C   UNL     1       3.908   3.546  18.180  0.00  0.00    +0.000 C 
ATOM     12  C   UNL     1       3.921   2.707  19.491  0.00  0.00    +0.000 C 
ATOM     13  C   UNL     1       3.593   1.478  18.616  0.00  0.00    +0.000 C 
ATOM     14  C   UNL     1       2.927   2.463  17.635  0.00  0.00    +0.000 C 
ENDBRANCH   8  11
BRANCH   7  15
ATOM     15  O   UNL     1       5.307   5.669  16.874  0.00  0.00    +0.000 OA
BRANCH  15  16
ATOM     16  C   UNL     1       5.342   5.721  15.441  0.00  0.00    +0.000 C 
BRANCH  16  17
ATOM     17  C   UNL     1       5.997   4.467  14.850  0.00  0.00    +0.000 C 
ATOM     18  F   UNL     1       5.923   3.398  15.673  0.00  0.00    +0.000 F 
ATOM     19  F   UNL     1       5.407   4.118  13.682  0.00  0.00    +0.000 F 
ATOM     20  F   UNL     1       7.306   4.686  14.588  0.00  0.00    +0.000 F 
ENDBRANCH  16  17
ENDBRANCH  15  16
ENDBRANCH   7  15
ENDBRANCH   2   5
BRANCH   1  21
ATOM     21  C   UNL     1       0.459  10.736  19.359  0.00  0.00    +0.000 C 
ATOM     22  C   UNL     1       1.495  11.830  18.999  0.00  0.00    +0.000 C 
BRANCH  21  26
ATOM     23  C   UNL     1      -3.062   9.814  15.919  0.00  0.00    +0.000 C 
ATOM     24  C   UNL     1      -2.149  10.364  16.936  0.00  0.00    +0.000 A 
ATOM     25  N   UNL     1      -1.125   9.816  17.557  0.00  0.00    +0.000 NA
ATOM     26  C   UNL     1      -0.706  10.847  18.378  0.00  0.00    +0.000 A 
ATOM     27  N   UNL     1      -1.427  11.975  18.260  0.00  0.00    +0.000 NA
ATOM     28  O   UNL     1      -2.388  11.652  17.309  0.00  0.00    +0.000 OA
ENDBRANCH  21  26
BRANCH  21  29
ATOM     29  C   UNL     1      -0.079  10.938  20.818  0.00  0.00    +0.000 C 
BRANCH  29  30
ATOM     30  C   UNL     1      -0.190   9.639  21.596  0.00  0.00    +0.000 C 
ATOM     31  C   UNL     1       0.789   9.247  22.679  0.00  0.00    +0.000 C 
ATOM     32  C   UNL     1      -0.596   9.689  23.048  0.00  0.00    +0.000 C 
ENDBRANCH  29  30
ENDBRANCH  21  29
ENDBRANCH   1  21
TORSDOF 9
ENDMDL
MODEL 5
REMARK VINA RESULT:      -8.1      1.252      1.427
REMARK  Name = 
REMARK  11 active torsions:
REMARK  status: ('A' for Active; 'I' for Inactive)
REMARK    1  A    between atoms: C_1  and  C_2
REMARK    2  A    between atoms: C_4  and  C_5
REMARK    3  A    between atoms: C_5  and  C_6
REMARK    4  A    between atoms: C_5  and  C_7
REMARK    5  A    between atoms: C_5  and  N_11
REMARK    6  A    between atoms: C_7  and  C_8
REMARK    7  A    between atoms: C_12  and  C_14
REMARK    8  A    between atoms: C_16  and  O_17
REMARK    9  A    between atoms: O_17  and  C_18
REMARK   10  A    between atoms: C_18  and  C_19
REMARK   11  A    between atoms: C_23  and  C_24
REMARK                            x       y       z     vdW  Elec       q    Type
REMARK                         _______ _______ _______ _____ _____    ______ ____
ROOT
ATOM      1  N   UNL     1       0.905   9.261  18.811  0.00  0.00    +0.000 N 
ATOM      2  C   UNL     1       1.664   8.414  19.595  0.00  0.00    +0.000 C 
ATOM      3  O   UNL     1       1.709   8.473  20.820  0.00  0.00    +0.000 OA
ATOM      4  H   UNL     1       0.910   9.107  17.802  0.00  0.00    +0.000 HD
ENDROOT
BRANCH   2   5
ATOM      5  C   UNL     1       2.473   7.381  18.869  0.00  0.00    +0.000 A 
ATOM      6  C   UNL     1       2.415   6.053  19.278  0.00  0.00    +0.000 A 
ATOM      7  C   UNL     1       3.204   5.120  18.604  0.00  0.00    +0.000 A 
ATOM      8  C   UNL     1       4.038   5.516  17.533  0.00  0.00    +0.000 A 
ATOM      9  C   UNL     1       3.984   6.874  17.214  0.00  0.00    +0.000 A 
ATOM     10  N   UNL     1       3.237   7.815  17.838  0.00  0.00    +0.000 NA
BRANCH   8  11
ATOM     11  C   UNL     1       5.030   4.508  16.802  0.00  0.00    +0.000 C 
ATOM     12  C   UNL     1       5.398   4.734  15.307  0.00  0.00    +0.000 C 
ATOM     13  C   UNL     1       6.758   4.076  15.621  0.00  0.00    +0.000 C 
ATOM     14  C   UNL     1       6.565   4.573  17.068  0.00  0.00    +0.000 C 
ENDBRANCH   8  11
BRANCH   7  15
ATOM     15  O   UNL     1       3.209   3.776  18.880  0.00  0.00    +0.000 OA
BRANCH  15  16
ATOM     16  C   UNL     1       2.092   3.228  19.594  0.00  0.00    +0.000 C 
BRANCH  16  17
ATOM     17  C   UNL     1       2.456   2.912  21.049  0.00  0.00    +0.000 C 
ATOM     18  F   UNL     1       3.677   2.348  21.174  0.00  0.00    +0.000 F 
ATOM     19  F   UNL     1       2.453   4.037  21.804  0.00  0.00    +0.000 F 
ATOM     20  F   UNL     1       1.559   2.061  21.596  0.00  0.00    +0.000 F 
ENDBRANCH  16  17
ENDBRANCH  15  16
ENDBRANCH   7  15
ENDBRANCH   2   5
BRANCH   1  21
ATOM     21  C   UNL     1       0.037  10.337  19.343  0.00  0.00    +0.000 C 
ATOM     22  C   UNL     1       0.896  11.608  19.557  0.00  0.00    +0.000 C 
BRANCH  21  26
ATOM     23  C   UNL     1      -3.070  10.262  15.415  0.00  0.00    +0.000 C 
ATOM     24  C   UNL     1      -2.302  10.541  16.641  0.00  0.00    +0.000 A 
ATOM     25  N   UNL     1      -1.294   9.896  17.190  0.00  0.00    +0.000 NA
ATOM     26  C   UNL     1      -1.041  10.663  18.311  0.00  0.00    +0.000 A 
ATOM     27  N   UNL     1      -1.844  11.734  18.441  0.00  0.00    +0.000 NA
ATOM     28  O   UNL     1      -2.684  11.648  17.337  0.00  0.00    +0.000 OA
ENDBRANCH  21  26
BRANCH  21  29
ATOM     29  C   UNL     1      -0.651   9.899  20.683  0.00  0.00    +0.000 C 
BRANCH  29  30
ATOM     30  C   UNL     1      -0.398  10.867  21.825  0.00  0.00    +0.000 C 
ATOM     31  C   UNL     1      -1.510  11.615  22.524  0.00  0.00    +0.000 C 
ATOM     32  C   UNL     1      -0.823  10.477  23.219  0.00  0.00    +0.000 C 
ENDBRANCH  29  30
ENDBRANCH  21  29
ENDBRANCH   1  21
TORSDOF 9
ENDMDL
MODEL 6
REMARK VINA RESULT:      -8.1      2.530      4.406
REMARK  Name = 
REMARK  11 active torsions:
REMARK  status: ('A' for Active; 'I' for Inactive)
REMARK    1  A    between atoms: C_1  and  C_2
REMARK    2  A    between atoms: C_4  and  C_5
REMARK    3  A    between atoms: C_5  and  C_6
REMARK    4  A    between atoms: C_5  and  C_7
REMARK    5  A    between atoms: C_5  and  N_11
REMARK    6  A    between atoms: C_7  and  C_8
REMARK    7  A    between atoms: C_12  and  C_14
REMARK    8  A    between atoms: C_16  and  O_17
REMARK    9  A    between atoms: O_17  and  C_18
REMARK   10  A    between atoms: C_18  and  C_19
REMARK   11  A    between atoms: C_23  and  C_24
REMARK                            x       y       z     vdW  Elec       q    Type
REMARK                         _______ _______ _______ _____ _____    ______ ____
ROOT
ATOM      1  N   UNL     1       1.289   9.401  19.402  0.00  0.00    +0.000 N 
ATOM      2  C   UNL     1       2.001   8.970  18.299  0.00  0.00    +0.000 C 
ATOM      3  O   UNL     1       2.159   9.640  17.283  0.00  0.00    +0.000 OA
ATOM      4  H   UNL     1       1.245   8.782  20.212  0.00  0.00    +0.000 HD
ENDROOT
BRANCH   2   5
ATOM      5  C   UNL     1       2.592   7.595  18.384  0.00  0.00    +0.000 A 
ATOM      6  C   UNL     1       3.691   7.270  17.596  0.00  0.00    +0.000 A 
ATOM      7  C   UNL     1       4.199   5.972  17.673  0.00  0.00    +0.000 A 
ATOM      8  C   UNL     1       3.610   5.015  18.531  0.00  0.00    +0.000 A 
ATOM      9  C   UNL     1       2.528   5.480  19.280  0.00  0.00    +0.000 A 
ATOM     10  N   UNL     1       2.001   6.726  19.239  0.00  0.00    +0.000 NA
BRANCH   8  11
ATOM     11  C   UNL     1       4.090   3.498  18.577  0.00  0.00    +0.000 C 
ATOM     12  C   UNL     1       3.629   2.577  19.745  0.00  0.00    +0.000 C 
ATOM     13  C   UNL     1       3.718   1.401  18.750  0.00  0.00    +0.000 C 
ATOM     14  C   UNL     1       3.444   2.433  17.638  0.00  0.00    +0.000 C 
ENDBRANCH   8  11
BRANCH   7  15
ATOM     15  O   UNL     1       5.300   5.537  16.980  0.00  0.00    +0.000 OA
BRANCH  15  16
ATOM     16  C   UNL     1       5.302   5.680  15.553  0.00  0.00    +0.000 C 
BRANCH  16  17
ATOM     17  C   UNL     1       5.921   4.458  14.868  0.00  0.00    +0.000 C 
ATOM     18  F   UNL     1       5.920   3.358  15.653  0.00  0.00    +0.000 F 
ATOM     19  F   UNL     1       5.246   4.144  13.735  0.00  0.00    +0.000 F 
ATOM     20  F   UNL     1       7.203   4.701  14.514  0.00  0.00    +0.000 F 
ENDBRANCH  16  17
ENDBRANCH  15  16
ENDBRANCH   7  15
ENDBRANCH   2   5
BRANCH   1  21
ATOM     21  C   UNL     1       0.640  10.729  19.509  0.00  0.00    +0.000 C 
ATOM     22  C   UNL     1      -0.528  10.793  18.496  0.00  0.00    +0.000 C 
BRANCH  21  26
ATOM     23  C   UNL     1      -2.278  11.808  23.435  0.00  0.00    +0.000 C 
ATOM     24  C   UNL     1      -1.234  11.373  22.491  0.00  0.00    +0.000 A 
ATOM     25  N   UNL     1      -1.146  11.510  21.184  0.00  0.00    +0.000 NA
ATOM     26  C   UNL     1       0.057  10.886  20.913  0.00  0.00    +0.000 A 
ATOM     27  N   UNL     1       0.685  10.400  21.998  0.00  0.00    +0.000 NA
ATOM     28  O   UNL     1      -0.176  10.717  23.042  0.00  0.00    +0.000 OA
ENDBRANCH  21  26
BRANCH  21  29
ATOM     29  C   UNL     1       1.667  11.885  19.248  0.00  0.00    +0.000 C 
BRANCH  29  30
ATOM     30  C   UNL     1       1.032  13.115  18.625  0.00  0.00    +0.000 C 
ATOM     31  C   UNL     1       0.723  14.365  19.417  0.00  0.00    +0.000 C 
ATOM     32  C   UNL     1       1.869  14.358  18.449  0.00  0.00    +0.000 C 
ENDBRANCH  29  30
ENDBRANCH  21  29
ENDBRANCH   1  21
TORSDOF 9
ENDMDL
MODEL 7
REMARK VINA RESULT:      -8.0      1.789      3.317
REMARK  Name = 
REMARK  11 active torsions:
REMARK  status: ('A' for Active; 'I' for Inactive)
REMARK    1  A    between atoms: C_1  and  C_2
REMARK    2  A    between atoms: C_4  and  C_5
REMARK    3  A    between atoms: C_5  and  C_6
REMARK    4  A    between atoms: C_5  and  C_7
REMARK    5  A    between atoms: C_5  and  N_11
REMARK    6  A    between atoms: C_7  and  C_8
REMARK    7  A    between atoms: C_12  and  C_14
REMARK    8  A    between atoms: C_16  and  O_17
REMARK    9  A    between atoms: O_17  and  C_18
REMARK   10  A    between atoms: C_18  and  C_19
REMARK   11  A    between atoms: C_23  and  C_24
REMARK                            x       y       z     vdW  Elec       q    Type
REMARK                         _______ _______ _______ _____ _____    ______ ____
ROOT
ATOM      1  N   UNL     1       1.075   9.368  18.670  0.00  0.00    +0.000 N 
ATOM      2  C   UNL     1       1.746   8.379  19.365  0.00  0.00    +0.000 C 
ATOM      3  O   UNL     1       1.708   8.256  20.585  0.00  0.00    +0.000 OA
ATOM      4  H   UNL     1       1.143   9.364  17.652  0.00  0.00    +0.000 HD
ENDROOT
BRANCH   2   5
ATOM      5  C   UNL     1       2.563   7.427  18.544  0.00  0.00    +0.000 A 
ATOM      6  C   UNL     1       2.216   6.081  18.508  0.00  0.00    +0.000 A 
ATOM      7  C   UNL     1       3.015   5.213  17.761  0.00  0.00    +0.000 A 
ATOM      8  C   UNL     1       4.146   5.693  17.061  0.00  0.00    +0.000 A 
ATOM      9  C   UNL     1       4.366   7.067  17.166  0.00  0.00    +0.000 A 
ATOM     10  N   UNL     1       3.622   7.946  17.877  0.00  0.00    +0.000 NA
BRANCH   8  11
ATOM     11  C   UNL     1       5.143   4.727  16.281  0.00  0.00    +0.000 C 
ATOM     12  C   UNL     1       5.662   5.129  14.870  0.00  0.00    +0.000 C 
ATOM     13  C   UNL     1       6.947   4.341  15.203  0.00  0.00    +0.000 C 
ATOM     14  C   UNL     1       6.647   4.647  16.684  0.00  0.00    +0.000 C 
ENDBRANCH   8  11
BRANCH   7  15
ATOM     15  O   UNL     1       2.760   3.873  17.611  0.00  0.00    +0.000 OA
BRANCH  15  16
ATOM     16  C   UNL     1       1.768   3.274  18.456  0.00  0.00    +0.000 C 
BRANCH  16  17
ATOM     17  C   UNL     1       2.407   2.374  19.519  0.00  0.00    +0.000 C 
ATOM     18  F   UNL     1       3.419   2.978  20.180  0.00  0.00    +0.000 F 
ATOM     19  F   UNL     1       1.493   1.993  20.443  0.00  0.00    +0.000 F 
ATOM     20  F   UNL     1       2.904   1.247  18.960  0.00  0.00    +0.000 F 
ENDBRANCH  16  17
ENDBRANCH  15  16
ENDBRANCH   7  15
ENDBRANCH   2   5
BRANCH   1  21
ATOM     21  C   UNL     1       0.214  10.394  19.303  0.00  0.00    +0.000 C 
ATOM     22  C   UNL     1      -0.520   9.753  20.506  0.00  0.00    +0.000 C 
BRANCH  21  26
ATOM     23  C   UNL     1       3.255  14.350  19.738  0.00  0.00    +0.000 C 
ATOM     24  C   UNL     1       2.365  13.190  19.914  0.00  0.00    +0.000 A 
ATOM     25  N   UNL     1       1.798  12.398  19.027  0.00  0.00    +0.000 NA
ATOM     26  C   UNL     1       1.094  11.524  19.834  0.00  0.00    +0.000 A 
ATOM     27  N   UNL     1       1.228  11.758  21.151  0.00  0.00    +0.000 NA
ATOM     28  O   UNL     1       2.065  12.866  21.203  0.00  0.00    +0.000 OA
ENDBRANCH  21  26
BRANCH  21  29
ATOM     29  C   UNL     1      -0.813  10.984  18.275  0.00  0.00    +0.000 C 
BRANCH  29  30
ATOM     30  C   UNL     1      -1.553   9.913  17.493  0.00  0.00    +0.000 C 
ATOM     31  C   UNL     1      -3.051   9.729  17.576  0.00  0.00    +0.000 C 
ATOM     32  C   UNL     1      -2.439  10.329  16.344  0.00  0.00    +0.000 C 
ENDBRANCH  29  30
ENDBRANCH  21  29
ENDBRANCH   1  21
TORSDOF 9
ENDMDL
MODEL 8
REMARK VINA RESULT:      -8.0      2.540      4.458
REMARK  Name = 
REMARK  11 active torsions:
REMARK  status: ('A' for Active; 'I' for Inactive)
REMARK    1  A    between atoms: C_1  and  C_2
REMARK    2  A    between atoms: C_4  and  C_5
REMARK    3  A    between atoms: C_5  and  C_6
REMARK    4  A    between atoms: C_5  and  C_7
REMARK    5  A    between atoms: C_5  and  N_11
REMARK    6  A    between atoms: C_7  and  C_8
REMARK    7  A    between atoms: C_12  and  C_14
REMARK    8  A    between atoms: C_16  and  O_17
REMARK    9  A    between atoms: O_17  and  C_18
REMARK   10  A    between atoms: C_18  and  C_19
REMARK   11  A    between atoms: C_23  and  C_24
REMARK                            x       y       z     vdW  Elec       q    Type
REMARK                         _______ _______ _______ _____ _____    ______ ____
ROOT
ATOM      1  N   UNL     1       0.959   9.293  19.419  0.00  0.00    +0.000 N 
ATOM      2  C   UNL     1       1.835   8.997  18.392  0.00  0.00    +0.000 C 
ATOM      3  O   UNL     1       2.072   9.753  17.455  0.00  0.00    +0.000 OA
ATOM      4  H   UNL     1       0.858   8.611  20.170  0.00  0.00    +0.000 HD
ENDROOT
BRANCH   2   5
ATOM      5  C   UNL     1       2.510   7.659  18.458  0.00  0.00    +0.000 A 
ATOM      6  C   UNL     1       3.645   7.424  17.689  0.00  0.00    +0.000 A 
ATOM      7  C   UNL     1       4.231   6.159  17.747  0.00  0.00    +0.000 A 
ATOM      8  C   UNL     1       3.686   5.146  18.568  0.00  0.00    +0.000 A 
ATOM      9  C   UNL     1       2.560   5.523  19.301  0.00  0.00    +0.000 A 
ATOM     10  N   UNL     1       1.956   6.733  19.277  0.00  0.00    +0.000 NA
BRANCH   8  11
ATOM     11  C   UNL     1       4.259   3.660  18.589  0.00  0.00    +0.000 C 
ATOM     12  C   UNL     1       4.039   2.766  19.843  0.00  0.00    +0.000 C 
ATOM     13  C   UNL     1       4.047   1.555  18.886  0.00  0.00    +0.000 C 
ATOM     14  C   UNL     1       3.544   2.523  17.796  0.00  0.00    +0.000 C 
ENDBRANCH   8  11
BRANCH   7  15
ATOM     15  O   UNL     1       5.374   5.811  17.071  0.00  0.00    +0.000 OA
BRANCH  15  16
ATOM     16  C   UNL     1       5.264   5.497  15.676  0.00  0.00    +0.000 C 
BRANCH  16  17
ATOM     17  C   UNL     1       6.282   4.428  15.261  0.00  0.00    +0.000 C 
ATOM     18  F   UNL     1       6.512   4.410  13.930  0.00  0.00    +0.000 F 
ATOM     19  F   UNL     1       7.473   4.631  15.873  0.00  0.00    +0.000 F 
ATOM     20  F   UNL     1       5.855   3.195  15.615  0.00  0.00    +0.000 F 
ENDBRANCH  16  17
ENDBRANCH  15  16
ENDBRANCH   7  15
ENDBRANCH   2   5
BRANCH   1  21
ATOM     21  C   UNL     1       0.206  10.564  19.531  0.00  0.00    +0.000 C 
ATOM     22  C   UNL     1      -0.809  10.439  20.693  0.00  0.00    +0.000 C 
BRANCH  21  26
ATOM     23  C   UNL     1       3.321  14.483  19.338  0.00  0.00    +0.000 C 
ATOM     24  C   UNL     1       2.463  13.339  19.693  0.00  0.00    +0.000 A 
ATOM     25  N   UNL     1       1.739  12.540  18.937  0.00  0.00    +0.000 NA
ATOM     26  C   UNL     1       1.180  11.691  19.874  0.00  0.00    +0.000 A 
ATOM     27  N   UNL     1       1.549  11.946  21.141  0.00  0.00    +0.000 NA
ATOM     28  O   UNL     1       2.394  13.043  21.021  0.00  0.00    +0.000 OA
ENDBRANCH  21  26
BRANCH  21  29
ATOM     29  C   UNL     1      -0.526  10.910  18.188  0.00  0.00    +0.000 C 
BRANCH  29  30
ATOM     30  C   UNL     1      -1.655   9.949  17.862  0.00  0.00    +0.000 C 
ATOM     31  C   UNL     1      -3.088  10.399  17.688  0.00  0.00    +0.000 C 
ATOM     32  C   UNL     1      -2.280   9.995  16.490  0.00  0.00    +0.000 C 
ENDBRANCH  29  30
ENDBRANCH  21  29
ENDBRANCH   1  21
TORSDOF 9
ENDMDL
MODEL 9
REMARK VINA RESULT:      -7.9      2.562      3.583
REMARK  Name = 
REMARK  11 active torsions:
REMARK  status: ('A' for Active; 'I' for Inactive)
REMARK    1  A    between atoms: C_1  and  C_2
REMARK    2  A    between atoms: C_4  and  C_5
REMARK    3  A    between atoms: C_5  and  C_6
REMARK    4  A    between atoms: C_5  and  C_7
REMARK    5  A    between atoms: C_5  and  N_11
REMARK    6  A    between atoms: C_7  and  C_8
REMARK    7  A    between atoms: C_12  and  C_14
REMARK    8  A    between atoms: C_16  and  O_17
REMARK    9  A    between atoms: O_17  and  C_18
REMARK   10  A    between atoms: C_18  and  C_19
REMARK   11  A    between atoms: C_23  and  C_24
REMARK                            x       y       z     vdW  Elec       q    Type
REMARK                         _______ _______ _______ _____ _____    ______ ____
ROOT
ATOM      1  N   UNL     1       1.174   9.412  19.228  0.00  0.00    +0.000 N 
ATOM      2  C   UNL     1       2.013   9.087  18.179  0.00  0.00    +0.000 C 
ATOM      3  O   UNL     1       2.313   9.864  17.278  0.00  0.00    +0.000 OA
ATOM      4  H   UNL     1       1.015   8.706  19.946  0.00  0.00    +0.000 HD
ENDROOT
BRANCH   2   5
ATOM      5  C   UNL     1       2.562   7.692  18.174  0.00  0.00    +0.000 A 
ATOM      6  C   UNL     1       3.774   7.434  17.541  0.00  0.00    +0.000 A 
ATOM      7  C   UNL     1       4.244   6.120  17.525  0.00  0.00    +0.000 A 
ATOM      8  C   UNL     1       3.506   5.080  18.137  0.00  0.00    +0.000 A 
ATOM      9  C   UNL     1       2.320   5.482  18.753  0.00  0.00    +0.000 A 
ATOM     10  N   UNL     1       1.824   6.741  18.794  0.00  0.00    +0.000 NA
BRANCH   8  11
ATOM     11  C   UNL     1       3.950   3.554  18.055  0.00  0.00    +0.000 C 
ATOM     12  C   UNL     1       4.215   2.756  19.365  0.00  0.00    +0.000 C 
ATOM     13  C   UNL     1       3.759   1.496  18.598  0.00  0.00    +0.000 C 
ATOM     14  C   UNL     1       2.909   2.441  17.726  0.00  0.00    +0.000 C 
ENDBRANCH   8  11
BRANCH   7  15
ATOM     15  O   UNL     1       5.440   5.739  16.971  0.00  0.00    +0.000 OA
BRANCH  15  16
ATOM     16  C   UNL     1       6.621   6.461  17.350  0.00  0.00    +0.000 C 
BRANCH  16  17
ATOM     17  C   UNL     1       7.374   5.749  18.479  0.00  0.00    +0.000 C 
ATOM     18  F   UNL     1       8.443   6.447  18.921  0.00  0.00    +0.000 F 
ATOM     19  F   UNL     1       6.563   5.537  19.543  0.00  0.00    +0.000 F 
ATOM     20  F   UNL     1       7.822   4.539  18.071  0.00  0.00    +0.000 F 
ENDBRANCH  16  17
ENDBRANCH  15  16
ENDBRANCH   7  15
ENDBRANCH   2   5
BRANCH   1  21
ATOM     21  C   UNL     1       0.541  10.740  19.410  0.00  0.00    +0.000 C 
ATOM     22  C   UNL     1       1.424  11.809  18.721  0.00  0.00    +0.000 C 
BRANCH  21  26
ATOM     23  C   UNL     1      -4.180  11.705  18.044  0.00  0.00    +0.000 C 
ATOM     24  C   UNL     1      -2.801  11.218  18.219  0.00  0.00    +0.000 A 
ATOM     25  N   UNL     1      -1.881  11.543  19.103  0.00  0.00    +0.000 NA
ATOM     26  C   UNL     1      -0.823  10.739  18.722  0.00  0.00    +0.000 A 
ATOM     27  N   UNL     1      -1.082   9.950  17.664  0.00  0.00    +0.000 NA
ATOM     28  O   UNL     1      -2.391  10.273  17.328  0.00  0.00    +0.000 OA
ENDBRANCH  21  26
BRANCH  21  29
ATOM     29  C   UNL     1       0.349  11.072  20.930  0.00  0.00    +0.000 C 
BRANCH  29  30
ATOM     30  C   UNL     1      -0.208   9.906  21.727  0.00  0.00    +0.000 C 
ATOM     31  C   UNL     1       0.455   9.382  22.981  0.00  0.00    +0.000 C 
ATOM     32  C   UNL     1      -0.817  10.172  23.082  0.00  0.00    +0.000 C 
ENDBRANCH  29  30
ENDBRANCH  21  29
ENDBRANCH   1  21
TORSDOF 9
ENDMDL
