MODEL 1
REMARK VINA RESULT:      -7.2      0.000      0.000
REMARK  Name = 
REMARK  4 active torsions:
REMARK  status: ('A' for Active; 'I' for Inactive)
REMARK    1  A    between atoms: C_2  and  C_4
REMARK    2  A    between atoms: C_4  and  N_5
REMARK    3  A    between atoms: C_9  and  C_10
REMARK    4  A    between atoms: C_10  and  C_11
REMARK                            x       y       z     vdW  Elec       q    Type
REMARK                         _______ _______ _______ _____ _____    ______ ____
ROOT
ATOM      1  N   UNL     1       5.192   4.996  15.997  0.00  0.00    +0.000 NA
ATOM      2  C   UNL     1       5.036   6.466  15.935  0.00  0.00    +0.000 C 
ATOM      3  C   UNL     1       5.306   6.956  17.340  0.00  0.00    +0.000 C 
ATOM      4  C   UNL     1       4.616   5.906  18.182  0.00  0.00    +0.000 C 
ATOM      5  C   UNL     1       4.722   4.608  17.362  0.00  0.00    +0.000 C 
ENDROOT
BRANCH   1   6
ATOM      6  C   UNL     1       6.619   4.606  15.823  0.00  0.00    +0.000 C 
BRANCH   6   8
ATOM      7  N   UNL     1       6.414   3.721  13.551  0.00  0.00    +0.000 N 
ATOM      8  C   UNL     1       7.026   4.647  14.347  0.00  0.00    +0.000 C 
ATOM      9  O   UNL     1       7.850   5.434  13.891  0.00  0.00    +0.000 OA
ATOM     10  H   UNL     1       6.556   3.812  12.556  0.00  0.00    +0.000 HD
ATOM     11  H   UNL     1       5.546   3.308  13.878  0.00  0.00    +0.000 HD
ENDBRANCH   6   8
ENDBRANCH   1   6
BRANCH   5  12
ATOM     12  C   UNL     1       3.372   3.856  17.276  0.00  0.00    +0.000 C 
BRANCH  12  13
ATOM     13  C   UNL     1       2.752   3.563  18.627  0.00  0.00    +0.000 A 
ATOM     14  C   UNL     1       3.473   2.846  19.596  0.00  0.00    +0.000 A 
ATOM     15  C   UNL     1       2.890   2.524  20.823  0.00  0.00    +0.000 A 
ATOM     16  C   UNL     1       1.586   2.925  21.086  0.00  0.00    +0.000 A 
ATOM     17  F   UNL     1       1.018   2.598  22.254  0.00  0.00    +0.000 F 
ATOM     18  C   UNL     1       0.863   3.658  20.152  0.00  0.00    +0.000 A 
ATOM     19  C   UNL     1       1.445   3.983  18.927  0.00  0.00    +0.000 A 
ENDBRANCH  12  13
ENDBRANCH   5  12
TORSDOF 4
ENDMDL
MODEL 2
REMARK VINA RESULT:      -7.1      0.102      1.175
REMARK  Name = 
REMARK  4 active torsions:
REMARK  status: ('A' for Active; 'I' for Inactive)
REMARK    1  A    between atoms: C_2  and  C_4
REMARK    2  A    between atoms: C_4  and  N_5
REMARK    3  A    between atoms: C_9  and  C_10
REMARK    4  A    between atoms: C_10  and  C_11
REMARK                            x       y       z     vdW  Elec       q    Type
REMARK                         _______ _______ _______ _____ _____    ______ ____
ROOT
ATOM      1  N   UNL     1       5.187   4.961  15.988  0.00  0.00    +0.000 NA
ATOM      2  C   UNL     1       5.012   6.429  15.939  0.00  0.00    +0.000 C 
ATOM      3  C   UNL     1       5.250   6.906  17.355  0.00  0.00    +0.000 C 
ATOM      4  C   UNL     1       4.559   5.838  18.172  0.00  0.00    +0.000 C 
ATOM      5  C   UNL     1       4.697   4.551  17.339  0.00  0.00    +0.000 C 
ENDROOT
BRANCH   1   6
ATOM      6  C   UNL     1       6.622   4.592  15.835  0.00  0.00    +0.000 C 
BRANCH   6   8
ATOM      7  N   UNL     1       6.485   3.721  13.554  0.00  0.00    +0.000 N 
ATOM      8  C   UNL     1       7.056   4.657  14.368  0.00  0.00    +0.000 C 
ATOM      9  O   UNL     1       7.866   5.470  13.935  0.00  0.00    +0.000 OA
ATOM     10  H   UNL     1       6.644   3.825  12.561  0.00  0.00    +0.000 HD
ATOM     11  H   UNL     1       5.623   3.281  13.860  0.00  0.00    +0.000 HD
ENDBRANCH   6   8
ENDBRANCH   1   6
BRANCH   5  12
ATOM     12  C   UNL     1       3.359   3.783  17.220  0.00  0.00    +0.000 C 
BRANCH  12  13
ATOM     13  C   UNL     1       2.736   3.434  18.556  0.00  0.00    +0.000 A 
ATOM     14  C   UNL     1       1.395   3.760  18.819  0.00  0.00    +0.000 A 
ATOM     15  C   UNL     1       0.830   3.493  20.067  0.00  0.00    +0.000 A 
ATOM     16  C   UNL     1       1.602   2.892  21.053  0.00  0.00    +0.000 A 
ATOM     17  F   UNL     1       1.067   2.654  22.257  0.00  0.00    +0.000 F 
ATOM     18  C   UNL     1       2.923   2.537  20.807  0.00  0.00    +0.000 A 
ATOM     19  C   UNL     1       3.489   2.801  19.559  0.00  0.00    +0.000 A 
ENDBRANCH  12  13
ENDBRANCH   5  12
TORSDOF 4
ENDMDL
MODEL 3
REMARK VINA RESULT:      -7.1      1.102      1.449
REMARK  Name = 
REMARK  4 active torsions:
REMARK  status: ('A' for Active; 'I' for Inactive)
REMARK    1  A    between atoms: C_2  and  C_4
REMARK    2  A    between atoms: C_4  and  N_5
REMARK    3  A    between atoms: C_9  and  C_10
REMARK    4  A    between atoms: C_10  and  C_11
REMARK                            x       y       z     vdW  Elec       q    Type
REMARK                         _______ _______ _______ _____ _____    ______ ____
ROOT
ATOM      1  N   UNL     1       5.918   5.315  16.612  0.00  0.00    +0.000 NA
ATOM      2  C   UNL     1       6.693   6.425  17.207  0.00  0.00    +0.000 C 
ATOM      3  C   UNL     1       7.074   5.948  18.591  0.00  0.00    +0.000 C 
ATOM      4  C   UNL     1       5.814   5.245  19.044  0.00  0.00    +0.000 C 
ATOM      5  C   UNL     1       5.185   4.690  17.754  0.00  0.00    +0.000 C 
ENDROOT
BRANCH   1   6
ATOM      6  C   UNL     1       6.823   4.314  15.981  0.00  0.00    +0.000 C 
BRANCH   6   8
ATOM      7  N   UNL     1       6.271   3.718  13.674  0.00  0.00    +0.000 N 
ATOM      8  C   UNL     1       6.971   4.572  14.479  0.00  0.00    +0.000 C 
ATOM      9  O   UNL     1       7.671   5.462  14.008  0.00  0.00    +0.000 OA
ATOM     10  H   UNL     1       6.238   3.946  12.690  0.00  0.00    +0.000 HD
ATOM     11  H   UNL     1       5.490   3.211  14.077  0.00  0.00    +0.000 HD
ENDBRANCH   6   8
ENDBRANCH   1   6
BRANCH   5  12
ATOM     12  C   UNL     1       3.671   4.998  17.660  0.00  0.00    +0.000 C 
BRANCH  12  13
ATOM     13  C   UNL     1       2.847   4.339  18.748  0.00  0.00    +0.000 A 
ATOM     14  C   UNL     1       2.193   5.124  19.713  0.00  0.00    +0.000 A 
ATOM     15  C   UNL     1       1.478   4.524  20.750  0.00  0.00    +0.000 A 
ATOM     16  C   UNL     1       1.409   3.138  20.822  0.00  0.00    +0.000 A 
ATOM     17  F   UNL     1       0.741   2.562  21.829  0.00  0.00    +0.000 F 
ATOM     18  C   UNL     1       2.027   2.343  19.863  0.00  0.00    +0.000 A 
ATOM     19  C   UNL     1       2.740   2.941  18.824  0.00  0.00    +0.000 A 
ENDBRANCH  12  13
ENDBRANCH   5  12
TORSDOF 4
ENDMDL
MODEL 4
REMARK VINA RESULT:      -7.0      1.667      1.977
REMARK  Name = 
REMARK  4 active torsions:
REMARK  status: ('A' for Active; 'I' for Inactive)
REMARK    1  A    between atoms: C_2  and  C_4
REMARK    2  A    between atoms: C_4  and  N_5
REMARK    3  A    between atoms: C_9  and  C_10
REMARK    4  A    between atoms: C_10  and  C_11
REMARK                            x       y       z     vdW  Elec       q    Type
REMARK                         _______ _______ _______ _____ _____    ______ ____
ROOT
ATOM      1  N   UNL     1       6.287   5.593  16.806  0.00  0.00    +0.000 NA
ATOM      2  C   UNL     1       7.300   6.564  17.275  0.00  0.00    +0.000 C 
ATOM      3  C   UNL     1       7.791   6.021  18.599  0.00  0.00    +0.000 C 
ATOM      4  C   UNL     1       6.512   5.519  19.230  0.00  0.00    +0.000 C 
ATOM      5  C   UNL     1       5.632   5.079  18.047  0.00  0.00    +0.000 C 
ENDROOT
BRANCH   1   6
ATOM      6  C   UNL     1       6.930   4.470  16.070  0.00  0.00    +0.000 C 
BRANCH   6   8
ATOM      7  N   UNL     1       5.977   4.090  13.849  0.00  0.00    +0.000 N 
ATOM      8  C   UNL     1       6.947   4.736  14.561  0.00  0.00    +0.000 C 
ATOM      9  O   UNL     1       7.769   5.459  14.008  0.00  0.00    +0.000 OA
ATOM     10  H   UNL     1       5.876   4.351  12.878  0.00  0.00    +0.000 HD
ATOM     11  H   UNL     1       5.156   3.760  14.347  0.00  0.00    +0.000 HD
ENDBRANCH   6   8
ENDBRANCH   1   6
BRANCH   5  12
ATOM     12  C   UNL     1       4.185   5.620  18.159  0.00  0.00    +0.000 C 
BRANCH  12  13
ATOM     13  C   UNL     1       3.144   4.535  18.346  0.00  0.00    +0.000 A 
ATOM     14  C   UNL     1       3.277   3.304  17.680  0.00  0.00    +0.000 A 
ATOM     15  C   UNL     1       2.294   2.320  17.804  0.00  0.00    +0.000 A 
ATOM     16  C   UNL     1       1.181   2.562  18.598  0.00  0.00    +0.000 A 
ATOM     17  F   UNL     1       0.227   1.627  18.699  0.00  0.00    +0.000 F 
ATOM     18  C   UNL     1       1.042   3.761  19.286  0.00  0.00    +0.000 A 
ATOM     19  C   UNL     1       2.024   4.745  19.166  0.00  0.00    +0.000 A 
ENDBRANCH  12  13
ENDBRANCH   5  12
TORSDOF 4
ENDMDL
MODEL 5
REMARK VINA RESULT:      -6.9      3.780      5.845
REMARK  Name = 
REMARK  4 active torsions:
REMARK  status: ('A' for Active; 'I' for Inactive)
REMARK    1  A    between atoms: C_2  and  C_4
REMARK    2  A    between atoms: C_4  and  N_5
REMARK    3  A    between atoms: C_9  and  C_10
REMARK    4  A    between atoms: C_10  and  C_11
REMARK                            x       y       z     vdW  Elec       q    Type
REMARK                         _______ _______ _______ _____ _____    ______ ____
ROOT
ATOM      1  N   UNL     1       2.979   3.468  20.230  0.00  0.00    +0.000 NA
ATOM      2  C   UNL     1       2.225   4.079  21.347  0.00  0.00    +0.000 C 
ATOM      3  C   UNL     1       1.413   5.191  20.721  0.00  0.00    +0.000 C 
ATOM      4  C   UNL     1       2.390   5.778  19.728  0.00  0.00    +0.000 C 
ATOM      5  C   UNL     1       3.272   4.595  19.293  0.00  0.00    +0.000 C 
ENDROOT
BRANCH   1   6
ATOM      6  C   UNL     1       2.159   2.435  19.540  0.00  0.00    +0.000 C 
BRANCH   6   8
ATOM      7  N   UNL     1       3.971   1.296  18.356  0.00  0.00    +0.000 N 
ATOM      8  C   UNL     1       2.810   2.002  18.222  0.00  0.00    +0.000 C 
ATOM      9  O   UNL     1       2.351   2.271  17.117  0.00  0.00    +0.000 OA
ATOM     10  H   UNL     1       4.349   0.880  17.517  0.00  0.00    +0.000 HD
ATOM     11  H   UNL     1       4.155   0.840  19.244  0.00  0.00    +0.000 HD
ENDBRANCH   6   8
ENDBRANCH   1   6
BRANCH   5  12
ATOM     12  C   UNL     1       4.780   4.944  19.323  0.00  0.00    +0.000 C 
BRANCH  12  13
ATOM     13  C   UNL     1       5.453   4.850  17.968  0.00  0.00    +0.000 A 
ATOM     14  C   UNL     1       6.849   4.716  17.879  0.00  0.00    +0.000 A 
ATOM     15  C   UNL     1       7.482   4.684  16.636  0.00  0.00    +0.000 A 
ATOM     16  C   UNL     1       6.720   4.779  15.478  0.00  0.00    +0.000 A 
ATOM     17  F   UNL     1       7.329   4.770  14.285  0.00  0.00    +0.000 F 
ATOM     18  C   UNL     1       5.336   4.886  15.542  0.00  0.00    +0.000 A 
ATOM     19  C   UNL     1       4.701   4.916  16.784  0.00  0.00    +0.000 A 
ENDBRANCH  12  13
ENDBRANCH   5  12
TORSDOF 4
ENDMDL
MODEL 6
REMARK VINA RESULT:      -6.9      1.700      2.066
REMARK  Name = 
REMARK  4 active torsions:
REMARK  status: ('A' for Active; 'I' for Inactive)
REMARK    1  A    between atoms: C_2  and  C_4
REMARK    2  A    between atoms: C_4  and  N_5
REMARK    3  A    between atoms: C_9  and  C_10
REMARK    4  A    between atoms: C_10  and  C_11
REMARK                            x       y       z     vdW  Elec       q    Type
REMARK                         _______ _______ _______ _____ _____    ______ ____
ROOT
ATOM      1  N   UNL     1       6.493   5.880  16.737  0.00  0.00    +0.000 NA
ATOM      2  C   UNL     1       7.469   6.703  17.484  0.00  0.00    +0.000 C 
ATOM      3  C   UNL     1       7.705   5.963  18.782  0.00  0.00    +0.000 C 
ATOM      4  C   UNL     1       6.315   5.486  19.134  0.00  0.00    +0.000 C 
ATOM      5  C   UNL     1       5.616   5.267  17.781  0.00  0.00    +0.000 C 
ENDROOT
BRANCH   1   6
ATOM      6  C   UNL     1       7.183   4.811  15.963  0.00  0.00    +0.000 C 
BRANCH   6   8
ATOM      7  N   UNL     1       7.563   5.364  13.611  0.00  0.00    +0.000 N 
ATOM      8  C   UNL     1       6.708   4.789  14.507  0.00  0.00    +0.000 C 
ATOM      9  O   UNL     1       5.637   4.310  14.149  0.00  0.00    +0.000 OA
ATOM     10  H   UNL     1       7.344   5.243  12.632  0.00  0.00    +0.000 HD
ATOM     11  H   UNL     1       8.537   5.469  13.877  0.00  0.00    +0.000 HD
ENDBRANCH   6   8
ENDBRANCH   1   6
BRANCH   5  12
ATOM     12  C   UNL     1       4.204   5.899  17.739  0.00  0.00    +0.000 C 
BRANCH  12  13
ATOM     13  C   UNL     1       3.130   5.028  18.362  0.00  0.00    +0.000 A 
ATOM     14  C   UNL     1       2.635   3.911  17.668  0.00  0.00    +0.000 A 
ATOM     15  C   UNL     1       1.608   3.137  18.210  0.00  0.00    +0.000 A 
ATOM     16  C   UNL     1       1.079   3.473  19.449  0.00  0.00    +0.000 A 
ATOM     17  F   UNL     1       0.078   2.743  19.960  0.00  0.00    +0.000 F 
ATOM     18  C   UNL     1       1.571   4.558  20.165  0.00  0.00    +0.000 A 
ATOM     19  C   UNL     1       2.600   5.332  19.626  0.00  0.00    +0.000 A 
ENDBRANCH  12  13
ENDBRANCH   5  12
TORSDOF 4
ENDMDL
MODEL 7
REMARK VINA RESULT:      -6.8      1.112      1.175
REMARK  Name = 
REMARK  4 active torsions:
REMARK  status: ('A' for Active; 'I' for Inactive)
REMARK    1  A    between atoms: C_2  and  C_4
REMARK    2  A    between atoms: C_4  and  N_5
REMARK    3  A    between atoms: C_9  and  C_10
REMARK    4  A    between atoms: C_10  and  C_11
REMARK                            x       y       z     vdW  Elec       q    Type
REMARK                         _______ _______ _______ _____ _____    ______ ____
ROOT
ATOM      1  N   UNL     1       5.907   5.319  16.486  0.00  0.00    +0.000 NA
ATOM      2  C   UNL     1       6.725   6.418  17.044  0.00  0.00    +0.000 C 
ATOM      3  C   UNL     1       7.173   5.931  18.405  0.00  0.00    +0.000 C 
ATOM      4  C   UNL     1       5.931   5.241  18.921  0.00  0.00    +0.000 C 
ATOM      5  C   UNL     1       5.229   4.697  17.664  0.00  0.00    +0.000 C 
ENDROOT
BRANCH   1   6
ATOM      6  C   UNL     1       6.767   4.311  15.805  0.00  0.00    +0.000 C 
BRANCH   6   8
ATOM      7  N   UNL     1       6.299   3.932  13.435  0.00  0.00    +0.000 N 
ATOM      8  C   UNL     1       6.997   4.683  14.338  0.00  0.00    +0.000 C 
ATOM      9  O   UNL     1       7.758   5.574  13.973  0.00  0.00    +0.000 OA
ATOM     10  H   UNL     1       6.323   4.241  12.473  0.00  0.00    +0.000 HD
ATOM     11  H   UNL     1       5.478   3.432  13.760  0.00  0.00    +0.000 HD
ENDBRANCH   6   8
ENDBRANCH   1   6
BRANCH   5  12
ATOM     12  C   UNL     1       3.715   5.021  17.650  0.00  0.00    +0.000 C 
BRANCH  12  13
ATOM     13  C   UNL     1       2.950   4.399  18.800  0.00  0.00    +0.000 A 
ATOM     14  C   UNL     1       2.881   3.002  18.931  0.00  0.00    +0.000 A 
ATOM     15  C   UNL     1       2.132   2.420  19.956  0.00  0.00    +0.000 A 
ATOM     16  C   UNL     1       1.458   3.234  20.856  0.00  0.00    +0.000 A 
ATOM     17  F   UNL     1       0.722   2.676  21.827  0.00  0.00    +0.000 F 
ATOM     18  C   UNL     1       1.533   4.619  20.762  0.00  0.00    +0.000 A 
ATOM     19  C   UNL     1       2.283   5.202  19.740  0.00  0.00    +0.000 A 
ENDBRANCH  12  13
ENDBRANCH   5  12
TORSDOF 4
ENDMDL
MODEL 8
REMARK VINA RESULT:      -6.8      2.410      3.212
REMARK  Name = 
REMARK  4 active torsions:
REMARK  status: ('A' for Active; 'I' for Inactive)
REMARK    1  A    between atoms: C_2  and  C_4
REMARK    2  A    between atoms: C_4  and  N_5
REMARK    3  A    between atoms: C_9  and  C_10
REMARK    4  A    between atoms: C_10  and  C_11
REMARK                            x       y       z     vdW  Elec       q    Type
REMARK                         _______ _______ _______ _____ _____    ______ ____
ROOT
ATOM      1  N   UNL     1       5.870   4.861  17.424  0.00  0.00    +0.000 NA
ATOM      2  C   UNL     1       5.608   3.939  16.297  0.00  0.00    +0.000 C 
ATOM      3  C   UNL     1       5.813   4.768  15.048  0.00  0.00    +0.000 C 
ATOM      4  C   UNL     1       5.184   6.087  15.435  0.00  0.00    +0.000 C 
ATOM      5  C   UNL     1       5.401   6.200  16.954  0.00  0.00    +0.000 C 
ENDROOT
BRANCH   1   6
ATOM      6  C   UNL     1       7.324   4.915  17.739  0.00  0.00    +0.000 C 
BRANCH   6   8
ATOM      7  N   UNL     1       8.274   6.877  18.848  0.00  0.00    +0.000 N 
ATOM      8  C   UNL     1       7.583   5.712  19.021  0.00  0.00    +0.000 C 
ATOM      9  O   UNL     1       7.220   5.346  20.134  0.00  0.00    +0.000 OA
ATOM     10  H   UNL     1       8.340   7.490  19.649  0.00  0.00    +0.000 HD
ATOM     11  H   UNL     1       8.290   7.292  17.922  0.00  0.00    +0.000 HD
ENDBRANCH   6   8
ENDBRANCH   1   6
BRANCH   5  12
ATOM     12  C   UNL     1       4.111   6.615  17.702  0.00  0.00    +0.000 C 
BRANCH  12  13
ATOM     13  C   UNL     1       3.370   5.451  18.328  0.00  0.00    +0.000 A 
ATOM     14  C   UNL     1       3.655   5.056  19.647  0.00  0.00    +0.000 A 
ATOM     15  C   UNL     1       3.017   3.951  20.212  0.00  0.00    +0.000 A 
ATOM     16  C   UNL     1       2.087   3.242  19.463  0.00  0.00    +0.000 A 
ATOM     17  F   UNL     1       1.490   2.168  19.997  0.00  0.00    +0.000 F 
ATOM     18  C   UNL     1       1.770   3.629  18.166  0.00  0.00    +0.000 A 
ATOM     19  C   UNL     1       2.405   4.735  17.601  0.00  0.00    +0.000 A 
ENDBRANCH  12  13
ENDBRANCH   5  12
TORSDOF 4
ENDMDL
MODEL 9
REMARK VINA RESULT:      -6.8      2.229      3.228
REMARK  Name = 
REMARK  4 active torsions:
REMARK  status: ('A' for Active; 'I' for Inactive)
REMARK    1  A    between atoms: C_2  and  C_4
REMARK    2  A    between atoms: C_4  and  N_5
REMARK    3  A    between atoms: C_9  and  C_10
REMARK    4  A    between atoms: C_10  and  C_11
REMARK                            x       y       z     vdW  Elec       q    Type
REMARK                         _______ _______ _______ _____ _____    ______ ____
ROOT
ATOM      1  N   UNL     1       6.154   4.589  17.576  0.00  0.00    +0.000 NA
ATOM      2  C   UNL     1       7.301   4.449  16.652  0.00  0.00    +0.000 C 
ATOM      3  C   UNL     1       6.865   5.124  15.370  0.00  0.00    +0.000 C 
ATOM      4  C   UNL     1       5.422   4.686  15.255  0.00  0.00    +0.000 C 
ATOM      5  C   UNL     1       4.940   4.526  16.707  0.00  0.00    +0.000 C 
ENDROOT
BRANCH   1   6
ATOM      6  C   UNL     1       6.202   5.896  18.287  0.00  0.00    +0.000 C 
BRANCH   6   8
ATOM      7  N   UNL     1       8.307   6.996  18.872  0.00  0.00    +0.000 N 
ATOM      8  C   UNL     1       7.437   5.991  19.188  0.00  0.00    +0.000 C 
ATOM      9  O   UNL     1       7.660   5.225  20.119  0.00  0.00    +0.000 OA
ATOM     10  H   UNL     1       9.056   7.170  19.527  0.00  0.00    +0.000 HD
ATOM     11  H   UNL     1       7.961   7.772  18.318  0.00  0.00    +0.000 HD
ENDBRANCH   6   8
ENDBRANCH   1   6
BRANCH   5  12
ATOM     12  C   UNL     1       4.183   3.194  16.931  0.00  0.00    +0.000 C 
BRANCH  12  13
ATOM     13  C   UNL     1       3.316   3.189  18.174  0.00  0.00    +0.000 A 
ATOM     14  C   UNL     1       2.030   3.757  18.142  0.00  0.00    +0.000 A 
ATOM     15  C   UNL     1       1.247   3.806  19.295  0.00  0.00    +0.000 A 
ATOM     16  C   UNL     1       1.742   3.281  20.482  0.00  0.00    +0.000 A 
ATOM     17  F   UNL     1       0.999   3.347  21.594  0.00  0.00    +0.000 F 
ATOM     18  C   UNL     1       3.000   2.691  20.530  0.00  0.00    +0.000 A 
ATOM     19  C   UNL     1       3.784   2.638  19.378  0.00  0.00    +0.000 A 
ENDBRANCH  12  13
ENDBRANCH   5  12
TORSDOF 4
ENDMDL
