MODEL 1
REMARK VINA RESULT:      -7.1      0.000      0.000
REMARK  Name = 
REMARK  6 active torsions:
REMARK  status: ('A' for Active; 'I' for Inactive)
REMARK    1  A    between atoms: C_1  and  O_2
REMARK    2  A    between atoms: O_2  and  C_3
REMARK    3  A    between atoms: C_6  and  C_7
REMARK    4  A    between atoms: C_7  and  N_8
REMARK    5  A    between atoms: N_11  and  C_12
REMARK    6  A    between atoms: C_15  and  N_16
REMARK                            x       y       z     vdW  Elec       q    Type
REMARK                         _______ _______ _______ _____ _____    ______ ____
ROOT
ATOM      1  N   UNL     1       1.520   9.566  18.095  0.00  0.00    +0.000 N 
ATOM      2  C   UNL     1       1.856   8.398  18.741  0.00  0.00    +0.000 C 
ATOM      3  O   UNL     1       1.628   8.233  19.932  0.00  0.00    +0.000 OA
ATOM      4  N   UNL     1       2.497   7.507  17.906  0.00  0.00    +0.000 N 
ATOM      5  H   UNL     1       1.232   9.473  17.132  0.00  0.00    +0.000 HD
ATOM      6  H   UNL     1       2.883   7.899  17.061  0.00  0.00    +0.000 HD
ENDROOT
BRANCH   4   7
ATOM      7  C   UNL     1       2.920   6.211  18.280  0.00  0.00    +0.000 A 
ATOM      8  C   UNL     1       4.168   5.965  18.866  0.00  0.00    +0.000 A 
ATOM      9  C   UNL     1       4.570   4.669  19.198  0.00  0.00    +0.000 A 
ATOM     10  C   UNL     1       3.705   3.601  18.956  0.00  0.00    +0.000 A 
ATOM     11  C   UNL     1       2.443   3.828  18.389  0.00  0.00    +0.000 A 
ATOM     12  C   UNL     1       2.052   5.134  18.060  0.00  0.00    +0.000 A 
BRANCH  10  13
ATOM     13  N   UNL     1       4.125   2.239  19.304  0.00  0.00    +0.000 N 
ATOM     14  O   UNL     1       4.938   2.103  20.230  0.00  0.00    +0.000 OA
ATOM     15  O   UNL     1       3.639   1.303  18.653  0.00  0.00    +0.000 OA
ENDBRANCH  10  13
ENDBRANCH   4   7
BRANCH   1  16
ATOM     16  C   UNL     1       0.823  10.577  18.869  0.00  0.00    +0.000 C 
BRANCH  16  20
ATOM     17  C   UNL     1      -3.377  10.847  17.902  0.00  0.00    +0.000 A 
ATOM     18  C   UNL     1      -2.549   9.932  17.252  0.00  0.00    +0.000 A 
ATOM     19  C   UNL     1      -1.189   9.865  17.557  0.00  0.00    +0.000 A 
ATOM     20  C   UNL     1      -0.627  10.735  18.502  0.00  0.00    +0.000 A 
ATOM     21  C   UNL     1      -1.467  11.643  19.159  0.00  0.00    +0.000 A 
ATOM     22  C   UNL     1      -2.831  11.708  18.853  0.00  0.00    +0.000 A 
BRANCH  17  24
ATOM     23  C   UNL     1      -5.224  12.070  17.078  0.00  0.00    +0.000 C 
ATOM     24  O   UNL     1      -4.685  10.826  17.508  0.00  0.00    +0.000 OA
ENDBRANCH  17  24
ENDBRANCH  16  20
ENDBRANCH   1  16
TORSDOF 5
ENDMDL
MODEL 2
REMARK VINA RESULT:      -7.0      0.400      1.284
REMARK  Name = 
REMARK  6 active torsions:
REMARK  status: ('A' for Active; 'I' for Inactive)
REMARK    1  A    between atoms: C_1  and  O_2
REMARK    2  A    between atoms: O_2  and  C_3
REMARK    3  A    between atoms: C_6  and  C_7
REMARK    4  A    between atoms: C_7  and  N_8
REMARK    5  A    between atoms: N_11  and  C_12
REMARK    6  A    between atoms: C_15  and  N_16
REMARK                            x       y       z     vdW  Elec       q    Type
REMARK                         _______ _______ _______ _____ _____    ______ ____
ROOT
ATOM      1  N   UNL     1       1.538   9.619  17.893  0.00  0.00    +0.000 N 
ATOM      2  C   UNL     1       1.885   8.468  18.565  0.00  0.00    +0.000 C 
ATOM      3  O   UNL     1       1.695   8.344  19.767  0.00  0.00    +0.000 OA
ATOM      4  N   UNL     1       2.489   7.545  17.738  0.00  0.00    +0.000 N 
ATOM      5  H   UNL     1       1.217   9.498  16.943  0.00  0.00    +0.000 HD
ATOM      6  H   UNL     1       2.851   7.906  16.868  0.00  0.00    +0.000 HD
ENDROOT
BRANCH   4   7
ATOM      7  C   UNL     1       2.912   6.257  18.138  0.00  0.00    +0.000 A 
ATOM      8  C   UNL     1       4.187   6.011  18.665  0.00  0.00    +0.000 A 
ATOM      9  C   UNL     1       4.586   4.723  19.025  0.00  0.00    +0.000 A 
ATOM     10  C   UNL     1       3.693   3.662  18.873  0.00  0.00    +0.000 A 
ATOM     11  C   UNL     1       2.405   3.888  18.368  0.00  0.00    +0.000 A 
ATOM     12  C   UNL     1       2.017   5.188  18.010  0.00  0.00    +0.000 A 
BRANCH  10  13
ATOM     13  N   UNL     1       4.111   2.307  19.251  0.00  0.00    +0.000 N 
ATOM     14  O   UNL     1       3.652   1.357  18.600  0.00  0.00    +0.000 OA
ATOM     15  O   UNL     1       4.902   2.193  20.199  0.00  0.00    +0.000 OA
ENDBRANCH  10  13
ENDBRANCH   4   7
BRANCH   1  16
ATOM     16  C   UNL     1       0.877  10.661  18.657  0.00  0.00    +0.000 C 
BRANCH  16  20
ATOM     17  C   UNL     1      -3.371  11.011  17.965  0.00  0.00    +0.000 A 
ATOM     18  C   UNL     1      -2.726  11.831  18.890  0.00  0.00    +0.000 A 
ATOM     19  C   UNL     1      -1.356  11.698  19.122  0.00  0.00    +0.000 A 
ATOM     20  C   UNL     1      -0.611  10.720  18.448  0.00  0.00    +0.000 A 
ATOM     21  C   UNL     1      -1.264   9.908  17.511  0.00  0.00    +0.000 A 
ATOM     22  C   UNL     1      -2.638  10.044  17.279  0.00  0.00    +0.000 A 
BRANCH  17  24
ATOM     23  C   UNL     1      -5.281  12.165  18.744  0.00  0.00    +0.000 C 
ATOM     24  O   UNL     1      -4.715  11.228  17.836  0.00  0.00    +0.000 OA
ENDBRANCH  17  24
ENDBRANCH  16  20
ENDBRANCH   1  16
TORSDOF 5
ENDMDL
MODEL 3
REMARK VINA RESULT:      -7.0      0.380      1.269
REMARK  Name = 
REMARK  6 active torsions:
REMARK  status: ('A' for Active; 'I' for Inactive)
REMARK    1  A    between atoms: C_1  and  O_2
REMARK    2  A    between atoms: O_2  and  C_3
REMARK    3  A    between atoms: C_6  and  C_7
REMARK    4  A    between atoms: C_7  and  N_8
REMARK    5  A    between atoms: N_11  and  C_12
REMARK    6  A    between atoms: C_15  and  N_16
REMARK                            x       y       z     vdW  Elec       q    Type
REMARK                         _______ _______ _______ _____ _____    ______ ____
ROOT
ATOM      1  N   UNL     1       1.775   9.506  17.982  0.00  0.00    +0.000 N 
ATOM      2  C   UNL     1       2.074   8.317  18.609  0.00  0.00    +0.000 C 
ATOM      3  O   UNL     1       1.908   8.166  19.812  0.00  0.00    +0.000 OA
ATOM      4  N   UNL     1       2.603   7.387  17.739  0.00  0.00    +0.000 N 
ATOM      5  H   UNL     1       1.423   9.432  17.038  0.00  0.00    +0.000 HD
ATOM      6  H   UNL     1       2.962   7.755  16.871  0.00  0.00    +0.000 HD
ENDROOT
BRANCH   4   7
ATOM      7  C   UNL     1       2.963   6.066  18.089  0.00  0.00    +0.000 A 
ATOM      8  C   UNL     1       2.031   5.022  18.151  0.00  0.00    +0.000 A 
ATOM      9  C   UNL     1       2.411   3.733  18.529  0.00  0.00    +0.000 A 
ATOM     10  C   UNL     1       3.748   3.476  18.835  0.00  0.00    +0.000 A 
ATOM     11  C   UNL     1       4.701   4.501  18.760  0.00  0.00    +0.000 A 
ATOM     12  C   UNL     1       4.305   5.792  18.379  0.00  0.00    +0.000 A 
BRANCH  10  13
ATOM     13  N   UNL     1       4.149   2.121  19.232  0.00  0.00    +0.000 N 
ATOM     14  O   UNL     1       3.741   1.172  18.548  0.00  0.00    +0.000 OA
ATOM     15  O   UNL     1       4.878   2.007  20.229  0.00  0.00    +0.000 OA
ENDBRANCH  10  13
ENDBRANCH   4   7
BRANCH   1  16
ATOM     16  C   UNL     1       1.193  10.559  18.794  0.00  0.00    +0.000 C 
BRANCH  16  20
ATOM     17  C   UNL     1      -3.052  11.041  18.168  0.00  0.00    +0.000 A 
ATOM     18  C   UNL     1      -2.343  10.029  17.522  0.00  0.00    +0.000 A 
ATOM     19  C   UNL     1      -0.967   9.893  17.715  0.00  0.00    +0.000 A 
ATOM     20  C   UNL     1      -0.271  10.787  18.540  0.00  0.00    +0.000 A 
ATOM     21  C   UNL     1      -0.993  11.793  19.195  0.00  0.00    +0.000 A 
ATOM     22  C   UNL     1      -2.372  11.928  19.002  0.00  0.00    +0.000 A 
BRANCH  17  24
ATOM     23  C   UNL     1      -4.743  11.634  16.627  0.00  0.00    +0.000 C 
ATOM     24  O   UNL     1      -4.389  11.080  17.888  0.00  0.00    +0.000 OA
ENDBRANCH  17  24
ENDBRANCH  16  20
ENDBRANCH   1  16
TORSDOF 5
ENDMDL
MODEL 4
REMARK VINA RESULT:      -6.9      3.143      8.873
REMARK  Name = 
REMARK  6 active torsions:
REMARK  status: ('A' for Active; 'I' for Inactive)
REMARK    1  A    between atoms: C_1  and  O_2
REMARK    2  A    between atoms: O_2  and  C_3
REMARK    3  A    between atoms: C_6  and  C_7
REMARK    4  A    between atoms: C_7  and  N_8
REMARK    5  A    between atoms: N_11  and  C_12
REMARK    6  A    between atoms: C_15  and  N_16
REMARK                            x       y       z     vdW  Elec       q    Type
REMARK                         _______ _______ _______ _____ _____    ______ ____
ROOT
ATOM      1  N   UNL     1       3.670   5.330  19.987  0.00  0.00    +0.000 N 
ATOM      2  C   UNL     1       2.717   6.193  19.494  0.00  0.00    +0.000 C 
ATOM      3  O   UNL     1       2.182   6.007  18.409  0.00  0.00    +0.000 OA
ATOM      4  N   UNL     1       2.500   7.265  20.334  0.00  0.00    +0.000 N 
ATOM      5  H   UNL     1       3.676   5.202  20.988  0.00  0.00    +0.000 HD
ATOM      6  H   UNL     1       3.222   7.439  21.017  0.00  0.00    +0.000 HD
ENDROOT
BRANCH   4   7
ATOM      7  C   UNL     1       1.549   8.286  20.111  0.00  0.00    +0.000 A 
ATOM      8  C   UNL     1       1.507   9.031  18.926  0.00  0.00    +0.000 A 
ATOM      9  C   UNL     1       0.575  10.055  18.745  0.00  0.00    +0.000 A 
ATOM     10  C   UNL     1      -0.344  10.330  19.758  0.00  0.00    +0.000 A 
ATOM     11  C   UNL     1      -0.334   9.582  20.944  0.00  0.00    +0.000 A 
ATOM     12  C   UNL     1       0.609   8.557  21.113  0.00  0.00    +0.000 A 
BRANCH  10  13
ATOM     13  N   UNL     1      -1.325  11.404  19.571  0.00  0.00    +0.000 N 
ATOM     14  O   UNL     1      -1.815  11.925  20.584  0.00  0.00    +0.000 OA
ATOM     15  O   UNL     1      -1.605  11.731  18.408  0.00  0.00    +0.000 OA
ENDBRANCH  10  13
ENDBRANCH   4   7
BRANCH   1  16
ATOM     16  C   UNL     1       3.973   4.151  19.196  0.00  0.00    +0.000 C 
BRANCH  16  20
ATOM     17  C   UNL     1       6.857   4.956  16.084  0.00  0.00    +0.000 A 
ATOM     18  C   UNL     1       5.615   4.397  15.783  0.00  0.00    +0.000 A 
ATOM     19  C   UNL     1       4.697   4.122  16.798  0.00  0.00    +0.000 A 
ATOM     20  C   UNL     1       5.017   4.378  18.138  0.00  0.00    +0.000 A 
ATOM     21  C   UNL     1       6.262   4.951  18.431  0.00  0.00    +0.000 A 
ATOM     22  C   UNL     1       7.181   5.228  17.412  0.00  0.00    +0.000 A 
BRANCH  17  24
ATOM     23  C   UNL     1       7.118   4.851  13.737  0.00  0.00    +0.000 C 
ATOM     24  O   UNL     1       7.673   5.166  15.008  0.00  0.00    +0.000 OA
ENDBRANCH  17  24
ENDBRANCH  16  20
ENDBRANCH   1  16
TORSDOF 5
ENDMDL
MODEL 5
REMARK VINA RESULT:      -6.9      0.477      1.529
REMARK  Name = 
REMARK  6 active torsions:
REMARK  status: ('A' for Active; 'I' for Inactive)
REMARK    1  A    between atoms: C_1  and  O_2
REMARK    2  A    between atoms: O_2  and  C_3
REMARK    3  A    between atoms: C_6  and  C_7
REMARK    4  A    between atoms: C_7  and  N_8
REMARK    5  A    between atoms: N_11  and  C_12
REMARK    6  A    between atoms: C_15  and  N_16
REMARK                            x       y       z     vdW  Elec       q    Type
REMARK                         _______ _______ _______ _____ _____    ______ ____
ROOT
ATOM      1  N   UNL     1       1.633   9.823  17.946  0.00  0.00    +0.000 N 
ATOM      2  C   UNL     1       1.906   8.626  18.569  0.00  0.00    +0.000 C 
ATOM      3  O   UNL     1       1.634   8.438  19.747  0.00  0.00    +0.000 OA
ATOM      4  N   UNL     1       2.540   7.734  17.729  0.00  0.00    +0.000 N 
ATOM      5  H   UNL     1       1.372   9.766  16.972  0.00  0.00    +0.000 HD
ATOM      6  H   UNL     1       2.967   8.134  16.907  0.00  0.00    +0.000 HD
ENDROOT
BRANCH   4   7
ATOM      7  C   UNL     1       2.902   6.413  18.079  0.00  0.00    +0.000 A 
ATOM      8  C   UNL     1       2.016   5.334  17.969  0.00  0.00    +0.000 A 
ATOM      9  C   UNL     1       2.393   4.045  18.351  0.00  0.00    +0.000 A 
ATOM     10  C   UNL     1       3.683   3.824  18.835  0.00  0.00    +0.000 A 
ATOM     11  C   UNL     1       4.593   4.887  18.933  0.00  0.00    +0.000 A 
ATOM     12  C   UNL     1       4.201   6.177  18.547  0.00  0.00    +0.000 A 
BRANCH  10  13
ATOM     13  N   UNL     1       4.082   2.471  19.236  0.00  0.00    +0.000 N 
ATOM     14  O   UNL     1       4.939   2.359  20.124  0.00  0.00    +0.000 OA
ATOM     15  O   UNL     1       3.534   1.517  18.664  0.00  0.00    +0.000 OA
ENDBRANCH  10  13
ENDBRANCH   4   7
BRANCH   1  16
ATOM     16  C   UNL     1       0.950  10.839  18.726  0.00  0.00    +0.000 C 
BRANCH  16  20
ATOM     17  C   UNL     1      -3.308  11.082  18.055  0.00  0.00    +0.000 A 
ATOM     18  C   UNL     1      -2.674  11.942  18.952  0.00  0.00    +0.000 A 
ATOM     19  C   UNL     1      -1.300  11.842  19.177  0.00  0.00    +0.000 A 
ATOM     20  C   UNL     1      -0.540  10.861  18.526  0.00  0.00    +0.000 A 
ATOM     21  C   UNL     1      -1.183  10.010  17.618  0.00  0.00    +0.000 A 
ATOM     22  C   UNL     1      -2.560  10.111  17.392  0.00  0.00    +0.000 A 
BRANCH  17  24
ATOM     23  C   UNL     1      -5.242  12.191  18.842  0.00  0.00    +0.000 C 
ATOM     24  O   UNL     1      -4.657  11.269  17.931  0.00  0.00    +0.000 OA
ENDBRANCH  17  24
ENDBRANCH  16  20
ENDBRANCH   1  16
TORSDOF 5
ENDMDL
MODEL 6
REMARK VINA RESULT:      -6.9      2.932      8.888
REMARK  Name = 
REMARK  6 active torsions:
REMARK  status: ('A' for Active; 'I' for Inactive)
REMARK    1  A    between atoms: C_1  and  O_2
REMARK    2  A    between atoms: O_2  and  C_3
REMARK    3  A    between atoms: C_6  and  C_7
REMARK    4  A    between atoms: C_7  and  N_8
REMARK    5  A    between atoms: N_11  and  C_12
REMARK    6  A    between atoms: C_15  and  N_16
REMARK                            x       y       z     vdW  Elec       q    Type
REMARK                         _______ _______ _______ _____ _____    ______ ____
ROOT
ATOM      1  N   UNL     1       3.416   5.357  20.183  0.00  0.00    +0.000 N 
ATOM      2  C   UNL     1       2.544   6.241  19.588  0.00  0.00    +0.000 C 
ATOM      3  O   UNL     1       2.069   6.028  18.481  0.00  0.00    +0.000 OA
ATOM      4  N   UNL     1       2.332   7.363  20.362  0.00  0.00    +0.000 N 
ATOM      5  H   UNL     1       3.352   5.279  21.188  0.00  0.00    +0.000 HD
ATOM      6  H   UNL     1       3.017   7.534  21.082  0.00  0.00    +0.000 HD
ENDROOT
BRANCH   4   7
ATOM      7  C   UNL     1       1.454   8.419  20.028  0.00  0.00    +0.000 A 
ATOM      8  C   UNL     1       0.477   8.895  20.913  0.00  0.00    +0.000 A 
ATOM      9  C   UNL     1      -0.396   9.920  20.545  0.00  0.00    +0.000 A 
ATOM     10  C   UNL     1      -0.284  10.493  19.277  0.00  0.00    +0.000 A 
ATOM     11  C   UNL     1       0.700  10.046  18.384  0.00  0.00    +0.000 A 
ATOM     12  C   UNL     1       1.571   9.015  18.767  0.00  0.00    +0.000 A 
BRANCH  10  13
ATOM     13  N   UNL     1      -1.200  11.571  18.888  0.00  0.00    +0.000 N 
ATOM     14  O   UNL     1      -1.479  12.429  19.739  0.00  0.00    +0.000 OA
ATOM     15  O   UNL     1      -1.640  11.561  17.729  0.00  0.00    +0.000 OA
ENDBRANCH  10  13
ENDBRANCH   4   7
BRANCH   1  16
ATOM     16  C   UNL     1       3.705   4.126  19.470  0.00  0.00    +0.000 C 
BRANCH  16  20
ATOM     17  C   UNL     1       6.744   4.640  16.447  0.00  0.00    +0.000 A 
ATOM     18  C   UNL     1       5.519   4.049  16.138  0.00  0.00    +0.000 A 
ATOM     19  C   UNL     1       4.550   3.869  17.126  0.00  0.00    +0.000 A 
ATOM     20  C   UNL     1       4.802   4.254  18.450  0.00  0.00    +0.000 A 
ATOM     21  C   UNL     1       6.030   4.858  18.750  0.00  0.00    +0.000 A 
ATOM     22  C   UNL     1       7.001   5.039  17.758  0.00  0.00    +0.000 A 
BRANCH  17  24
ATOM     23  C   UNL     1       7.025   4.801  14.106  0.00  0.00    +0.000 C 
ATOM     24  O   UNL     1       7.615   4.749  15.399  0.00  0.00    +0.000 OA
ENDBRANCH  17  24
ENDBRANCH  16  20
ENDBRANCH   1  16
TORSDOF 5
ENDMDL
MODEL 7
REMARK VINA RESULT:      -6.8      1.389      2.086
REMARK  Name = 
REMARK  6 active torsions:
REMARK  status: ('A' for Active; 'I' for Inactive)
REMARK    1  A    between atoms: C_1  and  O_2
REMARK    2  A    between atoms: O_2  and  C_3
REMARK    3  A    between atoms: C_6  and  C_7
REMARK    4  A    between atoms: C_7  and  N_8
REMARK    5  A    between atoms: N_11  and  C_12
REMARK    6  A    between atoms: C_15  and  N_16
REMARK                            x       y       z     vdW  Elec       q    Type
REMARK                         _______ _______ _______ _____ _____    ______ ____
ROOT
ATOM      1  N   UNL     1       0.571  10.239  17.968  0.00  0.00    +0.000 N 
ATOM      2  C   UNL     1       1.334   9.277  18.593  0.00  0.00    +0.000 C 
ATOM      3  O   UNL     1       1.362   9.172  19.812  0.00  0.00    +0.000 OA
ATOM      4  N   UNL     1       2.059   8.523  17.695  0.00  0.00    +0.000 N 
ATOM      5  H   UNL     1       0.168   9.976  17.080  0.00  0.00    +0.000 HD
ATOM      6  H   UNL     1       2.170   8.924  16.776  0.00  0.00    +0.000 HD
ENDROOT
BRANCH   4   7
ATOM      7  C   UNL     1       2.896   7.438  18.042  0.00  0.00    +0.000 A 
ATOM      8  C   UNL     1       2.574   6.536  19.064  0.00  0.00    +0.000 A 
ATOM      9  C   UNL     1       3.434   5.490  19.404  0.00  0.00    +0.000 A 
ATOM     10  C   UNL     1       4.629   5.330  18.701  0.00  0.00    +0.000 A 
ATOM     11  C   UNL     1       4.960   6.209  17.661  0.00  0.00    +0.000 A 
ATOM     12  C   UNL     1       4.087   7.256  17.330  0.00  0.00    +0.000 A 
BRANCH  10  13
ATOM     13  N   UNL     1       5.534   4.231  19.057  0.00  0.00    +0.000 N 
ATOM     14  O   UNL     1       6.737   4.361  18.785  0.00  0.00    +0.000 OA
ATOM     15  O   UNL     1       5.043   3.238  19.612  0.00  0.00    +0.000 OA
ENDBRANCH  10  13
ENDBRANCH   4   7
BRANCH   1  16
ATOM     16  C   UNL     1      -0.252  11.086  18.811  0.00  0.00    +0.000 C 
BRANCH  16  20
ATOM     17  C   UNL     1      -4.476  10.899  17.933  0.00  0.00    +0.000 A 
ATOM     18  C   UNL     1      -3.959  11.899  18.756  0.00  0.00    +0.000 A 
ATOM     19  C   UNL     1      -2.595  11.940  19.051  0.00  0.00    +0.000 A 
ATOM     20  C   UNL     1      -1.727  10.962  18.546  0.00  0.00    +0.000 A 
ATOM     21  C   UNL     1      -2.252   9.968  17.710  0.00  0.00    +0.000 A 
ATOM     22  C   UNL     1      -3.620   9.928  17.415  0.00  0.00    +0.000 A 
BRANCH  17  24
ATOM     23  C   UNL     1      -6.457  12.177  18.099  0.00  0.00    +0.000 C 
ATOM     24  O   UNL     1      -5.827  10.957  17.730  0.00  0.00    +0.000 OA
ENDBRANCH  17  24
ENDBRANCH  16  20
ENDBRANCH   1  16
TORSDOF 5
ENDMDL
MODEL 8
REMARK VINA RESULT:      -6.8      2.158      2.698
REMARK  Name = 
REMARK  6 active torsions:
REMARK  status: ('A' for Active; 'I' for Inactive)
REMARK    1  A    between atoms: C_1  and  O_2
REMARK    2  A    between atoms: O_2  and  C_3
REMARK    3  A    between atoms: C_6  and  C_7
REMARK    4  A    between atoms: C_7  and  N_8
REMARK    5  A    between atoms: N_11  and  C_12
REMARK    6  A    between atoms: C_15  and  N_16
REMARK                            x       y       z     vdW  Elec       q    Type
REMARK                         _______ _______ _______ _____ _____    ______ ____
ROOT
ATOM      1  N   UNL     1       1.063   9.297  19.074  0.00  0.00    +0.000 N 
ATOM      2  C   UNL     1       1.958   8.709  18.208  0.00  0.00    +0.000 C 
ATOM      3  O   UNL     1       2.261   9.232  17.145  0.00  0.00    +0.000 OA
ATOM      4  N   UNL     1       2.403   7.487  18.670  0.00  0.00    +0.000 N 
ATOM      5  H   UNL     1       1.241   9.157  20.058  0.00  0.00    +0.000 HD
ATOM      6  H   UNL     1       1.840   7.059  19.388  0.00  0.00    +0.000 HD
ENDROOT
BRANCH   4   7
ATOM      7  C   UNL     1       3.358   6.677  18.015  0.00  0.00    +0.000 A 
ATOM      8  C   UNL     1       3.152   5.312  17.776  0.00  0.00    +0.000 A 
ATOM      9  C   UNL     1       4.127   4.530  17.154  0.00  0.00    +0.000 A 
ATOM     10  C   UNL     1       5.323   5.123  16.747  0.00  0.00    +0.000 A 
ATOM     11  C   UNL     1       5.541   6.491  16.957  0.00  0.00    +0.000 A 
ATOM     12  C   UNL     1       4.553   7.265  17.584  0.00  0.00    +0.000 A 
BRANCH  10  13
ATOM     13  N   UNL     1       6.348   4.303  16.092  0.00  0.00    +0.000 N 
ATOM     14  O   UNL     1       5.971   3.426  15.301  0.00  0.00    +0.000 OA
ATOM     15  O   UNL     1       7.534   4.538  16.366  0.00  0.00    +0.000 OA
ENDBRANCH  10  13
ENDBRANCH   4   7
BRANCH   1  16
ATOM     16  C   UNL     1       0.536  10.598  18.704  0.00  0.00    +0.000 C 
BRANCH  16  20
ATOM     17  C   UNL     1      -3.687  10.795  17.823  0.00  0.00    +0.000 A 
ATOM     18  C   UNL     1      -3.128  11.578  18.833  0.00  0.00    +0.000 A 
ATOM     19  C   UNL     1      -1.765  11.493  19.124  0.00  0.00    +0.000 A 
ATOM     20  C   UNL     1      -0.942  10.601  18.424  0.00  0.00    +0.000 A 
ATOM     21  C   UNL     1      -1.508   9.826  17.404  0.00  0.00    +0.000 A 
ATOM     22  C   UNL     1      -2.874   9.913  17.112  0.00  0.00    +0.000 A 
BRANCH  17  24
ATOM     23  C   UNL     1      -5.431  12.170  17.017  0.00  0.00    +0.000 C 
ATOM     24  O   UNL     1      -5.032  10.957  17.642  0.00  0.00    +0.000 OA
ENDBRANCH  17  24
ENDBRANCH  16  20
ENDBRANCH   1  16
TORSDOF 5
ENDMDL
MODEL 9
REMARK VINA RESULT:      -6.7      2.990      8.960
REMARK  Name = 
REMARK  6 active torsions:
REMARK  status: ('A' for Active; 'I' for Inactive)
REMARK    1  A    between atoms: C_1  and  O_2
REMARK    2  A    between atoms: O_2  and  C_3
REMARK    3  A    between atoms: C_6  and  C_7
REMARK    4  A    between atoms: C_7  and  N_8
REMARK    5  A    between atoms: N_11  and  C_12
REMARK    6  A    between atoms: C_15  and  N_16
REMARK                            x       y       z     vdW  Elec       q    Type
REMARK                         _______ _______ _______ _____ _____    ______ ____
ROOT
ATOM      1  N   UNL     1       3.366   5.382  20.161  0.00  0.00    +0.000 N 
ATOM      2  C   UNL     1       2.511   6.286  19.571  0.00  0.00    +0.000 C 
ATOM      3  O   UNL     1       2.055   6.102  18.451  0.00  0.00    +0.000 OA
ATOM      4  N   UNL     1       2.295   7.393  20.365  0.00  0.00    +0.000 N 
ATOM      5  H   UNL     1       3.283   5.282  21.162  0.00  0.00    +0.000 HD
ATOM      6  H   UNL     1       2.969   7.542  21.101  0.00  0.00    +0.000 HD
ENDROOT
BRANCH   4   7
ATOM      7  C   UNL     1       1.432   8.463  20.040  0.00  0.00    +0.000 A 
ATOM      8  C   UNL     1       1.475   9.118  18.803  0.00  0.00    +0.000 A 
ATOM      9  C   UNL     1       0.629  10.192  18.521  0.00  0.00    +0.000 A 
ATOM     10  C   UNL     1      -0.289  10.611  19.484  0.00  0.00    +0.000 A 
ATOM     11  C   UNL     1      -0.364   9.956  20.722  0.00  0.00    +0.000 A 
ATOM     12  C   UNL     1       0.493   8.879  20.992  0.00  0.00    +0.000 A 
BRANCH  10  13
ATOM     13  N   UNL     1      -1.180  11.739  19.190  0.00  0.00    +0.000 N 
ATOM     14  O   UNL     1      -1.609  11.852  18.032  0.00  0.00    +0.000 OA
ATOM     15  O   UNL     1      -1.455  12.512  20.120  0.00  0.00    +0.000 OA
ENDBRANCH  10  13
ENDBRANCH   4   7
BRANCH   1  16
ATOM     16  C   UNL     1       3.657   4.164  19.426  0.00  0.00    +0.000 C 
BRANCH  16  20
ATOM     17  C   UNL     1       6.606   4.543  16.295  0.00  0.00    +0.000 A 
ATOM     18  C   UNL     1       6.894   4.934  17.602  0.00  0.00    +0.000 A 
ATOM     19  C   UNL     1       5.928   4.827  18.603  0.00  0.00    +0.000 A 
ATOM     20  C   UNL     1       4.644   4.348  18.307  0.00  0.00    +0.000 A 
ATOM     21  C   UNL     1       4.366   3.945  16.994  0.00  0.00    +0.000 A 
ATOM     22  C   UNL     1       5.337   4.052  15.991  0.00  0.00    +0.000 A 
BRANCH  17  24
ATOM     23  C   UNL     1       7.242   4.906  14.047  0.00  0.00    +0.000 C 
ATOM     24  O   UNL     1       7.628   4.708  15.402  0.00  0.00    +0.000 OA
ENDBRANCH  17  24
ENDBRANCH  16  20
ENDBRANCH   1  16
TORSDOF 5
ENDMDL
