MODEL 1
REMARK VINA RESULT:      -8.0      0.000      0.000
REMARK  Name = 
REMARK  7 active torsions:
REMARK  status: ('A' for Active; 'I' for Inactive)
REMARK    1  A    between atoms: C_1  and  C_2
REMARK    2  A    between atoms: C_10  and  C_12
REMARK    3  A    between atoms: C_12  and  C_13
REMARK    4  A    between atoms: C_13  and  C_14
REMARK    5  A    between atoms: C_14  and  C_15
REMARK    6  A    between atoms: N_17  and  C_18
REMARK    7  A    between atoms: C_18  and  C_19
REMARK                            x       y       z     vdW  Elec       q    Type
REMARK                         _______ _______ _______ _____ _____    ______ ____
ROOT
ATOM      1  C   UNL     1       2.010   2.140  19.637  0.00  0.00    +0.000 C 
ENDROOT
BRANCH   1   2
ATOM      2  C   UNL     1       3.143   2.066  18.607  0.00  0.00    +0.000 C 
BRANCH   2  12
ATOM      3  C   UNL     1       8.315   8.273  17.793  0.00  0.00    +0.000 C 
ATOM      4  C   UNL     1       7.388   7.105  17.985  0.00  0.00    +0.000 A 
ATOM      5  C   UNL     1       7.599   6.172  19.005  0.00  0.00    +0.000 A 
ATOM      6  C   UNL     1       6.736   5.078  19.194  0.00  0.00    +0.000 A 
ATOM      7  C   UNL     1       5.642   4.942  18.321  0.00  0.00    +0.000 A 
ATOM      8  C   UNL     1       5.417   5.860  17.298  0.00  0.00    +0.000 A 
ATOM      9  C   UNL     1       4.256   5.403  16.651  0.00  0.00    +0.000 A 
ATOM     10  N   UNL     1       3.757   4.298  17.197  0.00  0.00    +0.000 NA
ATOM     11  N   UNL     1       4.614   4.001  18.223  0.00  0.00    +0.000 N 
ATOM     12  C   UNL     1       4.368   2.863  19.023  0.00  0.00    +0.000 C 
ATOM     13  O   UNL     1       5.106   2.598  19.966  0.00  0.00    +0.000 OA
ATOM     14  C   UNL     1       6.291   6.948  17.122  0.00  0.00    +0.000 A 
ENDBRANCH   2  12
ENDBRANCH   1   2
BRANCH   1  15
ATOM     15  C   UNL     1       1.166   3.411  19.486  0.00  0.00    +0.000 C 
BRANCH  15  16
ATOM     16  C   UNL     1       1.775   4.598  20.211  0.00  0.00    +0.000 C 
ATOM     17  O   UNL     1       2.018   4.584  21.415  0.00  0.00    +0.000 OA
ATOM     18  N   UNL     1       2.075   5.663  19.394  0.00  0.00    +0.000 N 
ATOM     19  H   UNL     1       1.729   5.679  18.448  0.00  0.00    +0.000 HD
BRANCH  18  20
ATOM     20  C   UNL     1       2.646   6.880  19.931  0.00  0.00    +0.000 C 
BRANCH  20  21
ATOM     21  C   UNL     1       1.741   8.068  19.714  0.00  0.00    +0.000 A 
ATOM     22  C   UNL     1       0.896   8.517  20.742  0.00  0.00    +0.000 A 
ATOM     23  C   UNL     1       0.034   9.598  20.533  0.00  0.00    +0.000 A 
ATOM     24  C   UNL     1       0.008  10.230  19.293  0.00  0.00    +0.000 A 
ATOM     25 CL   UNL     1      -1.076  11.540  19.022  0.00  0.00    +0.000 Cl
ATOM     26  C   UNL     1       0.844   9.802  18.265  0.00  0.00    +0.000 A 
ATOM     27  C   UNL     1       1.707   8.722  18.474  0.00  0.00    +0.000 A 
ENDBRANCH  20  21
ENDBRANCH  18  20
ENDBRANCH  15  16
ENDBRANCH   1  15
TORSDOF 6
ENDMDL
MODEL 2
REMARK VINA RESULT:      -7.7      5.715      8.396
REMARK  Name = 
REMARK  7 active torsions:
REMARK  status: ('A' for Active; 'I' for Inactive)
REMARK    1  A    between atoms: C_1  and  C_2
REMARK    2  A    between atoms: C_10  and  C_12
REMARK    3  A    between atoms: C_12  and  C_13
REMARK    4  A    between atoms: C_13  and  C_14
REMARK    5  A    between atoms: C_14  and  C_15
REMARK    6  A    between atoms: N_17  and  C_18
REMARK    7  A    between atoms: C_18  and  C_19
REMARK                            x       y       z     vdW  Elec       q    Type
REMARK                         _______ _______ _______ _____ _____    ______ ____
ROOT
ATOM      1  C   UNL     1       8.111   8.835  17.901  0.00  0.00    +0.000 C 
ENDROOT
BRANCH   1   2
ATOM      2  C   UNL     1       8.964   9.766  18.771  0.00  0.00    +0.000 C 
BRANCH   2  12
ATOM      3  C   UNL     1      12.333  17.130  18.171  0.00  0.00    +0.000 C 
ATOM      4  C   UNL     1      11.668  15.784  18.250  0.00  0.00    +0.000 A 
ATOM      5  C   UNL     1      10.481  15.520  17.560  0.00  0.00    +0.000 A 
ATOM      6  C   UNL     1       9.853  14.263  17.627  0.00  0.00    +0.000 A 
ATOM      7  C   UNL     1      10.455  13.266  18.413  0.00  0.00    +0.000 A 
ATOM      8  C   UNL     1      11.637  13.511  19.109  0.00  0.00    +0.000 A 
ATOM      9  C   UNL     1      11.926  12.303  19.767  0.00  0.00    +0.000 A 
ATOM     10  N   UNL     1      11.030  11.351  19.524  0.00  0.00    +0.000 NA
ATOM     11  N   UNL     1      10.113  11.941  18.697  0.00  0.00    +0.000 N 
ATOM     12  C   UNL     1       9.007  11.189  18.240  0.00  0.00    +0.000 C 
ATOM     13  O   UNL     1       8.192  11.691  17.473  0.00  0.00    +0.000 OA
ATOM     14  C   UNL     1      12.251  14.775  19.033  0.00  0.00    +0.000 A 
ENDBRANCH   2  12
ENDBRANCH   1   2
BRANCH   1  15
ATOM     15  C   UNL     1       8.203   7.371  18.349  0.00  0.00    +0.000 C 
BRANCH  15  16
ATOM     16  C   UNL     1       7.385   6.445  17.466  0.00  0.00    +0.000 C 
ATOM     17  O   UNL     1       7.711   5.280  17.250  0.00  0.00    +0.000 OA
ATOM     18  N   UNL     1       6.230   7.008  16.975  0.00  0.00    +0.000 N 
ATOM     19  H   UNL     1       6.083   8.001  17.064  0.00  0.00    +0.000 HD
BRANCH  18  20
ATOM     20  C   UNL     1       5.347   6.263  16.102  0.00  0.00    +0.000 C 
BRANCH  20  21
ATOM     21  C   UNL     1       4.294   5.511  16.880  0.00  0.00    +0.000 A 
ATOM     22  C   UNL     1       3.438   6.191  17.761  0.00  0.00    +0.000 A 
ATOM     23  C   UNL     1       2.482   5.492  18.504  0.00  0.00    +0.000 A 
ATOM     24  C   UNL     1       2.383   4.110  18.376  0.00  0.00    +0.000 A 
ATOM     25 CL   UNL     1       1.230   3.242  19.314  0.00  0.00    +0.000 Cl
ATOM     26  C   UNL     1       3.220   3.421  17.500  0.00  0.00    +0.000 A 
ATOM     27  C   UNL     1       4.174   4.119  16.755  0.00  0.00    +0.000 A 
ENDBRANCH  20  21
ENDBRANCH  18  20
ENDBRANCH  15  16
ENDBRANCH   1  15
TORSDOF 6
ENDMDL
MODEL 3
REMARK VINA RESULT:      -7.5      5.636      8.272
REMARK  Name = 
REMARK  7 active torsions:
REMARK  status: ('A' for Active; 'I' for Inactive)
REMARK    1  A    between atoms: C_1  and  C_2
REMARK    2  A    between atoms: C_10  and  C_12
REMARK    3  A    between atoms: C_12  and  C_13
REMARK    4  A    between atoms: C_13  and  C_14
REMARK    5  A    between atoms: C_14  and  C_15
REMARK    6  A    between atoms: N_17  and  C_18
REMARK    7  A    between atoms: C_18  and  C_19
REMARK                            x       y       z     vdW  Elec       q    Type
REMARK                         _______ _______ _______ _____ _____    ______ ____
ROOT
ATOM      1  C   UNL     1       7.999   8.715  17.825  0.00  0.00    +0.000 C 
ENDROOT
BRANCH   1   2
ATOM      2  C   UNL     1       8.958   9.574  18.658  0.00  0.00    +0.000 C 
BRANCH   2  12
ATOM      3  C   UNL     1      12.202  17.017  18.557  0.00  0.00    +0.000 C 
ATOM      4  C   UNL     1      11.560  15.658  18.543  0.00  0.00    +0.000 A 
ATOM      5  C   UNL     1      10.396  15.412  17.810  0.00  0.00    +0.000 A 
ATOM      6  C   UNL     1       9.790  14.143  17.790  0.00  0.00    +0.000 A 
ATOM      7  C   UNL     1      10.391  13.114  18.535  0.00  0.00    +0.000 A 
ATOM      8  C   UNL     1      11.551  13.339  19.273  0.00  0.00    +0.000 A 
ATOM      9  C   UNL     1      11.846  12.102  19.870  0.00  0.00    +0.000 A 
ATOM     10  N   UNL     1      10.974  11.149  19.551  0.00  0.00    +0.000 NA
ATOM     11  N   UNL     1      10.067  11.769  18.735  0.00  0.00    +0.000 N 
ATOM     12  C   UNL     1       8.987  11.025  18.209  0.00  0.00    +0.000 C 
ATOM     13  O   UNL     1       8.181  11.555  17.451  0.00  0.00    +0.000 OA
ATOM     14  C   UNL     1      12.143  14.616  19.283  0.00  0.00    +0.000 A 
ENDBRANCH   2  12
ENDBRANCH   1   2
BRANCH   1  15
ATOM     15  C   UNL     1       8.069   7.230  18.200  0.00  0.00    +0.000 C 
BRANCH  15  16
ATOM     16  C   UNL     1       7.093   6.385  17.399  0.00  0.00    +0.000 C 
ATOM     17  O   UNL     1       7.458   5.458  16.680  0.00  0.00    +0.000 OA
ATOM     18  N   UNL     1       5.772   6.716  17.592  0.00  0.00    +0.000 N 
ATOM     19  H   UNL     1       5.537   7.567  18.077  0.00  0.00    +0.000 HD
BRANCH  18  20
ATOM     20  C   UNL     1       4.716   6.018  16.889  0.00  0.00    +0.000 C 
BRANCH  20  21
ATOM     21  C   UNL     1       3.833   5.240  17.834  0.00  0.00    +0.000 A 
ATOM     22  C   UNL     1       2.979   4.237  17.348  0.00  0.00    +0.000 A 
ATOM     23  C   UNL     1       2.138   3.536  18.217  0.00  0.00    +0.000 A 
ATOM     24  C   UNL     1       2.141   3.840  19.576  0.00  0.00    +0.000 A 
ATOM     25 CL   UNL     1       1.083   3.002  20.644  0.00  0.00    +0.000 Cl
ATOM     26  C   UNL     1       2.988   4.827  20.076  0.00  0.00    +0.000 A 
ATOM     27  C   UNL     1       3.830   5.527  19.207  0.00  0.00    +0.000 A 
ENDBRANCH  20  21
ENDBRANCH  18  20
ENDBRANCH  15  16
ENDBRANCH   1  15
TORSDOF 6
ENDMDL
MODEL 4
REMARK VINA RESULT:      -7.5      2.428      6.105
REMARK  Name = 
REMARK  7 active torsions:
REMARK  status: ('A' for Active; 'I' for Inactive)
REMARK    1  A    between atoms: C_1  and  C_2
REMARK    2  A    between atoms: C_10  and  C_12
REMARK    3  A    between atoms: C_12  and  C_13
REMARK    4  A    between atoms: C_13  and  C_14
REMARK    5  A    between atoms: C_14  and  C_15
REMARK    6  A    between atoms: N_17  and  C_18
REMARK    7  A    between atoms: C_18  and  C_19
REMARK                            x       y       z     vdW  Elec       q    Type
REMARK                         _______ _______ _______ _____ _____    ______ ____
ROOT
ATOM      1  C   UNL     1       1.025   4.488  20.309  0.00  0.00    +0.000 C 
ENDROOT
BRANCH   1   2
ATOM      2  C   UNL     1       2.129   5.485  20.681  0.00  0.00    +0.000 C 
BRANCH   2  12
ATOM      3  C   UNL     1       0.708  13.188  18.540  0.00  0.00    +0.000 C 
ATOM      4  C   UNL     1       0.994  11.753  18.887  0.00  0.00    +0.000 A 
ATOM      5  C   UNL     1       1.665  10.911  17.995  0.00  0.00    +0.000 A 
ATOM      6  C   UNL     1       1.938   9.568  18.312  0.00  0.00    +0.000 A 
ATOM      7  C   UNL     1       1.516   9.087  19.563  0.00  0.00    +0.000 A 
ATOM      8  C   UNL     1       0.845   9.911  20.465  0.00  0.00    +0.000 A 
ATOM      9  C   UNL     1       0.591   9.094  21.580  0.00  0.00    +0.000 A 
ATOM     10  N   UNL     1       1.056   7.856  21.436  0.00  0.00    +0.000 NA
ATOM     11  N   UNL     1       1.619   7.841  20.189  0.00  0.00    +0.000 N 
ATOM     12  C   UNL     1       2.216   6.652  19.712  0.00  0.00    +0.000 C 
ATOM     13  O   UNL     1       2.754   6.628  18.610  0.00  0.00    +0.000 OA
ATOM     14  C   UNL     1       0.578  11.251  20.131  0.00  0.00    +0.000 A 
ENDBRANCH   2  12
ENDBRANCH   1   2
BRANCH   1  15
ATOM     15  C   UNL     1       1.464   3.032  20.500  0.00  0.00    +0.000 C 
BRANCH  15  16
ATOM     16  C   UNL     1       2.774   2.726  19.795  0.00  0.00    +0.000 C 
ATOM     17  O   UNL     1       3.719   2.185  20.362  0.00  0.00    +0.000 OA
ATOM     18  N   UNL     1       2.786   3.060  18.461  0.00  0.00    +0.000 N 
ATOM     19  H   UNL     1       2.044   3.626  18.082  0.00  0.00    +0.000 HD
BRANCH  18  20
ATOM     20  C   UNL     1       3.966   2.850  17.648  0.00  0.00    +0.000 C 
BRANCH  20  21
ATOM     21  C   UNL     1       4.829   4.086  17.581  0.00  0.00    +0.000 A 
ATOM     22  C   UNL     1       5.595   4.480  18.690  0.00  0.00    +0.000 A 
ATOM     23  C   UNL     1       6.373   5.641  18.641  0.00  0.00    +0.000 A 
ATOM     24  C   UNL     1       6.381   6.418  17.486  0.00  0.00    +0.000 A 
ATOM     25 CL   UNL     1       7.310   7.866  17.433  0.00  0.00    +0.000 Cl
ATOM     26  C   UNL     1       5.632   6.037  16.374  0.00  0.00    +0.000 A 
ATOM     27  C   UNL     1       4.856   4.875  16.422  0.00  0.00    +0.000 A 
ENDBRANCH  20  21
ENDBRANCH  18  20
ENDBRANCH  15  16
ENDBRANCH   1  15
TORSDOF 6
ENDMDL
MODEL 5
REMARK VINA RESULT:      -7.4      6.240      8.859
REMARK  Name = 
REMARK  7 active torsions:
REMARK  status: ('A' for Active; 'I' for Inactive)
REMARK    1  A    between atoms: C_1  and  C_2
REMARK    2  A    between atoms: C_10  and  C_12
REMARK    3  A    between atoms: C_12  and  C_13
REMARK    4  A    between atoms: C_13  and  C_14
REMARK    5  A    between atoms: C_14  and  C_15
REMARK    6  A    between atoms: N_17  and  C_18
REMARK    7  A    between atoms: C_18  and  C_19
REMARK                            x       y       z     vdW  Elec       q    Type
REMARK                         _______ _______ _______ _____ _____    ______ ____
ROOT
ATOM      1  C   UNL     1       8.717   9.768  19.015  0.00  0.00    +0.000 C 
ENDROOT
BRANCH   1   2
ATOM      2  C   UNL     1       9.958  10.650  18.835  0.00  0.00    +0.000 C 
BRANCH   2  12
ATOM      3  C   UNL     1      10.747  18.606  17.417  0.00  0.00    +0.000 C 
ATOM      4  C   UNL     1      10.572  17.145  17.725  0.00  0.00    +0.000 A 
ATOM      5  C   UNL     1       9.827  16.721  18.830  0.00  0.00    +0.000 A 
ATOM      6  C   UNL     1       9.657  15.356  19.124  0.00  0.00    +0.000 A 
ATOM      7  C   UNL     1      10.260  14.417  18.270  0.00  0.00    +0.000 A 
ATOM      8  C   UNL     1      11.007  14.821  17.165  0.00  0.00    +0.000 A 
ATOM      9  C   UNL     1      11.441  13.626  16.566  0.00  0.00    +0.000 A 
ATOM     10  N   UNL     1      11.017  12.539  17.205  0.00  0.00    +0.000 NA
ATOM     11  N   UNL     1      10.295  13.020  18.264  0.00  0.00    +0.000 N 
ATOM     12  C   UNL     1       9.693  12.110  19.163  0.00  0.00    +0.000 C 
ATOM     13  O   UNL     1       9.018  12.521  20.100  0.00  0.00    +0.000 OA
ATOM     14  C   UNL     1      11.169  16.190  16.887  0.00  0.00    +0.000 A 
ENDBRANCH   2  12
ENDBRANCH   1   2
BRANCH   1  15
ATOM     15  C   UNL     1       8.200   9.210  17.683  0.00  0.00    +0.000 C 
BRANCH  15  16
ATOM     16  C   UNL     1       7.749   7.764  17.799  0.00  0.00    +0.000 C 
ATOM     17  O   UNL     1       8.148   7.017  18.689  0.00  0.00    +0.000 OA
ATOM     18  N   UNL     1       6.822   7.386  16.856  0.00  0.00    +0.000 N 
ATOM     19  H   UNL     1       6.636   7.988  16.070  0.00  0.00    +0.000 HD
BRANCH  18  20
ATOM     20  C   UNL     1       6.303   6.035  16.818  0.00  0.00    +0.000 C 
BRANCH  20  21
ATOM     21  C   UNL     1       5.112   5.865  17.729  0.00  0.00    +0.000 A 
ATOM     22  C   UNL     1       4.025   6.752  17.653  0.00  0.00    +0.000 A 
ATOM     23  C   UNL     1       2.934   6.615  18.517  0.00  0.00    +0.000 A 
ATOM     24  C   UNL     1       2.928   5.596  19.465  0.00  0.00    +0.000 A 
ATOM     25 CL   UNL     1       1.602   5.445  20.553  0.00  0.00    +0.000 Cl
ATOM     26  C   UNL     1       3.995   4.704  19.549  0.00  0.00    +0.000 A 
ATOM     27  C   UNL     1       5.085   4.839  18.685  0.00  0.00    +0.000 A 
ENDBRANCH  20  21
ENDBRANCH  18  20
ENDBRANCH  15  16
ENDBRANCH   1  15
TORSDOF 6
ENDMDL
MODEL 6
REMARK VINA RESULT:      -7.4      1.707      2.258
REMARK  Name = 
REMARK  7 active torsions:
REMARK  status: ('A' for Active; 'I' for Inactive)
REMARK    1  A    between atoms: C_1  and  C_2
REMARK    2  A    between atoms: C_10  and  C_12
REMARK    3  A    between atoms: C_12  and  C_13
REMARK    4  A    between atoms: C_13  and  C_14
REMARK    5  A    between atoms: C_14  and  C_15
REMARK    6  A    between atoms: N_17  and  C_18
REMARK    7  A    between atoms: C_18  and  C_19
REMARK                            x       y       z     vdW  Elec       q    Type
REMARK                         _______ _______ _______ _____ _____    ______ ____
ROOT
ATOM      1  C   UNL     1       2.015   2.348  20.389  0.00  0.00    +0.000 C 
ENDROOT
BRANCH   1   2
ATOM      2  C   UNL     1       3.522   2.520  20.164  0.00  0.00    +0.000 C 
BRANCH   2  12
ATOM      3  C   UNL     1       7.665   5.461  13.829  0.00  0.00    +0.000 C 
ATOM      4  C   UNL     1       6.872   4.882  14.967  0.00  0.00    +0.000 A 
ATOM      5  C   UNL     1       5.970   3.833  14.764  0.00  0.00    +0.000 A 
ATOM      6  C   UNL     1       5.226   3.284  15.824  0.00  0.00    +0.000 A 
ATOM      7  C   UNL     1       5.412   3.821  17.109  0.00  0.00    +0.000 A 
ATOM      8  C   UNL     1       6.306   4.868  17.331  0.00  0.00    +0.000 A 
ATOM      9  C   UNL     1       6.221   5.128  18.709  0.00  0.00    +0.000 A 
ATOM     10  N   UNL     1       5.365   4.328  19.339  0.00  0.00    +0.000 NA
ATOM     11  N   UNL     1       4.854   3.525  18.355  0.00  0.00    +0.000 N 
ATOM     12  C   UNL     1       3.896   2.542  18.691  0.00  0.00    +0.000 C 
ATOM     13  O   UNL     1       3.450   1.792  17.829  0.00  0.00    +0.000 OA
ATOM     14  C   UNL     1       7.041   5.406  16.259  0.00  0.00    +0.000 A 
ENDBRANCH   2  12
ENDBRANCH   1   2
BRANCH   1  15
ATOM     15  C   UNL     1       1.293   3.690  20.558  0.00  0.00    +0.000 C 
BRANCH  15  16
ATOM     16  C   UNL     1       1.654   4.681  19.466  0.00  0.00    +0.000 C 
ATOM     17  O   UNL     1       1.288   4.544  18.302  0.00  0.00    +0.000 OA
ATOM     18  N   UNL     1       2.378   5.765  19.906  0.00  0.00    +0.000 N 
ATOM     19  H   UNL     1       2.771   5.758  20.834  0.00  0.00    +0.000 HD
BRANCH  18  20
ATOM     20  C   UNL     1       2.817   6.794  18.987  0.00  0.00    +0.000 C 
BRANCH  20  21
ATOM     21  C   UNL     1       1.990   8.050  19.116  0.00  0.00    +0.000 A 
ATOM     22  C   UNL     1       1.439   8.417  20.354  0.00  0.00    +0.000 A 
ATOM     23  C   UNL     1       0.648   9.564  20.469  0.00  0.00    +0.000 A 
ATOM     24  C   UNL     1       0.399  10.346  19.345  0.00  0.00    +0.000 A 
ATOM     25 CL   UNL     1      -0.602  11.741  19.476  0.00  0.00    +0.000 Cl
ATOM     26  C   UNL     1       0.944  10.001  18.110  0.00  0.00    +0.000 A 
ATOM     27  C   UNL     1       1.736   8.855  17.995  0.00  0.00    +0.000 A 
ENDBRANCH  20  21
ENDBRANCH  18  20
ENDBRANCH  15  16
ENDBRANCH   1  15
TORSDOF 6
ENDMDL
MODEL 7
REMARK VINA RESULT:      -7.4      5.021      8.055
REMARK  Name = 
REMARK  7 active torsions:
REMARK  status: ('A' for Active; 'I' for Inactive)
REMARK    1  A    between atoms: C_1  and  C_2
REMARK    2  A    between atoms: C_10  and  C_12
REMARK    3  A    between atoms: C_12  and  C_13
REMARK    4  A    between atoms: C_13  and  C_14
REMARK    5  A    between atoms: C_14  and  C_15
REMARK    6  A    between atoms: N_17  and  C_18
REMARK    7  A    between atoms: C_18  and  C_19
REMARK                            x       y       z     vdW  Elec       q    Type
REMARK                         _______ _______ _______ _____ _____    ______ ____
ROOT
ATOM      1  C   UNL     1       8.341   8.010  18.440  0.00  0.00    +0.000 C 
ENDROOT
BRANCH   1   2
ATOM      2  C   UNL     1       7.584   7.143  17.428  0.00  0.00    +0.000 C 
BRANCH   2  12
ATOM      3  C   UNL     1       1.029   2.924  19.703  0.00  0.00    +0.000 C 
ATOM      4  C   UNL     1       2.274   3.667  19.305  0.00  0.00    +0.000 A 
ATOM      5  C   UNL     1       3.545   3.156  19.588  0.00  0.00    +0.000 A 
ATOM      6  C   UNL     1       4.715   3.843  19.217  0.00  0.00    +0.000 A 
ATOM      7  C   UNL     1       4.575   5.071  18.548  0.00  0.00    +0.000 A 
ATOM      8  C   UNL     1       3.317   5.596  18.259  0.00  0.00    +0.000 A 
ATOM      9  C   UNL     1       3.576   6.809  17.597  0.00  0.00    +0.000 A 
ATOM     10  N   UNL     1       4.875   7.057  17.454  0.00  0.00    +0.000 NA
ATOM     11  N   UNL     1       5.498   5.993  18.048  0.00  0.00    +0.000 N 
ATOM     12  C   UNL     1       6.910   5.942  18.072  0.00  0.00    +0.000 C 
ATOM     13  O   UNL     1       7.487   4.982  18.571  0.00  0.00    +0.000 OA
ATOM     14  C   UNL     1       2.157   4.897  18.638  0.00  0.00    +0.000 A 
ENDBRANCH   2  12
ENDBRANCH   1   2
BRANCH   1  15
ATOM     15  C   UNL     1       8.289   9.501  18.086  0.00  0.00    +0.000 C 
BRANCH  15  16
ATOM     16  C   UNL     1       9.319  10.314  18.852  0.00  0.00    +0.000 C 
ATOM     17  O   UNL     1       9.342  10.361  20.079  0.00  0.00    +0.000 OA
ATOM     18  N   UNL     1      10.246  10.943  18.055  0.00  0.00    +0.000 N 
ATOM     19  H   UNL     1      10.100  10.987  17.059  0.00  0.00    +0.000 HD
BRANCH  18  20
ATOM     20  C   UNL     1      11.286  11.772  18.629  0.00  0.00    +0.000 C 
BRANCH  20  21
ATOM     21  C   UNL     1      10.834  13.201  18.799  0.00  0.00    +0.000 A 
ATOM     22  C   UNL     1      10.786  13.787  20.074  0.00  0.00    +0.000 A 
ATOM     23  C   UNL     1      10.339  15.101  20.238  0.00  0.00    +0.000 A 
ATOM     24  C   UNL     1       9.930  15.834  19.127  0.00  0.00    +0.000 A 
ATOM     25 CL   UNL     1       9.347  17.441  19.328  0.00  0.00    +0.000 Cl
ATOM     26  C   UNL     1       9.977  15.271  17.853  0.00  0.00    +0.000 A 
ATOM     27  C   UNL     1      10.426  13.957  17.690  0.00  0.00    +0.000 A 
ENDBRANCH  20  21
ENDBRANCH  18  20
ENDBRANCH  15  16
ENDBRANCH   1  15
TORSDOF 6
ENDMDL
MODEL 8
REMARK VINA RESULT:      -7.3      3.931      7.383
REMARK  Name = 
REMARK  7 active torsions:
REMARK  status: ('A' for Active; 'I' for Inactive)
REMARK    1  A    between atoms: C_1  and  C_2
REMARK    2  A    between atoms: C_10  and  C_12
REMARK    3  A    between atoms: C_12  and  C_13
REMARK    4  A    between atoms: C_13  and  C_14
REMARK    5  A    between atoms: C_14  and  C_15
REMARK    6  A    between atoms: N_17  and  C_18
REMARK    7  A    between atoms: C_18  and  C_19
REMARK                            x       y       z     vdW  Elec       q    Type
REMARK                         _______ _______ _______ _____ _____    ______ ____
ROOT
ATOM      1  C   UNL     1       5.885   7.429  16.837  0.00  0.00    +0.000 C 
ENDROOT
BRANCH   1   2
ATOM      2  C   UNL     1       4.988   6.460  16.058  0.00  0.00    +0.000 C 
BRANCH   2  12
ATOM      3  C   UNL     1       1.249   2.493  22.077  0.00  0.00    +0.000 C 
ATOM      4  C   UNL     1       1.966   3.180  20.948  0.00  0.00    +0.000 A 
ATOM      5  C   UNL     1       2.801   2.471  20.080  0.00  0.00    +0.000 A 
ATOM      6  C   UNL     1       3.474   3.105  19.020  0.00  0.00    +0.000 A 
ATOM      7  C   UNL     1       3.284   4.487  18.852  0.00  0.00    +0.000 A 
ATOM      8  C   UNL     1       2.456   5.212  19.707  0.00  0.00    +0.000 A 
ATOM      9  C   UNL     1       2.515   6.533  19.233  0.00  0.00    +0.000 A 
ATOM     10  N   UNL     1       3.296   6.669  18.165  0.00  0.00    +0.000 NA
ATOM     11  N   UNL     1       3.782   5.412  17.930  0.00  0.00    +0.000 N 
ATOM     12  C   UNL     1       4.662   5.201  16.844  0.00  0.00    +0.000 C 
ATOM     13  O   UNL     1       5.084   4.076  16.598  0.00  0.00    +0.000 OA
ATOM     14  C   UNL     1       1.792   4.561  20.763  0.00  0.00    +0.000 A 
ENDBRANCH   2  12
ENDBRANCH   1   2
BRANCH   1  15
ATOM     15  C   UNL     1       7.317   6.904  16.990  0.00  0.00    +0.000 C 
BRANCH  15  16
ATOM     16  C   UNL     1       8.051   7.556  18.149  0.00  0.00    +0.000 C 
ATOM     17  O   UNL     1       8.449   6.919  19.121  0.00  0.00    +0.000 OA
ATOM     18  N   UNL     1       8.272   8.904  17.988  0.00  0.00    +0.000 N 
ATOM     19  H   UNL     1       7.805   9.401  17.246  0.00  0.00    +0.000 HD
BRANCH  18  20
ATOM     20  C   UNL     1       8.944   9.679  19.010  0.00  0.00    +0.000 C 
BRANCH  20  21
ATOM     21  C   UNL     1       9.535  10.951  18.453  0.00  0.00    +0.000 A 
ATOM     22  C   UNL     1      10.924  11.152  18.454  0.00  0.00    +0.000 A 
ATOM     23  C   UNL     1      11.472  12.342  17.965  0.00  0.00    +0.000 A 
ATOM     24  C   UNL     1      10.631  13.340  17.481  0.00  0.00    +0.000 A 
ATOM     25 CL   UNL     1      11.299  14.820  16.909  0.00  0.00    +0.000 Cl
ATOM     26  C   UNL     1       9.250  13.154  17.465  0.00  0.00    +0.000 A 
ATOM     27  C   UNL     1       8.703  11.964  17.952  0.00  0.00    +0.000 A 
ENDBRANCH  20  21
ENDBRANCH  18  20
ENDBRANCH  15  16
ENDBRANCH   1  15
TORSDOF 6
ENDMDL
MODEL 9
REMARK VINA RESULT:      -7.3      4.771      7.434
REMARK  Name = 
REMARK  7 active torsions:
REMARK  status: ('A' for Active; 'I' for Inactive)
REMARK    1  A    between atoms: C_1  and  C_2
REMARK    2  A    between atoms: C_10  and  C_12
REMARK    3  A    between atoms: C_12  and  C_13
REMARK    4  A    between atoms: C_13  and  C_14
REMARK    5  A    between atoms: C_14  and  C_15
REMARK    6  A    between atoms: N_17  and  C_18
REMARK    7  A    between atoms: C_18  and  C_19
REMARK                            x       y       z     vdW  Elec       q    Type
REMARK                         _______ _______ _______ _____ _____    ______ ____
ROOT
ATOM      1  C   UNL     1       8.231   7.977  18.273  0.00  0.00    +0.000 C 
ENDROOT
BRANCH   1   2
ATOM      2  C   UNL     1       7.625   6.924  17.337  0.00  0.00    +0.000 C 
BRANCH   2  12
ATOM      3  C   UNL     1       0.964   3.145  20.036  0.00  0.00    +0.000 C 
ATOM      4  C   UNL     1       2.228   3.807  19.563  0.00  0.00    +0.000 A 
ATOM      5  C   UNL     1       3.484   3.279  19.874  0.00  0.00    +0.000 A 
ATOM      6  C   UNL     1       4.672   3.890  19.433  0.00  0.00    +0.000 A 
ATOM      7  C   UNL     1       4.564   5.061  18.663  0.00  0.00    +0.000 A 
ATOM      8  C   UNL     1       3.321   5.603  18.344  0.00  0.00    +0.000 A 
ATOM      9  C   UNL     1       3.612   6.746  17.578  0.00  0.00    +0.000 A 
ATOM     10  N   UNL     1       4.916   6.936  17.400  0.00  0.00    +0.000 NA
ATOM     11  N   UNL     1       5.511   5.905  18.076  0.00  0.00    +0.000 N 
ATOM     12  C   UNL     1       6.921   5.807  18.089  0.00  0.00    +0.000 C 
ATOM     13  O   UNL     1       7.472   4.873  18.662  0.00  0.00    +0.000 OA
ATOM     14  C   UNL     1       2.143   4.979  18.794  0.00  0.00    +0.000 A 
ENDBRANCH   2  12
ENDBRANCH   1   2
BRANCH   1  15
ATOM     15  C   UNL     1       7.911   9.408  17.827  0.00  0.00    +0.000 C 
BRANCH  15  16
ATOM     16  C   UNL     1       8.913  10.417  18.360  0.00  0.00    +0.000 C 
ATOM     17  O   UNL     1       9.212  11.439  17.746  0.00  0.00    +0.000 OA
ATOM     18  N   UNL     1       9.412  10.112  19.604  0.00  0.00    +0.000 N 
ATOM     19  H   UNL     1       9.245   9.200  19.998  0.00  0.00    +0.000 HD
BRANCH  18  20
ATOM     20  C   UNL     1      10.392  10.963  20.247  0.00  0.00    +0.000 C 
BRANCH  20  21
ATOM     21  C   UNL     1       9.741  11.992  21.139  0.00  0.00    +0.000 A 
ATOM     22  C   UNL     1       8.666  11.637  21.969  0.00  0.00    +0.000 A 
ATOM     23  C   UNL     1       8.042  12.596  22.774  0.00  0.00    +0.000 A 
ATOM     24  C   UNL     1       8.486  13.915  22.747  0.00  0.00    +0.000 A 
ATOM     25 CL   UNL     1       7.699  15.104  23.711  0.00  0.00    +0.000 Cl
ATOM     26  C   UNL     1       9.556  14.282  21.934  0.00  0.00    +0.000 A 
ATOM     27  C   UNL     1      10.181  13.324  21.131  0.00  0.00    +0.000 A 
ENDBRANCH  20  21
ENDBRANCH  18  20
ENDBRANCH  15  16
ENDBRANCH   1  15
TORSDOF 6
ENDMDL
