MODEL 1
REMARK VINA RESULT:      -7.4      0.000      0.000
REMARK  Name = 
REMARK  3 active torsions:
REMARK  status: ('A' for Active; 'I' for Inactive)
REMARK    1  A    between atoms: C_8  and  C_9
REMARK    2  A    between atoms: C_9  and  S_10
REMARK    3  A    between atoms: S_10  and  C_11
REMARK                            x       y       z     vdW  Elec       q    Type
REMARK                         _______ _______ _______ _____ _____    ______ ____
ROOT
ATOM      1  S   UNL     1       4.543   3.352  17.062  0.00  0.00    +0.000 S 
ENDROOT
BRANCH   1   2
ATOM      2  C   UNL     1       5.244   4.894  16.702  0.00  0.00    +0.000 A 
ATOM      3  N   UNL     1       4.966   5.687  15.689  0.00  0.00    +0.000 NA
ATOM      4  N   UNL     1       5.764   6.811  15.800  0.00  0.00    +0.000 NA
ATOM      5  C   UNL     1       6.509   6.674  16.877  0.00  0.00    +0.000 A 
ATOM      6  C   UNL     1       7.503   7.497  17.484  0.00  0.00    +0.000 A 
ATOM      7  C   UNL     1       8.112   7.083  18.613  0.00  0.00    +0.000 A 
ATOM      8  C   UNL     1       7.777   5.812  19.236  0.00  0.00    +0.000 A 
ATOM      9  C   UNL     1       6.841   5.035  18.667  0.00  0.00    +0.000 A 
ATOM     10  N   UNL     1       6.214   5.465  17.496  0.00  0.00    +0.000 N 
ENDBRANCH   1   2
BRANCH   1  11
ATOM     11  C   UNL     1       2.788   3.756  17.306  0.00  0.00    +0.000 C 
BRANCH  11  19
ATOM     12  F   UNL     1       2.061   1.430  18.712  0.00  0.00    +0.000 F 
ATOM     13  C   UNL     1       2.092   2.572  19.414  0.00  0.00    +0.000 A 
ATOM     14  C   UNL     1       1.774   2.517  20.772  0.00  0.00    +0.000 A 
ATOM     15  C   UNL     1       1.803   3.679  21.536  0.00  0.00    +0.000 A 
ATOM     16  C   UNL     1       2.158   4.883  20.933  0.00  0.00    +0.000 A 
ATOM     17  C   UNL     1       2.479   4.930  19.568  0.00  0.00    +0.000 A 
ATOM     18 CL   UNL     1       2.928   6.466  18.914  0.00  0.00    +0.000 Cl
ATOM     19  C   UNL     1       2.440   3.770  18.777  0.00  0.00    +0.000 A 
ENDBRANCH  11  19
ENDBRANCH   1  11
TORSDOF 3
ENDMDL
MODEL 2
REMARK VINA RESULT:      -7.3      2.550      3.408
REMARK  Name = 
REMARK  3 active torsions:
REMARK  status: ('A' for Active; 'I' for Inactive)
REMARK    1  A    between atoms: C_8  and  C_9
REMARK    2  A    between atoms: C_9  and  S_10
REMARK    3  A    between atoms: S_10  and  C_11
REMARK                            x       y       z     vdW  Elec       q    Type
REMARK                         _______ _______ _______ _____ _____    ______ ____
ROOT
ATOM      1  S   UNL     1       4.597   3.748  16.722  0.00  0.00    +0.000 S 
ENDROOT
BRANCH   1   2
ATOM      2  C   UNL     1       5.889   4.518  15.864  0.00  0.00    +0.000 A 
ATOM      3  N   UNL     1       6.761   5.384  16.332  0.00  0.00    +0.000 NA
ATOM      4  N   UNL     1       7.609   5.733  15.297  0.00  0.00    +0.000 NA
ATOM      5  C   UNL     1       7.230   5.071  14.223  0.00  0.00    +0.000 A 
ATOM      6  C   UNL     1       7.717   5.030  12.883  0.00  0.00    +0.000 A 
ATOM      7  C   UNL     1       7.109   4.238  11.978  0.00  0.00    +0.000 A 
ATOM      8  C   UNL     1       5.965   3.414  12.334  0.00  0.00    +0.000 A 
ATOM      9  C   UNL     1       5.504   3.451  13.596  0.00  0.00    +0.000 A 
ATOM     10  N   UNL     1       6.134   4.275  14.530  0.00  0.00    +0.000 N 
ENDBRANCH   1   2
BRANCH   1  11
ATOM     11  C   UNL     1       4.853   4.319  18.429  0.00  0.00    +0.000 C 
BRANCH  11  19
ATOM     12  F   UNL     1       4.671   2.116  20.170  0.00  0.00    +0.000 F 
ATOM     13  C   UNL     1       3.611   2.937  20.125  0.00  0.00    +0.000 A 
ATOM     14  C   UNL     1       2.518   2.644  20.942  0.00  0.00    +0.000 A 
ATOM     15  C   UNL     1       1.404   3.476  20.930  0.00  0.00    +0.000 A 
ATOM     16  C   UNL     1       1.399   4.599  20.105  0.00  0.00    +0.000 A 
ATOM     17  C   UNL     1       2.503   4.889  19.289  0.00  0.00    +0.000 A 
ATOM     18 CL   UNL     1       2.413   6.315  18.316  0.00  0.00    +0.000 Cl
ATOM     19  C   UNL     1       3.630   4.051  19.275  0.00  0.00    +0.000 A 
ENDBRANCH  11  19
ENDBRANCH   1  11
TORSDOF 3
ENDMDL
MODEL 3
REMARK VINA RESULT:      -7.3      1.881      2.239
REMARK  Name = 
REMARK  3 active torsions:
REMARK  status: ('A' for Active; 'I' for Inactive)
REMARK    1  A    between atoms: C_8  and  C_9
REMARK    2  A    between atoms: C_9  and  S_10
REMARK    3  A    between atoms: S_10  and  C_11
REMARK                            x       y       z     vdW  Elec       q    Type
REMARK                         _______ _______ _______ _____ _____    ______ ____
ROOT
ATOM      1  S   UNL     1       4.123   3.032  17.134  0.00  0.00    +0.000 S 
ENDROOT
BRANCH   1   2
ATOM      2  C   UNL     1       5.169   4.298  16.583  0.00  0.00    +0.000 A 
ATOM      3  N   UNL     1       5.304   4.752  15.356  0.00  0.00    +0.000 NA
ATOM      4  N   UNL     1       6.248   5.763  15.380  0.00  0.00    +0.000 NA
ATOM      5  C   UNL     1       6.665   5.898  16.622  0.00  0.00    +0.000 A 
ATOM      6  C   UNL     1       7.615   6.762  17.241  0.00  0.00    +0.000 A 
ATOM      7  C   UNL     1       7.839   6.666  18.567  0.00  0.00    +0.000 A 
ATOM      8  C   UNL     1       7.127   5.701  19.390  0.00  0.00    +0.000 A 
ATOM      9  C   UNL     1       6.231   4.887  18.810  0.00  0.00    +0.000 A 
ATOM     10  N   UNL     1       6.004   4.986  17.436  0.00  0.00    +0.000 N 
ENDBRANCH   1   2
BRANCH   1  11
ATOM     11  C   UNL     1       2.485   3.818  17.088  0.00  0.00    +0.000 C 
BRANCH  11  19
ATOM     12  F   UNL     1       3.166   6.510  17.542  0.00  0.00    +0.000 F 
ATOM     13  C   UNL     1       2.552   5.867  18.547  0.00  0.00    +0.000 A 
ATOM     14  C   UNL     1       2.293   6.576  19.720  0.00  0.00    +0.000 A 
ATOM     15  C   UNL     1       1.651   5.947  20.781  0.00  0.00    +0.000 A 
ATOM     16  C   UNL     1       1.267   4.614  20.652  0.00  0.00    +0.000 A 
ATOM     17  C   UNL     1       1.527   3.908  19.467  0.00  0.00    +0.000 A 
ATOM     18 CL   UNL     1       0.994   2.266  19.394  0.00  0.00    +0.000 Cl
ATOM     19  C   UNL     1       2.190   4.522  18.393  0.00  0.00    +0.000 A 
ENDBRANCH  11  19
ENDBRANCH   1  11
TORSDOF 3
ENDMDL
MODEL 4
REMARK VINA RESULT:      -7.2      2.933      3.850
REMARK  Name = 
REMARK  3 active torsions:
REMARK  status: ('A' for Active; 'I' for Inactive)
REMARK    1  A    between atoms: C_8  and  C_9
REMARK    2  A    between atoms: C_9  and  S_10
REMARK    3  A    between atoms: S_10  and  C_11
REMARK                            x       y       z     vdW  Elec       q    Type
REMARK                         _______ _______ _______ _____ _____    ______ ____
ROOT
ATOM      1  S   UNL     1       4.361   3.979  16.582  0.00  0.00    +0.000 S 
ENDROOT
BRANCH   1   2
ATOM      2  C   UNL     1       5.760   4.646  15.810  0.00  0.00    +0.000 A 
ATOM      3  N   UNL     1       6.659   5.453  16.332  0.00  0.00    +0.000 NA
ATOM      4  N   UNL     1       7.598   5.729  15.355  0.00  0.00    +0.000 NA
ATOM      5  C   UNL     1       7.246   5.085  14.261  0.00  0.00    +0.000 A 
ATOM      6  C   UNL     1       7.818   4.995  12.958  0.00  0.00    +0.000 A 
ATOM      7  C   UNL     1       7.218   4.238  12.018  0.00  0.00    +0.000 A 
ATOM      8  C   UNL     1       5.996   3.503  12.300  0.00  0.00    +0.000 A 
ATOM      9  C   UNL     1       5.455   3.585  13.526  0.00  0.00    +0.000 A 
ATOM     10  N   UNL     1       6.077   4.372  14.497  0.00  0.00    +0.000 N 
ENDBRANCH   1   2
BRANCH   1  11
ATOM     11  C   UNL     1       4.752   4.164  18.347  0.00  0.00    +0.000 C 
BRANCH  11  19
ATOM     12  F   UNL     1       3.493   6.285  19.701  0.00  0.00    +0.000 F 
ATOM     13  C   UNL     1       2.938   5.072  19.837  0.00  0.00    +0.000 A 
ATOM     14  C   UNL     1       1.789   4.958  20.621  0.00  0.00    +0.000 A 
ATOM     15  C   UNL     1       1.180   3.718  20.778  0.00  0.00    +0.000 A 
ATOM     16  C   UNL     1       1.724   2.605  20.142  0.00  0.00    +0.000 A 
ATOM     17  C   UNL     1       2.878   2.727  19.353  0.00  0.00    +0.000 A 
ATOM     18 CL   UNL     1       3.466   1.294  18.586  0.00  0.00    +0.000 Cl
ATOM     19  C   UNL     1       3.516   3.968  19.195  0.00  0.00    +0.000 A 
ENDBRANCH  11  19
ENDBRANCH   1  11
TORSDOF 3
ENDMDL
MODEL 5
REMARK VINA RESULT:      -7.2      0.940      1.044
REMARK  Name = 
REMARK  3 active torsions:
REMARK  status: ('A' for Active; 'I' for Inactive)
REMARK    1  A    between atoms: C_8  and  C_9
REMARK    2  A    between atoms: C_9  and  S_10
REMARK    3  A    between atoms: S_10  and  C_11
REMARK                            x       y       z     vdW  Elec       q    Type
REMARK                         _______ _______ _______ _____ _____    ______ ____
ROOT
ATOM      1  S   UNL     1       4.121   3.019  17.077  0.00  0.00    +0.000 S 
ENDROOT
BRANCH   1   2
ATOM      2  C   UNL     1       5.167   4.296  16.554  0.00  0.00    +0.000 A 
ATOM      3  N   UNL     1       5.306   4.772  15.335  0.00  0.00    +0.000 NA
ATOM      4  N   UNL     1       6.248   5.784  15.381  0.00  0.00    +0.000 NA
ATOM      5  C   UNL     1       6.660   5.897  16.628  0.00  0.00    +0.000 A 
ATOM      6  C   UNL     1       7.607   6.750  17.265  0.00  0.00    +0.000 A 
ATOM      7  C   UNL     1       7.825   6.632  18.590  0.00  0.00    +0.000 A 
ATOM      8  C   UNL     1       7.111   5.651  19.393  0.00  0.00    +0.000 A 
ATOM      9  C   UNL     1       6.218   4.846  18.795  0.00  0.00    +0.000 A 
ATOM     10  N   UNL     1       5.997   4.969  17.422  0.00  0.00    +0.000 N 
ENDBRANCH   1   2
BRANCH   1  11
ATOM     11  C   UNL     1       2.486   3.814  17.073  0.00  0.00    +0.000 C 
BRANCH  11  19
ATOM     12  F   UNL     1       1.307   2.296  19.128  0.00  0.00    +0.000 F 
ATOM     13  C   UNL     1       1.584   3.577  19.410  0.00  0.00    +0.000 A 
ATOM     14  C   UNL     1       1.279   4.050  20.687  0.00  0.00    +0.000 A 
ATOM     15  C   UNL     1       1.560   5.370  21.021  0.00  0.00    +0.000 A 
ATOM     16  C   UNL     1       2.151   6.202  20.073  0.00  0.00    +0.000 A 
ATOM     17  C   UNL     1       2.457   5.719  18.792  0.00  0.00    +0.000 A 
ATOM     18 CL   UNL     1       3.208   6.821  17.691  0.00  0.00    +0.000 Cl
ATOM     19  C   UNL     1       2.166   4.394  18.432  0.00  0.00    +0.000 A 
ENDBRANCH  11  19
ENDBRANCH   1  11
TORSDOF 3
ENDMDL
MODEL 6
REMARK VINA RESULT:      -7.2      2.243      3.046
REMARK  Name = 
REMARK  3 active torsions:
REMARK  status: ('A' for Active; 'I' for Inactive)
REMARK    1  A    between atoms: C_8  and  C_9
REMARK    2  A    between atoms: C_9  and  S_10
REMARK    3  A    between atoms: S_10  and  C_11
REMARK                            x       y       z     vdW  Elec       q    Type
REMARK                         _______ _______ _______ _____ _____    ______ ____
ROOT
ATOM      1  S   UNL     1       2.942   6.640  18.276  0.00  0.00    +0.000 S 
ENDROOT
BRANCH   1   2
ATOM      2  C   UNL     1       4.507   5.920  18.452  0.00  0.00    +0.000 A 
ATOM      3  N   UNL     1       5.140   5.633  19.569  0.00  0.00    +0.000 NA
ATOM      4  N   UNL     1       6.358   5.071  19.234  0.00  0.00    +0.000 NA
ATOM      5  C   UNL     1       6.438   5.032  17.920  0.00  0.00    +0.000 A 
ATOM      6  C   UNL     1       7.443   4.572  17.019  0.00  0.00    +0.000 A 
ATOM      7  C   UNL     1       7.239   4.663  15.690  0.00  0.00    +0.000 A 
ATOM      8  C   UNL     1       6.011   5.219  15.145  0.00  0.00    +0.000 A 
ATOM      9  C   UNL     1       5.062   5.654  15.991  0.00  0.00    +0.000 A 
ATOM     10  N   UNL     1       5.277   5.561  17.367  0.00  0.00    +0.000 N 
ENDBRANCH   1   2
BRANCH   1  11
ATOM     11  C   UNL     1       1.847   5.193  18.166  0.00  0.00    +0.000 C 
BRANCH  11  19
ATOM     12  F   UNL     1       0.931   5.609  20.795  0.00  0.00    +0.000 F 
ATOM     13  C   UNL     1       1.634   4.488  20.572  0.00  0.00    +0.000 A 
ATOM     14  C   UNL     1       1.846   3.622  21.645  0.00  0.00    +0.000 A 
ATOM     15  C   UNL     1       2.562   2.446  21.453  0.00  0.00    +0.000 A 
ATOM     16  C   UNL     1       3.053   2.145  20.184  0.00  0.00    +0.000 A 
ATOM     17  C   UNL     1       2.833   3.020  19.109  0.00  0.00    +0.000 A 
ATOM     18 CL   UNL     1       3.462   2.552  17.569  0.00  0.00    +0.000 Cl
ATOM     19  C   UNL     1       2.126   4.220  19.288  0.00  0.00    +0.000 A 
ENDBRANCH  11  19
ENDBRANCH   1  11
TORSDOF 3
ENDMDL
MODEL 7
REMARK VINA RESULT:      -7.0      2.192      3.111
REMARK  Name = 
REMARK  3 active torsions:
REMARK  status: ('A' for Active; 'I' for Inactive)
REMARK    1  A    between atoms: C_8  and  C_9
REMARK    2  A    between atoms: C_9  and  S_10
REMARK    3  A    between atoms: S_10  and  C_11
REMARK                            x       y       z     vdW  Elec       q    Type
REMARK                         _______ _______ _______ _____ _____    ______ ____
ROOT
ATOM      1  S   UNL     1       3.516   2.496  17.943  0.00  0.00    +0.000 S 
ENDROOT
BRANCH   1   2
ATOM      2  C   UNL     1       4.796   3.551  18.442  0.00  0.00    +0.000 A 
ATOM      3  N   UNL     1       5.232   3.763  19.665  0.00  0.00    +0.000 NA
ATOM      4  N   UNL     1       6.265   4.680  19.593  0.00  0.00    +0.000 NA
ATOM      5  C   UNL     1       6.431   5.004  18.327  0.00  0.00    +0.000 A 
ATOM      6  C   UNL     1       7.327   5.889  17.659  0.00  0.00    +0.000 A 
ATOM      7  C   UNL     1       7.259   6.019  16.319  0.00  0.00    +0.000 A 
ATOM      8  C   UNL     1       6.292   5.272  15.530  0.00  0.00    +0.000 A 
ATOM      9  C   UNL     1       5.447   4.437  16.157  0.00  0.00    +0.000 A 
ATOM     10  N   UNL     1       5.517   4.307  17.545  0.00  0.00    +0.000 N 
ENDBRANCH   1   2
BRANCH   1  11
ATOM     11  C   UNL     1       2.159   3.652  17.590  0.00  0.00    +0.000 C 
BRANCH  11  19
ATOM     12  F   UNL     1       3.024   6.297  17.170  0.00  0.00    +0.000 F 
ATOM     13  C   UNL     1       2.512   6.016  18.377  0.00  0.00    +0.000 A 
ATOM     14  C   UNL     1       2.440   7.046  19.316  0.00  0.00    +0.000 A 
ATOM     15  C   UNL     1       1.908   6.796  20.576  0.00  0.00    +0.000 A 
ATOM     16  C   UNL     1       1.445   5.518  20.880  0.00  0.00    +0.000 A 
ATOM     17  C   UNL     1       1.517   4.488  19.930  0.00  0.00    +0.000 A 
ATOM     18 CL   UNL     1       0.899   2.942  20.392  0.00  0.00    +0.000 Cl
ATOM     19  C   UNL     1       2.067   4.718  18.658  0.00  0.00    +0.000 A 
ENDBRANCH  11  19
ENDBRANCH   1  11
TORSDOF 3
ENDMDL
MODEL 8
REMARK VINA RESULT:      -7.0      1.896      2.717
REMARK  Name = 
REMARK  3 active torsions:
REMARK  status: ('A' for Active; 'I' for Inactive)
REMARK    1  A    between atoms: C_8  and  C_9
REMARK    2  A    between atoms: C_9  and  S_10
REMARK    3  A    between atoms: S_10  and  C_11
REMARK                            x       y       z     vdW  Elec       q    Type
REMARK                         _______ _______ _______ _____ _____    ______ ____
ROOT
ATOM      1  S   UNL     1       3.163   6.806  18.309  0.00  0.00    +0.000 S 
ENDROOT
BRANCH   1   2
ATOM      2  C   UNL     1       4.616   5.864  18.339  0.00  0.00    +0.000 A 
ATOM      3  N   UNL     1       5.220   5.351  19.389  0.00  0.00    +0.000 NA
ATOM      4  N   UNL     1       6.343   4.678  18.945  0.00  0.00    +0.000 NA
ATOM      5  C   UNL     1       6.396   4.799  17.634  0.00  0.00    +0.000 A 
ATOM      6  C   UNL     1       7.312   4.327  16.649  0.00  0.00    +0.000 A 
ATOM      7  C   UNL     1       7.101   4.616  15.350  0.00  0.00    +0.000 A 
ATOM      8  C   UNL     1       5.954   5.400  14.921  0.00  0.00    +0.000 A 
ATOM      9  C   UNL     1       5.088   5.846  15.847  0.00  0.00    +0.000 A 
ATOM     10  N   UNL     1       5.311   5.547  17.192  0.00  0.00    +0.000 N 
ENDBRANCH   1   2
BRANCH   1  11
ATOM     11  C   UNL     1       1.898   5.577  17.865  0.00  0.00    +0.000 C 
BRANCH  11  19
ATOM     12  F   UNL     1       2.278   2.866  17.215  0.00  0.00    +0.000 F 
ATOM     13  C   UNL     1       2.037   3.147  18.504  0.00  0.00    +0.000 A 
ATOM     14  C   UNL     1       2.003   2.089  19.412  0.00  0.00    +0.000 A 
ATOM     15  C   UNL     1       1.764   2.341  20.759  0.00  0.00    +0.000 A 
ATOM     16  C   UNL     1       1.570   3.654  21.183  0.00  0.00    +0.000 A 
ATOM     17  C   UNL     1       1.609   4.713  20.264  0.00  0.00    +0.000 A 
ATOM     18 CL   UNL     1       1.378   6.309  20.889  0.00  0.00    +0.000 Cl
ATOM     19  C   UNL     1       1.832   4.476  18.899  0.00  0.00    +0.000 A 
ENDBRANCH  11  19
ENDBRANCH   1  11
TORSDOF 3
ENDMDL
MODEL 9
REMARK VINA RESULT:      -6.9      2.985      3.992
REMARK  Name = 
REMARK  3 active torsions:
REMARK  status: ('A' for Active; 'I' for Inactive)
REMARK    1  A    between atoms: C_8  and  C_9
REMARK    2  A    between atoms: C_9  and  S_10
REMARK    3  A    between atoms: S_10  and  C_11
REMARK                            x       y       z     vdW  Elec       q    Type
REMARK                         _______ _______ _______ _____ _____    ______ ____
ROOT
ATOM      1  S   UNL     1       4.517   3.845  16.735  0.00  0.00    +0.000 S 
ENDROOT
BRANCH   1   2
ATOM      2  C   UNL     1       5.838   4.566  15.880  0.00  0.00    +0.000 A 
ATOM      3  N   UNL     1       6.740   5.401  16.350  0.00  0.00    +0.000 NA
ATOM      4  N   UNL     1       7.604   5.717  15.316  0.00  0.00    +0.000 NA
ATOM      5  C   UNL     1       7.204   5.068  14.242  0.00  0.00    +0.000 A 
ATOM      6  C   UNL     1       7.693   5.007  12.904  0.00  0.00    +0.000 A 
ATOM      7  C   UNL     1       7.060   4.236  11.998  0.00  0.00    +0.000 A 
ATOM      8  C   UNL     1       5.885   3.455  12.352  0.00  0.00    +0.000 A 
ATOM      9  C   UNL     1       5.422   3.510  13.612  0.00  0.00    +0.000 A 
ATOM     10  N   UNL     1       6.078   4.312  14.547  0.00  0.00    +0.000 N 
ENDBRANCH   1   2
BRANCH   1  11
ATOM     11  C   UNL     1       4.964   4.126  18.474  0.00  0.00    +0.000 C 
BRANCH  11  19
ATOM     12  F   UNL     1       4.217   6.792  17.968  0.00  0.00    +0.000 F 
ATOM     13  C   UNL     1       3.517   6.139  18.907  0.00  0.00    +0.000 A 
ATOM     14  C   UNL     1       2.479   6.820  19.545  0.00  0.00    +0.000 A 
ATOM     15  C   UNL     1       1.724   6.174  20.518  0.00  0.00    +0.000 A 
ATOM     16  C   UNL     1       2.011   4.848  20.836  0.00  0.00    +0.000 A 
ATOM     17  C   UNL     1       3.054   4.169  20.188  0.00  0.00    +0.000 A 
ATOM     18 CL   UNL     1       3.321   2.521  20.636  0.00  0.00    +0.000 Cl
ATOM     19  C   UNL     1       3.838   4.810  19.215  0.00  0.00    +0.000 A 
ENDBRANCH  11  19
ENDBRANCH   1  11
TORSDOF 3
ENDMDL
