MODEL 1
REMARK VINA RESULT:      -7.5      0.000      0.000
REMARK  Name = 
REMARK  7 active torsions:
REMARK  status: ('A' for Active; 'I' for Inactive)
REMARK    1  A    between atoms: C_1  and  C_2
REMARK    2  A    between atoms: N_12  and  N_13
REMARK    3  A    between atoms: C_14  and  C_15
REMARK    4  A    between atoms: C_18  and  C_19
REMARK    5  A    between atoms: C_19  and  C_20
REMARK    6  A    between atoms: C_19  and  C_21
REMARK    7  A    between atoms: C_19  and  C_22
REMARK                            x       y       z     vdW  Elec       q    Type
REMARK                         _______ _______ _______ _____ _____    ______ ____
ROOT
ATOM      1  C   UNL     1       1.495   5.068  20.807  0.00  0.00    +0.000 C 
ATOM      2  C   UNL     1       2.382   5.500  19.664  0.00  0.00    +0.000 A 
ATOM      3  N   UNL     1       3.194   4.623  19.163  0.00  0.00    +0.000 NA
ATOM      4  C   UNL     1       4.069   5.028  18.151  0.00  0.00    +0.000 A 
ATOM      5  C   UNL     1       5.022   4.126  17.675  0.00  0.00    +0.000 A 
ATOM      6  C   UNL     1       5.956   4.519  16.710  0.00  0.00    +0.000 A 
ATOM      7  C   UNL     1       5.943   5.820  16.207  0.00  0.00    +0.000 A 
ATOM      8  C   UNL     1       4.977   6.719  16.653  0.00  0.00    +0.000 A 
ATOM      9  C   UNL     1       4.048   6.314  17.619  0.00  0.00    +0.000 A 
ATOM     10  C   UNL     1       3.017   7.240  18.107  0.00  0.00    +0.000 A 
ATOM     11  O   UNL     1       2.840   8.286  17.476  0.00  0.00    +0.000 OA
ATOM     12  N   UNL     1       2.307   6.821  19.243  0.00  0.00    +0.000 N 
ENDROOT
BRANCH  12  13
ATOM     13  N   UNL     1       1.323   7.642  19.805  0.00  0.00    +0.000 NA
ATOM     14  C   UNL     1       1.719   8.457  20.737  0.00  0.00    +0.000 C 
BRANCH  14  15
ATOM     15  C   UNL     1       0.872   9.524  21.302  0.00  0.00    +0.000 A 
ATOM     16  C   UNL     1       0.172   9.349  22.489  0.00  0.00    +0.000 A 
ATOM     17  C   UNL     1      -0.689  10.355  22.941  0.00  0.00    +0.000 A 
ATOM     18  C   UNL     1      -0.881  11.548  22.215  0.00  0.00    +0.000 A 
ATOM     19  C   UNL     1      -0.136  11.708  21.031  0.00  0.00    +0.000 A 
ATOM     20  C   UNL     1       0.727  10.708  20.574  0.00  0.00    +0.000 A 
BRANCH  18  21
ATOM     21  C   UNL     1      -1.884  12.631  22.655  0.00  0.00    +0.000 C 
ATOM     22  C   UNL     1      -2.619  13.297  21.472  0.00  0.00    +0.000 C 
ATOM     23  C   UNL     1      -2.954  12.018  23.583  0.00  0.00    +0.000 C 
ATOM     24  C   UNL     1      -1.147  13.755  23.418  0.00  0.00    +0.000 C 
ENDBRANCH  18  21
ENDBRANCH  14  15
ENDBRANCH  12  13
TORSDOF 3
ENDMDL
MODEL 2
REMARK VINA RESULT:      -7.4      0.727      1.490
REMARK  Name = 
REMARK  7 active torsions:
REMARK  status: ('A' for Active; 'I' for Inactive)
REMARK    1  A    between atoms: C_1  and  C_2
REMARK    2  A    between atoms: N_12  and  N_13
REMARK    3  A    between atoms: C_14  and  C_15
REMARK    4  A    between atoms: C_18  and  C_19
REMARK    5  A    between atoms: C_19  and  C_20
REMARK    6  A    between atoms: C_19  and  C_21
REMARK    7  A    between atoms: C_19  and  C_22
REMARK                            x       y       z     vdW  Elec       q    Type
REMARK                         _______ _______ _______ _____ _____    ______ ____
ROOT
ATOM      1  C   UNL     1       1.560   4.847  20.623  0.00  0.00    +0.000 C 
ATOM      2  C   UNL     1       2.397   5.308  19.454  0.00  0.00    +0.000 A 
ATOM      3  N   UNL     1       2.933   4.401  18.697  0.00  0.00    +0.000 NA
ATOM      4  C   UNL     1       3.767   4.813  17.654  0.00  0.00    +0.000 A 
ATOM      5  C   UNL     1       4.436   3.849  16.898  0.00  0.00    +0.000 A 
ATOM      6  C   UNL     1       5.328   4.228  15.889  0.00  0.00    +0.000 A 
ATOM      7  C   UNL     1       5.557   5.578  15.622  0.00  0.00    +0.000 A 
ATOM      8  C   UNL     1       4.871   6.548  16.350  0.00  0.00    +0.000 A 
ATOM      9  C   UNL     1       3.981   6.155  17.357  0.00  0.00    +0.000 A 
ATOM     10  C   UNL     1       3.242   7.156  18.140  0.00  0.00    +0.000 A 
ATOM     11  O   UNL     1       3.241   8.319  17.730  0.00  0.00    +0.000 OA
ATOM     12  N   UNL     1       2.579   6.672  19.279  0.00  0.00    +0.000 N 
ENDROOT
BRANCH  12  13
ATOM     13  N   UNL     1       1.870   7.548  20.109  0.00  0.00    +0.000 NA
ATOM     14  C   UNL     1       1.434   8.639  19.555  0.00  0.00    +0.000 C 
BRANCH  14  15
ATOM     15  C   UNL     1       0.509   9.578  20.216  0.00  0.00    +0.000 A 
ATOM     16  C   UNL     1      -0.173  10.555  19.503  0.00  0.00    +0.000 A 
ATOM     17  C   UNL     1      -0.971  11.481  20.184  0.00  0.00    +0.000 A 
ATOM     18  C   UNL     1      -1.095  11.462  21.588  0.00  0.00    +0.000 A 
ATOM     19  C   UNL     1      -0.415  10.442  22.280  0.00  0.00    +0.000 A 
ATOM     20  C   UNL     1       0.383   9.513  21.606  0.00  0.00    +0.000 A 
BRANCH  18  21
ATOM     21  C   UNL     1      -1.904  12.521  22.361  0.00  0.00    +0.000 C 
ATOM     22  C   UNL     1      -2.766  11.922  23.493  0.00  0.00    +0.000 C 
ATOM     23  C   UNL     1      -0.953  13.557  22.996  0.00  0.00    +0.000 C 
ATOM     24  C   UNL     1      -2.868  13.254  21.399  0.00  0.00    +0.000 C 
ENDBRANCH  18  21
ENDBRANCH  14  15
ENDBRANCH  12  13
TORSDOF 3
ENDMDL
MODEL 3
REMARK VINA RESULT:      -7.3      2.214      8.871
REMARK  Name = 
REMARK  7 active torsions:
REMARK  status: ('A' for Active; 'I' for Inactive)
REMARK    1  A    between atoms: C_1  and  C_2
REMARK    2  A    between atoms: N_12  and  N_13
REMARK    3  A    between atoms: C_14  and  C_15
REMARK    4  A    between atoms: C_18  and  C_19
REMARK    5  A    between atoms: C_19  and  C_20
REMARK    6  A    between atoms: C_19  and  C_21
REMARK    7  A    between atoms: C_19  and  C_22
REMARK                            x       y       z     vdW  Elec       q    Type
REMARK                         _______ _______ _______ _____ _____    ______ ____
ROOT
ATOM      1  C   UNL     1       0.128   9.427  23.154  0.00  0.00    +0.000 C 
ATOM      2  C   UNL     1      -0.508  10.626  22.490  0.00  0.00    +0.000 A 
ATOM      3  N   UNL     1      -0.850  11.625  23.243  0.00  0.00    +0.000 NA
ATOM      4  C   UNL     1      -1.502  12.710  22.653  0.00  0.00    +0.000 A 
ATOM      5  C   UNL     1      -1.972  13.744  23.464  0.00  0.00    +0.000 A 
ATOM      6  C   UNL     1      -2.686  14.814  22.913  0.00  0.00    +0.000 A 
ATOM      7  C   UNL     1      -2.934  14.862  21.542  0.00  0.00    +0.000 A 
ATOM      8  C   UNL     1      -2.443  13.851  20.718  0.00  0.00    +0.000 A 
ATOM      9  C   UNL     1      -1.730  12.786  21.282  0.00  0.00    +0.000 A 
ATOM     10  C   UNL     1      -1.200  11.706  20.438  0.00  0.00    +0.000 A 
ATOM     11  O   UNL     1      -1.186  11.885  19.218  0.00  0.00    +0.000 OA
ATOM     12  N   UNL     1      -0.728  10.573  21.121  0.00  0.00    +0.000 N 
ENDROOT
BRANCH  12  13
ATOM     13  N   UNL     1      -0.228   9.477  20.410  0.00  0.00    +0.000 NA
ATOM     14  C   UNL     1       0.998   9.575  19.989  0.00  0.00    +0.000 C 
BRANCH  14  15
ATOM     15  C   UNL     1       1.750   8.452  19.399  0.00  0.00    +0.000 A 
ATOM     16  C   UNL     1       1.977   7.276  20.102  0.00  0.00    +0.000 A 
ATOM     17  C   UNL     1       2.772   6.273  19.536  0.00  0.00    +0.000 A 
ATOM     18  C   UNL     1       3.366   6.425  18.267  0.00  0.00    +0.000 A 
ATOM     19  C   UNL     1       3.093   7.615  17.567  0.00  0.00    +0.000 A 
ATOM     20  C   UNL     1       2.299   8.622  18.125  0.00  0.00    +0.000 A 
BRANCH  18  21
ATOM     21  C   UNL     1       4.308   5.366  17.663  0.00  0.00    +0.000 C 
ATOM     22  C   UNL     1       3.589   4.049  17.298  0.00  0.00    +0.000 C 
ATOM     23  C   UNL     1       4.965   5.911  16.377  0.00  0.00    +0.000 C 
ATOM     24  C   UNL     1       5.419   5.008  18.677  0.00  0.00    +0.000 C 
ENDBRANCH  18  21
ENDBRANCH  14  15
ENDBRANCH  12  13
TORSDOF 3
ENDMDL
MODEL 4
REMARK VINA RESULT:      -7.3      2.158      8.878
REMARK  Name = 
REMARK  7 active torsions:
REMARK  status: ('A' for Active; 'I' for Inactive)
REMARK    1  A    between atoms: C_1  and  C_2
REMARK    2  A    between atoms: N_12  and  N_13
REMARK    3  A    between atoms: C_14  and  C_15
REMARK    4  A    between atoms: C_18  and  C_19
REMARK    5  A    between atoms: C_19  and  C_20
REMARK    6  A    between atoms: C_19  and  C_21
REMARK    7  A    between atoms: C_19  and  C_22
REMARK                            x       y       z     vdW  Elec       q    Type
REMARK                         _______ _______ _______ _____ _____    ______ ____
ROOT
ATOM      1  C   UNL     1       0.284   9.381  23.528  0.00  0.00    +0.000 C 
ATOM      2  C   UNL     1      -0.431  10.424  22.703  0.00  0.00    +0.000 A 
ATOM      3  N   UNL     1      -1.393  11.086  23.265  0.00  0.00    +0.000 NA
ATOM      4  C   UNL     1      -2.109  12.005  22.492  0.00  0.00    +0.000 A 
ATOM      5  C   UNL     1      -3.215  12.647  23.052  0.00  0.00    +0.000 A 
ATOM      6  C   UNL     1      -3.992  13.523  22.286  0.00  0.00    +0.000 A 
ATOM      7  C   UNL     1      -3.667  13.769  20.952  0.00  0.00    +0.000 A 
ATOM      8  C   UNL     1      -2.548  13.157  20.393  0.00  0.00    +0.000 A 
ATOM      9  C   UNL     1      -1.778  12.283  21.169  0.00  0.00    +0.000 A 
ATOM     10  C   UNL     1      -0.591  11.623  20.607  0.00  0.00    +0.000 A 
ATOM     11  O   UNL     1      -0.157  12.042  19.531  0.00  0.00    +0.000 OA
ATOM     12  N   UNL     1      -0.046  10.585  21.379  0.00  0.00    +0.000 N 
ENDROOT
BRANCH  12  13
ATOM     13  N   UNL     1       1.068   9.873  20.920  0.00  0.00    +0.000 NA
ATOM     14  C   UNL     1       0.820   8.797  20.235  0.00  0.00    +0.000 C 
BRANCH  14  15
ATOM     15  C   UNL     1       1.854   8.034  19.512  0.00  0.00    +0.000 A 
ATOM     16  C   UNL     1       2.343   8.453  18.281  0.00  0.00    +0.000 A 
ATOM     17  C   UNL     1       3.258   7.652  17.589  0.00  0.00    +0.000 A 
ATOM     18  C   UNL     1       3.694   6.412  18.100  0.00  0.00    +0.000 A 
ATOM     19  C   UNL     1       3.202   6.029  19.363  0.00  0.00    +0.000 A 
ATOM     20  C   UNL     1       2.289   6.825  20.061  0.00  0.00    +0.000 A 
BRANCH  18  21
ATOM     21  C   UNL     1       4.637   5.480  17.317  0.00  0.00    +0.000 C 
ATOM     22  C   UNL     1       5.122   6.088  15.982  0.00  0.00    +0.000 C 
ATOM     23  C   UNL     1       5.887   5.156  18.163  0.00  0.00    +0.000 C 
ATOM     24  C   UNL     1       3.910   4.160  16.975  0.00  0.00    +0.000 C 
ENDBRANCH  18  21
ENDBRANCH  14  15
ENDBRANCH  12  13
TORSDOF 3
ENDMDL
MODEL 5
REMARK VINA RESULT:      -7.2      2.252      8.864
REMARK  Name = 
REMARK  7 active torsions:
REMARK  status: ('A' for Active; 'I' for Inactive)
REMARK    1  A    between atoms: C_1  and  C_2
REMARK    2  A    between atoms: N_12  and  N_13
REMARK    3  A    between atoms: C_14  and  C_15
REMARK    4  A    between atoms: C_18  and  C_19
REMARK    5  A    between atoms: C_19  and  C_20
REMARK    6  A    between atoms: C_19  and  C_21
REMARK    7  A    between atoms: C_19  and  C_22
REMARK                            x       y       z     vdW  Elec       q    Type
REMARK                         _______ _______ _______ _____ _____    ______ ____
ROOT
ATOM      1  C   UNL     1      -0.129   9.443  23.239  0.00  0.00    +0.000 C 
ATOM      2  C   UNL     1      -0.559  10.708  22.535  0.00  0.00    +0.000 A 
ATOM      3  N   UNL     1      -0.856  11.737  23.266  0.00  0.00    +0.000 NA
ATOM      4  C   UNL     1      -1.322  12.891  22.631  0.00  0.00    +0.000 A 
ATOM      5  C   UNL     1      -1.747  13.970  23.409  0.00  0.00    +0.000 A 
ATOM      6  C   UNL     1      -2.281  15.115  22.807  0.00  0.00    +0.000 A 
ATOM      7  C   UNL     1      -2.390  15.195  21.419  0.00  0.00    +0.000 A 
ATOM      8  C   UNL     1      -1.940  14.137  20.632  0.00  0.00    +0.000 A 
ATOM      9  C   UNL     1      -1.408  12.997  21.246  0.00  0.00    +0.000 A 
ATOM     10  C   UNL     1      -0.925  11.866  20.441  0.00  0.00    +0.000 A 
ATOM     11  O   UNL     1      -0.775  12.045  19.230  0.00  0.00    +0.000 OA
ATOM     12  N   UNL     1      -0.652  10.685  21.150  0.00  0.00    +0.000 N 
ENDROOT
BRANCH  12  13
ATOM     13  N   UNL     1      -0.214   9.540  20.474  0.00  0.00    +0.000 NA
ATOM     14  C   UNL     1       1.054   9.488  20.194  0.00  0.00    +0.000 C 
BRANCH  14  15
ATOM     15  C   UNL     1       1.724   8.286  19.665  0.00  0.00    +0.000 A 
ATOM     16  C   UNL     1       2.235   8.244  18.374  0.00  0.00    +0.000 A 
ATOM     17  C   UNL     1       2.783   7.053  17.884  0.00  0.00    +0.000 A 
ATOM     18  C   UNL     1       2.822   5.879  18.662  0.00  0.00    +0.000 A 
ATOM     19  C   UNL     1       2.324   5.961  19.977  0.00  0.00    +0.000 A 
ATOM     20  C   UNL     1       1.776   7.148  20.474  0.00  0.00    +0.000 A 
BRANCH  18  21
ATOM     21  C   UNL     1       3.348   4.539  18.112  0.00  0.00    +0.000 C 
ATOM     22  C   UNL     1       4.346   4.710  16.947  0.00  0.00    +0.000 C 
ATOM     23  C   UNL     1       4.065   3.751  19.229  0.00  0.00    +0.000 C 
ATOM     24  C   UNL     1       2.172   3.690  17.579  0.00  0.00    +0.000 C 
ENDBRANCH  18  21
ENDBRANCH  14  15
ENDBRANCH  12  13
TORSDOF 3
ENDMDL
MODEL 6
REMARK VINA RESULT:      -7.2      2.635      8.907
REMARK  Name = 
REMARK  7 active torsions:
REMARK  status: ('A' for Active; 'I' for Inactive)
REMARK    1  A    between atoms: C_1  and  C_2
REMARK    2  A    between atoms: N_12  and  N_13
REMARK    3  A    between atoms: C_14  and  C_15
REMARK    4  A    between atoms: C_18  and  C_19
REMARK    5  A    between atoms: C_19  and  C_20
REMARK    6  A    between atoms: C_19  and  C_21
REMARK    7  A    between atoms: C_19  and  C_22
REMARK                            x       y       z     vdW  Elec       q    Type
REMARK                         _______ _______ _______ _____ _____    ______ ____
ROOT
ATOM      1  C   UNL     1       1.094  11.809  20.688  0.00  0.00    +0.000 C 
ATOM      2  C   UNL     1      -0.211  11.633  19.950  0.00  0.00    +0.000 A 
ATOM      3  N   UNL     1      -1.214  12.372  20.308  0.00  0.00    +0.000 NA
ATOM      4  C   UNL     1      -2.447  12.170  19.681  0.00  0.00    +0.000 A 
ATOM      5  C   UNL     1      -3.561  12.882  20.128  0.00  0.00    +0.000 A 
ATOM      6  C   UNL     1      -4.823  12.656  19.566  0.00  0.00    +0.000 A 
ATOM      7  C   UNL     1      -4.982  11.718  18.547  0.00  0.00    +0.000 A 
ATOM      8  C   UNL     1      -3.871  11.024  18.072  0.00  0.00    +0.000 A 
ATOM      9  C   UNL     1      -2.614  11.259  18.642  0.00  0.00    +0.000 A 
ATOM     10  C   UNL     1      -1.424  10.543  18.161  0.00  0.00    +0.000 A 
ATOM     11  O   UNL     1      -1.517   9.924  17.098  0.00  0.00    +0.000 OA
ATOM     12  N   UNL     1      -0.275  10.662  18.960  0.00  0.00    +0.000 N 
ENDROOT
BRANCH  12  13
ATOM     13  N   UNL     1       0.904   9.996  18.606  0.00  0.00    +0.000 NA
ATOM     14  C   UNL     1       1.119   8.857  19.194  0.00  0.00    +0.000 C 
BRANCH  14  15
ATOM     15  C   UNL     1       2.198   7.930  18.807  0.00  0.00    +0.000 A 
ATOM     16  C   UNL     1       2.964   8.137  17.667  0.00  0.00    +0.000 A 
ATOM     17  C   UNL     1       3.917   7.184  17.290  0.00  0.00    +0.000 A 
ATOM     18  C   UNL     1       4.118   6.002  18.032  0.00  0.00    +0.000 A 
ATOM     19  C   UNL     1       3.348   5.835  19.198  0.00  0.00    +0.000 A 
ATOM     20  C   UNL     1       2.394   6.784  19.581  0.00  0.00    +0.000 A 
BRANCH  18  21
ATOM     21  C   UNL     1       5.106   4.906  17.588  0.00  0.00    +0.000 C 
ATOM     22  C   UNL     1       6.439   4.937  18.366  0.00  0.00    +0.000 C 
ATOM     23  C   UNL     1       4.478   3.511  17.793  0.00  0.00    +0.000 C 
ATOM     24  C   UNL     1       5.452   5.082  16.092  0.00  0.00    +0.000 C 
ENDBRANCH  18  21
ENDBRANCH  14  15
ENDBRANCH  12  13
TORSDOF 3
ENDMDL
MODEL 7
REMARK VINA RESULT:      -7.2      2.236      8.917
REMARK  Name = 
REMARK  7 active torsions:
REMARK  status: ('A' for Active; 'I' for Inactive)
REMARK    1  A    between atoms: C_1  and  C_2
REMARK    2  A    between atoms: N_12  and  N_13
REMARK    3  A    between atoms: C_14  and  C_15
REMARK    4  A    between atoms: C_18  and  C_19
REMARK    5  A    between atoms: C_19  and  C_20
REMARK    6  A    between atoms: C_19  and  C_21
REMARK    7  A    between atoms: C_19  and  C_22
REMARK                            x       y       z     vdW  Elec       q    Type
REMARK                         _______ _______ _______ _____ _____    ______ ____
ROOT
ATOM      1  C   UNL     1      -1.168  10.375  17.676  0.00  0.00    +0.000 C 
ATOM      2  C   UNL     1      -1.137  10.976  19.061  0.00  0.00    +0.000 A 
ATOM      3  N   UNL     1      -2.201  11.585  19.482  0.00  0.00    +0.000 NA
ATOM      4  C   UNL     1      -2.162  12.205  20.733  0.00  0.00    +0.000 A 
ATOM      5  C   UNL     1      -3.262  12.955  21.155  0.00  0.00    +0.000 A 
ATOM      6  C   UNL     1      -3.231  13.643  22.373  0.00  0.00    +0.000 A 
ATOM      7  C   UNL     1      -2.098  13.584  23.185  0.00  0.00    +0.000 A 
ATOM      8  C   UNL     1      -1.007  12.814  22.789  0.00  0.00    +0.000 A 
ATOM      9  C   UNL     1      -1.051  12.130  21.568  0.00  0.00    +0.000 A 
ATOM     10  C   UNL     1       0.084  11.309  21.124  0.00  0.00    +0.000 A 
ATOM     11  O   UNL     1       0.960  11.045  21.952  0.00  0.00    +0.000 OA
ATOM     12  N   UNL     1       0.042  10.879  19.788  0.00  0.00    +0.000 N 
ENDROOT
BRANCH  12  13
ATOM     13  N   UNL     1       1.088  10.115  19.258  0.00  0.00    +0.000 NA
ATOM     14  C   UNL     1       1.172   8.888  19.675  0.00  0.00    +0.000 C 
BRANCH  14  15
ATOM     15  C   UNL     1       2.080   7.886  19.086  0.00  0.00    +0.000 A 
ATOM     16  C   UNL     1       2.357   6.685  19.728  0.00  0.00    +0.000 A 
ATOM     17  C   UNL     1       3.293   5.804  19.176  0.00  0.00    +0.000 A 
ATOM     18  C   UNL     1       3.983   6.105  17.984  0.00  0.00    +0.000 A 
ATOM     19  C   UNL     1       3.661   7.316  17.343  0.00  0.00    +0.000 A 
ATOM     20  C   UNL     1       2.725   8.201  17.887  0.00  0.00    +0.000 A 
BRANCH  18  21
ATOM     21  C   UNL     1       5.075   5.185  17.406  0.00  0.00    +0.000 C 
ATOM     22  C   UNL     1       4.533   3.817  16.940  0.00  0.00    +0.000 C 
ATOM     23  C   UNL     1       5.748   5.858  16.191  0.00  0.00    +0.000 C 
ATOM     24  C   UNL     1       6.151   4.904  18.480  0.00  0.00    +0.000 C 
ENDBRANCH  18  21
ENDBRANCH  14  15
ENDBRANCH  12  13
TORSDOF 3
ENDMDL
MODEL 8
REMARK VINA RESULT:      -7.1      2.571      9.181
REMARK  Name = 
REMARK  7 active torsions:
REMARK  status: ('A' for Active; 'I' for Inactive)
REMARK    1  A    between atoms: C_1  and  C_2
REMARK    2  A    between atoms: N_12  and  N_13
REMARK    3  A    between atoms: C_14  and  C_15
REMARK    4  A    between atoms: C_18  and  C_19
REMARK    5  A    between atoms: C_19  and  C_20
REMARK    6  A    between atoms: C_19  and  C_21
REMARK    7  A    between atoms: C_19  and  C_22
REMARK                            x       y       z     vdW  Elec       q    Type
REMARK                         _______ _______ _______ _____ _____    ______ ____
ROOT
ATOM      1  C   UNL     1      -1.051  11.571  18.273  0.00  0.00    +0.000 C 
ATOM      2  C   UNL     1      -1.458  11.800  19.709  0.00  0.00    +0.000 A 
ATOM      3  N   UNL     1      -2.593  12.387  19.932  0.00  0.00    +0.000 NA
ATOM      4  C   UNL     1      -2.949  12.668  21.254  0.00  0.00    +0.000 A 
ATOM      5  C   UNL     1      -4.115  13.394  21.503  0.00  0.00    +0.000 A 
ATOM      6  C   UNL     1      -4.467  13.748  22.811  0.00  0.00    +0.000 A 
ATOM      7  C   UNL     1      -3.657  13.375  23.883  0.00  0.00    +0.000 A 
ATOM      8  C   UNL     1      -2.507  12.624  23.648  0.00  0.00    +0.000 A 
ATOM      9  C   UNL     1      -2.166  12.276  22.335  0.00  0.00    +0.000 A 
ATOM     10  C   UNL     1      -0.960  11.484  22.056  0.00  0.00    +0.000 A 
ATOM     11  O   UNL     1      -0.401  10.935  23.009  0.00  0.00    +0.000 OA
ATOM     12  N   UNL     1      -0.577  11.408  20.707  0.00  0.00    +0.000 N 
ENDROOT
BRANCH  12  13
ATOM     13  N   UNL     1       0.573  10.701  20.338  0.00  0.00    +0.000 NA
ATOM     14  C   UNL     1       0.416   9.435  20.093  0.00  0.00    +0.000 C 
BRANCH  14  15
ATOM     15  C   UNL     1       1.465   8.580  19.507  0.00  0.00    +0.000 A 
ATOM     16  C   UNL     1       2.007   8.845  18.255  0.00  0.00    +0.000 A 
ATOM     17  C   UNL     1       2.935   7.957  17.700  0.00  0.00    +0.000 A 
ATOM     18  C   UNL     1       3.333   6.784  18.372  0.00  0.00    +0.000 A 
ATOM     19  C   UNL     1       2.789   6.559  19.651  0.00  0.00    +0.000 A 
ATOM     20  C   UNL     1       1.862   7.442  20.213  0.00  0.00    +0.000 A 
BRANCH  18  21
ATOM     21  C   UNL     1       4.292   5.755  17.743  0.00  0.00    +0.000 C 
ATOM     22  C   UNL     1       5.494   5.411  18.649  0.00  0.00    +0.000 C 
ATOM     23  C   UNL     1       3.541   4.441  17.446  0.00  0.00    +0.000 C 
ATOM     24  C   UNL     1       4.867   6.311  16.421  0.00  0.00    +0.000 C 
ENDBRANCH  18  21
ENDBRANCH  14  15
ENDBRANCH  12  13
TORSDOF 3
ENDMDL
MODEL 9
REMARK VINA RESULT:      -7.1      2.431      9.021
REMARK  Name = 
REMARK  7 active torsions:
REMARK  status: ('A' for Active; 'I' for Inactive)
REMARK    1  A    between atoms: C_1  and  C_2
REMARK    2  A    between atoms: N_12  and  N_13
REMARK    3  A    between atoms: C_14  and  C_15
REMARK    4  A    between atoms: C_18  and  C_19
REMARK    5  A    between atoms: C_19  and  C_20
REMARK    6  A    between atoms: C_19  and  C_21
REMARK    7  A    between atoms: C_19  and  C_22
REMARK                            x       y       z     vdW  Elec       q    Type
REMARK                         _______ _______ _______ _____ _____    ______ ____
ROOT
ATOM      1  C   UNL     1      -1.422  10.517  17.689  0.00  0.00    +0.000 C 
ATOM      2  C   UNL     1      -1.402  11.218  19.026  0.00  0.00    +0.000 A 
ATOM      3  N   UNL     1      -2.489  11.807  19.417  0.00  0.00    +0.000 NA
ATOM      4  C   UNL     1      -2.464  12.518  20.620  0.00  0.00    +0.000 A 
ATOM      5  C   UNL     1      -3.593  13.246  21.002  0.00  0.00    +0.000 A 
ATOM      6  C   UNL     1      -3.579  14.022  22.167  0.00  0.00    +0.000 A 
ATOM      7  C   UNL     1      -2.436  14.074  22.964  0.00  0.00    +0.000 A 
ATOM      8  C   UNL     1      -1.315  13.327  22.608  0.00  0.00    +0.000 A 
ATOM      9  C   UNL     1      -1.341  12.555  21.441  0.00  0.00    +0.000 A 
ATOM     10  C   UNL     1      -0.174  11.757  21.040  0.00  0.00    +0.000 A 
ATOM     11  O   UNL     1       0.722  11.593  21.872  0.00  0.00    +0.000 OA
ATOM     12  N   UNL     1      -0.212  11.228  19.740  0.00  0.00    +0.000 N 
ENDROOT
BRANCH  12  13
ATOM     13  N   UNL     1       0.862  10.477  19.251  0.00  0.00    +0.000 NA
ATOM     14  C   UNL     1       0.986   9.274  19.726  0.00  0.00    +0.000 C 
BRANCH  14  15
ATOM     15  C   UNL     1       1.931   8.277  19.190  0.00  0.00    +0.000 A 
ATOM     16  C   UNL     1       2.538   8.440  17.951  0.00  0.00    +0.000 A 
ATOM     17  C   UNL     1       3.358   7.427  17.442  0.00  0.00    +0.000 A 
ATOM     18  C   UNL     1       3.581   6.228  18.149  0.00  0.00    +0.000 A 
ATOM     19  C   UNL     1       2.976   6.105  19.414  0.00  0.00    +0.000 A 
ATOM     20  C   UNL     1       2.156   7.114  19.930  0.00  0.00    +0.000 A 
BRANCH  18  21
ATOM     21  C   UNL     1       4.416   5.070  17.570  0.00  0.00    +0.000 C 
ATOM     22  C   UNL     1       3.568   3.831  17.207  0.00  0.00    +0.000 C 
ATOM     23  C   UNL     1       5.143   5.528  16.289  0.00  0.00    +0.000 C 
ATOM     24  C   UNL     1       5.468   4.610  18.604  0.00  0.00    +0.000 C 
ENDBRANCH  18  21
ENDBRANCH  14  15
ENDBRANCH  12  13
TORSDOF 3
ENDMDL
