MODEL 1
REMARK VINA RESULT:      -7.3      0.000      0.000
REMARK  Name = 
REMARK  4 active torsions:
REMARK  status: ('A' for Active; 'I' for Inactive)
REMARK    1  A    between atoms: C_1  and  C_2
REMARK    2  A    between atoms: C_2  and  O_3
REMARK    3  A    between atoms: O_3  and  C_4
REMARK    4  A    between atoms: C_4  and  C_6
REMARK                            x       y       z     vdW  Elec       q    Type
REMARK                         _______ _______ _______ _____ _____    ______ ____
ROOT
ATOM      1  C   UNL     1      -3.861  13.441  22.416  0.00  0.00    +0.000 C 
ATOM      2  O   UNL     1      -3.504  14.599  22.650  0.00  0.00    +0.000 OA
ATOM      3  N   UNL     1      -3.768  12.733  21.106  0.00  0.00    +0.000 N 
ATOM      4  C   UNL     1      -3.871  13.884  20.348  0.00  0.00    +0.000 C 
ATOM      5  C   UNL     1      -1.985  14.032  20.669  0.00  0.00    +0.000 C 
ATOM      6  C   UNL     1      -1.105  12.563  20.888  0.00  0.00    +0.000 A 
ATOM      7  C   UNL     1      -0.013  12.190  21.675  0.00  0.00    +0.000 A 
ATOM      8  C   UNL     1       0.469  10.862  21.470  0.00  0.00    +0.000 A 
ATOM      9  C   UNL     1      -0.040   9.996  20.518  0.00  0.00    +0.000 A 
ATOM     10  C   UNL     1      -1.139  10.337  19.797  0.00  0.00    +0.000 A 
ATOM     11  C   UNL     1      -1.681  11.543  20.127  0.00  0.00    +0.000 A 
ATOM     12  C   UNL     1      -2.959  12.019  19.736  0.00  0.00    +0.000 C 
ATOM     13  C   UNL     1      -3.657  11.787  18.362  0.00  0.00    +0.000 C 
ATOM     14  C   UNL     1      -5.081  12.025  18.682  0.00  0.00    +0.000 A 
ATOM     15  C   UNL     1      -5.925  10.915  18.406  0.00  0.00    +0.000 A 
ATOM     16  C   UNL     1      -6.754  10.527  19.418  0.00  0.00    +0.000 A 
ATOM     17  C   UNL     1      -6.891  11.312  20.525  0.00  0.00    +0.000 A 
ATOM     18  C   UNL     1      -6.295  12.585  20.621  0.00  0.00    +0.000 A 
ATOM     19  C   UNL     1      -5.266  13.003  19.702  0.00  0.00    +0.000 A 
ATOM     20  O   UNL     1      -7.501  10.630  21.544  0.00  0.00    +0.000 OA
ATOM     21  C   UNL     1      -7.835   9.380  20.891  0.00  0.00    +0.000 C 
ATOM     22  O   UNL     1      -7.337   9.306  19.540  0.00  0.00    +0.000 OA
ATOM     23  O   UNL     1       0.594   8.799  20.420  0.00  0.00    +0.000 OA
ATOM     24  C   UNL     1       1.425   8.886  21.583  0.00  0.00    +0.000 C 
ATOM     25  O   UNL     1       1.465  10.210  22.185  0.00  0.00    +0.000 OA
ENDROOT
BRANCH   1  26
ATOM     26  C   UNL     1      -4.799  13.006  23.483  0.00  0.00    +0.000 C 
ATOM     27  O   UNL     1      -4.673  11.934  24.056  0.00  0.00    +0.000 OA
BRANCH  26  28
ATOM     28  O   UNL     1      -5.664  14.002  23.858  0.00  0.00    +0.000 OA
BRANCH  28  30
ATOM     29  C   UNL     1      -7.915  14.847  23.305  0.00  0.00    +0.000 C 
ATOM     30  C   UNL     1      -7.088  13.710  23.881  0.00  0.00    +0.000 C 
ENDBRANCH  28  30
ENDBRANCH  26  28
ENDBRANCH   1  26
TORSDOF 3
ENDMDL
MODEL 2
REMARK VINA RESULT:      -6.5      7.530     10.665
REMARK  Name = 
REMARK  4 active torsions:
REMARK  status: ('A' for Active; 'I' for Inactive)
REMARK    1  A    between atoms: C_1  and  C_2
REMARK    2  A    between atoms: C_2  and  O_3
REMARK    3  A    between atoms: O_3  and  C_4
REMARK    4  A    between atoms: C_4  and  C_6
REMARK                            x       y       z     vdW  Elec       q    Type
REMARK                         _______ _______ _______ _____ _____    ______ ____
ROOT
ATOM      1  C   UNL     1       6.314  14.963  22.624  0.00  0.00    +0.000 C 
ATOM      2  O   UNL     1       6.789  15.839  23.351  0.00  0.00    +0.000 OA
ATOM      3  N   UNL     1       6.237  14.992  21.134  0.00  0.00    +0.000 N 
ATOM      4  C   UNL     1       6.173  16.370  21.053  0.00  0.00    +0.000 C 
ATOM      5  C   UNL     1       8.084  16.274  21.187  0.00  0.00    +0.000 C 
ATOM      6  C   UNL     1       8.848  14.859  20.558  0.00  0.00    +0.000 A 
ATOM      7  C   UNL     1       9.965  14.108  20.932  0.00  0.00    +0.000 A 
ATOM      8  C   UNL     1      10.311  13.039  20.052  0.00  0.00    +0.000 A 
ATOM      9  C   UNL     1       9.652  12.775  18.864  0.00  0.00    +0.000 A 
ATOM     10  C   UNL     1       8.531  13.466  18.531  0.00  0.00    +0.000 A 
ATOM     11  C   UNL     1       8.125  14.369  19.468  0.00  0.00    +0.000 A 
ATOM     12  C   UNL     1       6.866  15.021  19.508  0.00  0.00    +0.000 C 
ATOM     13  C   UNL     1       6.039  15.523  18.286  0.00  0.00    +0.000 C 
ATOM     14  C   UNL     1       4.672  15.621  18.842  0.00  0.00    +0.000 A 
ATOM     15  C   UNL     1       3.715  14.823  18.158  0.00  0.00    +0.000 A 
ATOM     16  C   UNL     1       2.942  14.015  18.940  0.00  0.00    +0.000 A 
ATOM     17  C   UNL     1       2.966  14.154  20.296  0.00  0.00    +0.000 A 
ATOM     18  C   UNL     1       3.675  15.191  20.932  0.00  0.00    +0.000 A 
ATOM     19  C   UNL     1       4.658  15.973  20.223  0.00  0.00    +0.000 A 
ATOM     20  O   UNL     1       2.384  13.079  20.914  0.00  0.00    +0.000 OA
ATOM     21  C   UNL     1       1.891  12.328  19.778  0.00  0.00    +0.000 C 
ATOM     22  O   UNL     1       2.267  12.914  18.516  0.00  0.00    +0.000 OA
ATOM     23  O   UNL     1      10.169  11.763  18.122  0.00  0.00    +0.000 OA
ATOM     24  C   UNL     1      11.098  11.233  19.075  0.00  0.00    +0.000 C 
ATOM     25  O   UNL     1      11.302  12.084  20.237  0.00  0.00    +0.000 OA
ENDROOT
BRANCH   1  26
ATOM     26  C   UNL     1       5.433  14.090  23.443  0.00  0.00    +0.000 C 
ATOM     27  O   UNL     1       4.630  14.550  24.242  0.00  0.00    +0.000 OA
BRANCH  26  28
ATOM     28  O   UNL     1       5.496  12.775  23.060  0.00  0.00    +0.000 OA
BRANCH  28  30
ATOM     29  C   UNL     1       7.766  11.812  22.962  0.00  0.00    +0.000 C 
ATOM     30  C   UNL     1       6.454  11.906  23.724  0.00  0.00    +0.000 C 
ENDBRANCH  28  30
ENDBRANCH  26  28
ENDBRANCH   1  26
TORSDOF 3
ENDMDL
MODEL 3
REMARK VINA RESULT:      -6.3      7.104      9.991
REMARK  Name = 
REMARK  4 active torsions:
REMARK  status: ('A' for Active; 'I' for Inactive)
REMARK    1  A    between atoms: C_1  and  C_2
REMARK    2  A    between atoms: C_2  and  O_3
REMARK    3  A    between atoms: O_3  and  C_4
REMARK    4  A    between atoms: C_4  and  C_6
REMARK                            x       y       z     vdW  Elec       q    Type
REMARK                         _______ _______ _______ _____ _____    ______ ____
ROOT
ATOM      1  C   UNL     1       5.691  15.321  22.111  0.00  0.00    +0.000 C 
ATOM      2  O   UNL     1       6.098  16.335  22.682  0.00  0.00    +0.000 OA
ATOM      3  N   UNL     1       5.415  15.174  20.652  0.00  0.00    +0.000 N 
ATOM      4  C   UNL     1       5.104  16.508  20.463  0.00  0.00    +0.000 C 
ATOM      5  C   UNL     1       7.004  16.731  20.322  0.00  0.00    +0.000 C 
ATOM      6  C   UNL     1       7.912  15.396  19.712  0.00  0.00    +0.000 A 
ATOM      7  C   UNL     1       9.181  14.876  19.980  0.00  0.00    +0.000 A 
ATOM      8  C   UNL     1       9.589  13.787  19.153  0.00  0.00    +0.000 A 
ATOM      9  C   UNL     1       8.835  13.294  18.102  0.00  0.00    +0.000 A 
ATOM     10  C   UNL     1       7.578  13.758  17.880  0.00  0.00    +0.000 A 
ATOM     11  C   UNL     1       7.148  14.681  18.786  0.00  0.00    +0.000 A 
ATOM     12  C   UNL     1       5.812  15.125  18.954  0.00  0.00    +0.000 C 
ATOM     13  C   UNL     1       4.758  15.354  17.828  0.00  0.00    +0.000 C 
ATOM     14  C   UNL     1       3.479  15.294  18.569  0.00  0.00    +0.000 A 
ATOM     15  C   UNL     1       2.593  14.284  18.104  0.00  0.00    +0.000 A 
ATOM     16  C   UNL     1       2.080  13.454  19.057  0.00  0.00    +0.000 A 
ATOM     17  C   UNL     1       2.256  13.742  20.379  0.00  0.00    +0.000 A 
ATOM     18  C   UNL     1       2.854  14.942  20.812  0.00  0.00    +0.000 A 
ATOM     19  C   UNL     1       3.585  15.788  19.902  0.00  0.00    +0.000 A 
ATOM     20  O   UNL     1       1.955  12.662  21.166  0.00  0.00    +0.000 OA
ATOM     21  C   UNL     1       1.454  11.724  20.183  0.00  0.00    +0.000 C 
ATOM     22  O   UNL     1       1.555  12.220  18.833  0.00  0.00    +0.000 OA
ATOM     23  O   UNL     1       9.417  12.301  17.381  0.00  0.00    +0.000 OA
ATOM     24  C   UNL     1      10.540  12.033  18.230  0.00  0.00    +0.000 C 
ATOM     25  O   UNL     1      10.744  13.027  19.272  0.00  0.00    +0.000 OA
ENDROOT
BRANCH   1  26
ATOM     26  C   UNL     1       5.088  14.414  23.122  0.00  0.00    +0.000 C 
ATOM     27  O   UNL     1       4.392  14.835  24.035  0.00  0.00    +0.000 OA
BRANCH  26  28
ATOM     28  O   UNL     1       5.243  13.090  22.799  0.00  0.00    +0.000 OA
BRANCH  28  30
ATOM     29  C   UNL     1       6.219  11.569  24.478  0.00  0.00    +0.000 C 
ATOM     30  C   UNL     1       6.451  12.409  23.234  0.00  0.00    +0.000 C 
ENDBRANCH  28  30
ENDBRANCH  26  28
ENDBRANCH   1  26
TORSDOF 3
ENDMDL
MODEL 4
REMARK VINA RESULT:      -6.2      2.655      6.936
REMARK  Name = 
REMARK  4 active torsions:
REMARK  status: ('A' for Active; 'I' for Inactive)
REMARK    1  A    between atoms: C_1  and  C_2
REMARK    2  A    between atoms: C_2  and  O_3
REMARK    3  A    between atoms: O_3  and  C_4
REMARK    4  A    between atoms: C_4  and  C_6
REMARK                            x       y       z     vdW  Elec       q    Type
REMARK                         _______ _______ _______ _____ _____    ______ ____
ROOT
ATOM      1  C   UNL     1      -1.203  15.067  20.190  0.00  0.00    +0.000 C 
ATOM      2  O   UNL     1      -1.088  16.267  20.454  0.00  0.00    +0.000 OA
ATOM      3  N   UNL     1      -1.804  14.020  21.067  0.00  0.00    +0.000 N 
ATOM      4  C   UNL     1      -1.477  14.662  22.247  0.00  0.00    +0.000 C 
ATOM      5  C   UNL     1      -3.088  15.654  21.928  0.00  0.00    +0.000 C 
ATOM      6  C   UNL     1      -4.349  14.853  21.062  0.00  0.00    +0.000 A 
ATOM      7  C   UNL     1      -5.312  15.268  20.139  0.00  0.00    +0.000 A 
ATOM      8  C   UNL     1      -6.248  14.269  19.735  0.00  0.00    +0.000 A 
ATOM      9  C   UNL     1      -6.275  12.985  20.251  0.00  0.00    +0.000 A 
ATOM     10  C   UNL     1      -5.304  12.565  21.102  0.00  0.00    +0.000 A 
ATOM     11  C   UNL     1      -4.327  13.485  21.343  0.00  0.00    +0.000 A 
ATOM     12  C   UNL     1      -3.076  13.231  21.962  0.00  0.00    +0.000 C 
ATOM     13  C   UNL     1      -2.803  12.246  23.139  0.00  0.00    +0.000 C 
ATOM     14  C   UNL     1      -1.350  12.001  23.020  0.00  0.00    +0.000 A 
ATOM     15  C   UNL     1      -1.011  10.632  22.838  0.00  0.00    +0.000 A 
ATOM     16  C   UNL     1      -0.171  10.356  21.799  0.00  0.00    +0.000 A 
ATOM     17  C   UNL     1       0.453  11.374  21.140  0.00  0.00    +0.000 A 
ATOM     18  C   UNL     1       0.361  12.714  21.566  0.00  0.00    +0.000 A 
ATOM     19  C   UNL     1      -0.634  13.129  22.524  0.00  0.00    +0.000 A 
ATOM     20  O   UNL     1       0.995  10.940  19.958  0.00  0.00    +0.000 OA
ATOM     21  C   UNL     1       0.739   9.517  20.033  0.00  0.00    +0.000 C 
ATOM     22  O   UNL     1      -0.026   9.146  21.197  0.00  0.00    +0.000 OA
ATOM     23  O   UNL     1      -7.284  12.196  19.800  0.00  0.00    +0.000 OA
ATOM     24  C   UNL     1      -7.773  13.033  18.745  0.00  0.00    +0.000 C 
ATOM     25  O   UNL     1      -7.233  14.383  18.763  0.00  0.00    +0.000 OA
ENDROOT
BRANCH   1  26
ATOM     26  C   UNL     1      -0.267  14.729  19.087  0.00  0.00    +0.000 C 
ATOM     27  O   UNL     1      -0.483  13.805  18.317  0.00  0.00    +0.000 OA
BRANCH  26  28
ATOM     28  O   UNL     1       0.721  15.667  18.932  0.00  0.00    +0.000 OA
BRANCH  28  30
ATOM     29  C   UNL     1       2.892  14.833  18.107  0.00  0.00    +0.000 C 
ATOM     30  C   UNL     1       2.080  15.308  19.300  0.00  0.00    +0.000 C 
ENDBRANCH  28  30
ENDBRANCH  26  28
ENDBRANCH   1  26
TORSDOF 3
ENDMDL
MODEL 5
REMARK VINA RESULT:      -6.2      8.551     13.093
REMARK  Name = 
REMARK  4 active torsions:
REMARK  status: ('A' for Active; 'I' for Inactive)
REMARK    1  A    between atoms: C_1  and  C_2
REMARK    2  A    between atoms: C_2  and  O_3
REMARK    3  A    between atoms: O_3  and  C_4
REMARK    4  A    between atoms: C_4  and  C_6
REMARK                            x       y       z     vdW  Elec       q    Type
REMARK                         _______ _______ _______ _____ _____    ______ ____
ROOT
ATOM      1  C   UNL     1       8.812  16.179  19.718  0.00  0.00    +0.000 C 
ATOM      2  O   UNL     1       9.290  17.279  20.007  0.00  0.00    +0.000 OA
ATOM      3  N   UNL     1       8.506  15.068  20.666  0.00  0.00    +0.000 N 
ATOM      4  C   UNL     1       9.490  15.421  21.571  0.00  0.00    +0.000 C 
ATOM      5  C   UNL     1       8.175  16.656  22.224  0.00  0.00    +0.000 C 
ATOM      6  C   UNL     1       6.517  16.209  22.047  0.00  0.00    +0.000 A 
ATOM      7  C   UNL     1       5.339  16.916  21.794  0.00  0.00    +0.000 A 
ATOM      8  C   UNL     1       4.138  16.145  21.827  0.00  0.00    +0.000 A 
ATOM      9  C   UNL     1       4.095  14.800  22.149  0.00  0.00    +0.000 A 
ATOM     10  C   UNL     1       5.244  14.100  22.335  0.00  0.00    +0.000 A 
ATOM     11  C   UNL     1       6.384  14.821  22.136  0.00  0.00    +0.000 A 
ATOM     12  C   UNL     1       7.692  14.292  21.999  0.00  0.00    +0.000 C 
ATOM     13  C   UNL     1       8.287  13.070  22.762  0.00  0.00    +0.000 C 
ATOM     14  C   UNL     1       9.413  12.666  21.893  0.00  0.00    +0.000 A 
ATOM     15  C   UNL     1       9.325  11.326  21.424  0.00  0.00    +0.000 A 
ATOM     16  C   UNL     1       9.478  11.152  20.080  0.00  0.00    +0.000 A 
ATOM     17  C   UNL     1       9.904  12.189  19.302  0.00  0.00    +0.000 A 
ATOM     18  C   UNL     1      10.312  13.420  19.851  0.00  0.00    +0.000 A 
ATOM     19  C   UNL     1      10.018  13.766  21.219  0.00  0.00    +0.000 A 
ATOM     20  O   UNL     1       9.701  11.926  17.973  0.00  0.00    +0.000 OA
ATOM     21  C   UNL     1       9.220  10.561  18.021  0.00  0.00    +0.000 C 
ATOM     22  O   UNL     1       9.056  10.074  19.368  0.00  0.00    +0.000 OA
ATOM     23  O   UNL     1       2.854  14.251  22.199  0.00  0.00    +0.000 OA
ATOM     24  C   UNL     1       2.104  15.333  21.635  0.00  0.00    +0.000 C 
ATOM     25  O   UNL     1       2.856  16.573  21.512  0.00  0.00    +0.000 OA
ENDROOT
BRANCH   1  26
ATOM     26  C   UNL     1       9.003  15.944  18.263  0.00  0.00    +0.000 C 
ATOM     27  O   UNL     1      10.109  15.752  17.779  0.00  0.00    +0.000 OA
BRANCH  26  28
ATOM     28  O   UNL     1       7.815  15.781  17.598  0.00  0.00    +0.000 OA
BRANCH  28  30
ATOM     29  C   UNL     1       5.678  14.707  18.205  0.00  0.00    +0.000 C 
ATOM     30  C   UNL     1       7.111  14.517  17.737  0.00  0.00    +0.000 C 
ENDBRANCH  28  30
ENDBRANCH  26  28
ENDBRANCH   1  26
TORSDOF 3
ENDMDL
MODEL 6
REMARK VINA RESULT:      -6.2      4.050      7.438
REMARK  Name = 
REMARK  4 active torsions:
REMARK  status: ('A' for Active; 'I' for Inactive)
REMARK    1  A    between atoms: C_1  and  C_2
REMARK    2  A    between atoms: C_2  and  O_3
REMARK    3  A    between atoms: O_3  and  C_4
REMARK    4  A    between atoms: C_4  and  C_6
REMARK                            x       y       z     vdW  Elec       q    Type
REMARK                         _______ _______ _______ _____ _____    ______ ____
ROOT
ATOM      1  C   UNL     1      -1.295  15.454  20.810  0.00  0.00    +0.000 C 
ATOM      2  O   UNL     1      -1.810  15.407  21.931  0.00  0.00    +0.000 OA
ATOM      3  N   UNL     1      -0.403  14.425  20.200  0.00  0.00    +0.000 N 
ATOM      4  C   UNL     1       0.095  13.978  21.409  0.00  0.00    +0.000 C 
ATOM      5  C   UNL     1      -1.499  12.912  21.453  0.00  0.00    +0.000 C 
ATOM      6  C   UNL     1      -2.164  12.425  19.936  0.00  0.00    +0.000 A 
ATOM      7  C   UNL     1      -3.462  12.230  19.458  0.00  0.00    +0.000 A 
ATOM      8  C   UNL     1      -3.559  11.714  18.131  0.00  0.00    +0.000 A 
ATOM      9  C   UNL     1      -2.466  11.356  17.362  0.00  0.00    +0.000 A 
ATOM     10  C   UNL     1      -1.205  11.601  17.802  0.00  0.00    +0.000 A 
ATOM     11  C   UNL     1      -1.140  12.246  19.002  0.00  0.00    +0.000 A 
ATOM     12  C   UNL     1       0.011  12.857  19.559  0.00  0.00    +0.000 C 
ATOM     13  C   UNL     1       1.479  12.340  19.462  0.00  0.00    +0.000 C 
ATOM     14  C   UNL     1       2.268  13.560  19.735  0.00  0.00    +0.000 A 
ATOM     15  C   UNL     1       3.159  13.915  18.685  0.00  0.00    +0.000 A 
ATOM     16  C   UNL     1       3.095  15.209  18.258  0.00  0.00    +0.000 A 
ATOM     17  C   UNL     1       2.368  16.124  18.961  0.00  0.00    +0.000 A 
ATOM     18  C   UNL     1       1.766  15.815  20.197  0.00  0.00    +0.000 A 
ATOM     19  C   UNL     1       1.619  14.451  20.640  0.00  0.00    +0.000 A 
ATOM     20  O   UNL     1       2.166  17.264  18.229  0.00  0.00    +0.000 OA
ATOM     21  C   UNL     1       2.959  16.990  17.048  0.00  0.00    +0.000 C 
ATOM     22  O   UNL     1       3.534  15.668  17.056  0.00  0.00    +0.000 OA
ATOM     23  O   UNL     1      -2.756  10.815  16.150  0.00  0.00    +0.000 OA
ATOM     24  C   UNL     1      -4.163  11.084  16.113  0.00  0.00    +0.000 C 
ATOM     25  O   UNL     1      -4.715  11.527  17.384  0.00  0.00    +0.000 OA
ENDROOT
BRANCH   1  26
ATOM     26  C   UNL     1      -1.314  16.862  20.335  0.00  0.00    +0.000 C 
ATOM     27  O   UNL     1      -1.189  17.805  21.104  0.00  0.00    +0.000 OA
BRANCH  26  28
ATOM     28  O   UNL     1      -1.293  16.955  18.968  0.00  0.00    +0.000 OA
BRANCH  28  30
ATOM     29  C   UNL     1      -0.774  18.523  17.135  0.00  0.00    +0.000 C 
ATOM     30  C   UNL     1      -1.630  18.229  18.355  0.00  0.00    +0.000 C 
ENDBRANCH  28  30
ENDBRANCH  26  28
ENDBRANCH   1  26
TORSDOF 3
ENDMDL
MODEL 7
REMARK VINA RESULT:      -6.1      3.623      5.679
REMARK  Name = 
REMARK  4 active torsions:
REMARK  status: ('A' for Active; 'I' for Inactive)
REMARK    1  A    between atoms: C_1  and  C_2
REMARK    2  A    between atoms: C_2  and  O_3
REMARK    3  A    between atoms: O_3  and  C_4
REMARK    4  A    between atoms: C_4  and  C_6
REMARK                            x       y       z     vdW  Elec       q    Type
REMARK                         _______ _______ _______ _____ _____    ______ ____
ROOT
ATOM      1  C   UNL     1      -1.010  14.894  21.411  0.00  0.00    +0.000 C 
ATOM      2  O   UNL     1      -1.773  15.761  20.977  0.00  0.00    +0.000 OA
ATOM      3  N   UNL     1      -0.211  13.929  20.601  0.00  0.00    +0.000 N 
ATOM      4  C   UNL     1      -1.103  13.905  19.546  0.00  0.00    +0.000 C 
ATOM      5  C   UNL     1      -0.186  15.494  18.987  0.00  0.00    +0.000 C 
ATOM      6  C   UNL     1       1.478  15.639  19.423  0.00  0.00    +0.000 A 
ATOM      7  C   UNL     1       2.302  16.709  19.781  0.00  0.00    +0.000 A 
ATOM      8  C   UNL     1       3.680  16.389  19.972  0.00  0.00    +0.000 A 
ATOM      9  C   UNL     1       4.214  15.129  19.762  0.00  0.00    +0.000 A 
ATOM     10  C   UNL     1       3.404  14.078  19.474  0.00  0.00    +0.000 A 
ATOM     11  C   UNL     1       2.074  14.376  19.459  0.00  0.00    +0.000 A 
ATOM     12  C   UNL     1       1.009  13.439  19.456  0.00  0.00    +0.000 C 
ATOM     13  C   UNL     1       0.978  12.069  18.713  0.00  0.00    +0.000 C 
ATOM     14  C   UNL     1      -0.072  11.331  19.448  0.00  0.00    +0.000 A 
ATOM     15  C   UNL     1       0.380  10.112  20.025  0.00  0.00    +0.000 A 
ATOM     16  C   UNL     1       0.087   9.931  21.345  0.00  0.00    +0.000 A 
ATOM     17  C   UNL     1      -0.772  10.782  21.976  0.00  0.00    +0.000 A 
ATOM     18  C   UNL     1      -1.474  11.789  21.284  0.00  0.00    +0.000 A 
ATOM     19  C   UNL     1      -1.103  12.179  19.947  0.00  0.00    +0.000 A 
ATOM     20  O   UNL     1      -0.702  10.638  23.336  0.00  0.00    +0.000 OA
ATOM     21  C   UNL     1       0.204   9.514  23.458  0.00  0.00    +0.000 C 
ATOM     22  O   UNL     1       0.726   9.077  22.188  0.00  0.00    +0.000 OA
ATOM     23  O   UNL     1       5.559  15.031  19.925  0.00  0.00    +0.000 OA
ATOM     24  C   UNL     1       5.812  16.317  20.502  0.00  0.00    +0.000 C 
ATOM     25  O   UNL     1       4.684  17.233  20.426  0.00  0.00    +0.000 OA
ENDROOT
BRANCH   1  26
ATOM     26  C   UNL     1      -1.334  14.646  22.840  0.00  0.00    +0.000 C 
ATOM     27  O   UNL     1      -0.489  14.732  23.719  0.00  0.00    +0.000 OA
BRANCH  26  28
ATOM     28  O   UNL     1      -2.682  14.509  23.056  0.00  0.00    +0.000 OA
BRANCH  28  30
ATOM     29  C   UNL     1      -3.851  12.602  24.097  0.00  0.00    +0.000 C 
ATOM     30  C   UNL     1      -3.126  13.920  24.308  0.00  0.00    +0.000 C 
ENDBRANCH  28  30
ENDBRANCH  26  28
ENDBRANCH   1  26
TORSDOF 3
ENDMDL
MODEL 8
REMARK VINA RESULT:      -6.0      8.806     13.394
REMARK  Name = 
REMARK  4 active torsions:
REMARK  status: ('A' for Active; 'I' for Inactive)
REMARK    1  A    between atoms: C_1  and  C_2
REMARK    2  A    between atoms: C_2  and  O_3
REMARK    3  A    between atoms: O_3  and  C_4
REMARK    4  A    between atoms: C_4  and  C_6
REMARK                            x       y       z     vdW  Elec       q    Type
REMARK                         _______ _______ _______ _____ _____    ______ ____
ROOT
ATOM      1  C   UNL     1       8.523  16.374  19.859  0.00  0.00    +0.000 C 
ATOM      2  O   UNL     1       8.908  17.498  20.194  0.00  0.00    +0.000 OA
ATOM      3  N   UNL     1       8.208  15.236  20.770  0.00  0.00    +0.000 N 
ATOM      4  C   UNL     1       9.089  15.636  21.757  0.00  0.00    +0.000 C 
ATOM      5  C   UNL     1       7.653  16.782  22.307  0.00  0.00    +0.000 C 
ATOM      6  C   UNL     1       6.045  16.239  21.989  0.00  0.00    +0.000 A 
ATOM      7  C   UNL     1       4.852  16.877  21.643  0.00  0.00    +0.000 A 
ATOM      8  C   UNL     1       3.701  16.035  21.570  0.00  0.00    +0.000 A 
ATOM      9  C   UNL     1       3.713  14.686  21.878  0.00  0.00    +0.000 A 
ATOM     10  C   UNL     1       4.883  14.054  22.154  0.00  0.00    +0.000 A 
ATOM     11  C   UNL     1       5.990  14.844  22.056  0.00  0.00    +0.000 A 
ATOM     12  C   UNL     1       7.335  14.396  22.025  0.00  0.00    +0.000 C 
ATOM     13  C   UNL     1       7.937  13.203  22.827  0.00  0.00    +0.000 C 
ATOM     14  C   UNL     1       9.154  12.877  22.052  0.00  0.00    +0.000 A 
ATOM     15  C   UNL     1       9.186  11.541  21.568  0.00  0.00    +0.000 A 
ATOM     16  C   UNL     1       9.461  11.392  20.240  0.00  0.00    +0.000 A 
ATOM     17  C   UNL     1       9.885  12.462  19.508  0.00  0.00    +0.000 A 
ATOM     18  C   UNL     1      10.172  13.709  20.097  0.00  0.00    +0.000 A 
ATOM     19  C   UNL     1       9.745  14.020  21.439  0.00  0.00    +0.000 A 
ATOM     20  O   UNL     1       9.810  12.204  18.165  0.00  0.00    +0.000 OA
ATOM     21  C   UNL     1       9.411  10.812  18.163  0.00  0.00    +0.000 C 
ATOM     22  O   UNL     1       9.165  10.299  19.488  0.00  0.00    +0.000 OA
ATOM     23  O   UNL     1       2.508  14.063  21.820  0.00  0.00    +0.000 OA
ATOM     24  C   UNL     1       1.743  15.105  21.203  0.00  0.00    +0.000 C 
ATOM     25  O   UNL     1       2.426  16.389  21.152  0.00  0.00    +0.000 OA
ENDROOT
BRANCH   1  26
ATOM     26  C   UNL     1       8.848  16.168  18.423  0.00  0.00    +0.000 C 
ATOM     27  O   UNL     1       8.044  15.680  17.643  0.00  0.00    +0.000 OA
BRANCH  26  28
ATOM     28  O   UNL     1      10.036  16.751  18.065  0.00  0.00    +0.000 OA
BRANCH  28  30
ATOM     29  C   UNL     1      11.654  15.174  17.075  0.00  0.00    +0.000 C 
ATOM     30  C   UNL     1      10.679  16.314  16.837  0.00  0.00    +0.000 C 
ENDBRANCH  28  30
ENDBRANCH  26  28
ENDBRANCH   1  26
TORSDOF 3
ENDMDL
MODEL 9
REMARK VINA RESULT:      -6.0      2.461      6.633
REMARK  Name = 
REMARK  4 active torsions:
REMARK  status: ('A' for Active; 'I' for Inactive)
REMARK    1  A    between atoms: C_1  and  C_2
REMARK    2  A    between atoms: C_2  and  O_3
REMARK    3  A    between atoms: O_3  and  C_4
REMARK    4  A    between atoms: C_4  and  C_6
REMARK                            x       y       z     vdW  Elec       q    Type
REMARK                         _______ _______ _______ _____ _____    ______ ____
ROOT
ATOM      1  C   UNL     1      -1.225  15.011  20.370  0.00  0.00    +0.000 C 
ATOM      2  O   UNL     1      -1.118  16.212  20.633  0.00  0.00    +0.000 OA
ATOM      3  N   UNL     1      -1.879  13.972  21.218  0.00  0.00    +0.000 N 
ATOM      4  C   UNL     1      -1.616  14.620  22.411  0.00  0.00    +0.000 C 
ATOM      5  C   UNL     1      -3.201  15.617  21.996  0.00  0.00    +0.000 C 
ATOM      6  C   UNL     1      -4.415  14.818  21.065  0.00  0.00    +0.000 A 
ATOM      7  C   UNL     1      -5.322  15.232  20.087  0.00  0.00    +0.000 A 
ATOM      8  C   UNL     1      -6.240  14.235  19.637  0.00  0.00    +0.000 A 
ATOM      9  C   UNL     1      -6.303  12.954  20.158  0.00  0.00    +0.000 A 
ATOM     10  C   UNL     1      -5.383  12.534  21.064  0.00  0.00    +0.000 A 
ATOM     11  C   UNL     1      -4.416  13.451  21.355  0.00  0.00    +0.000 A 
ATOM     12  C   UNL     1      -3.204  13.195  22.044  0.00  0.00    +0.000 C 
ATOM     13  C   UNL     1      -3.002  12.215  23.240  0.00  0.00    +0.000 C 
ATOM     14  C   UNL     1      -1.546  11.962  23.205  0.00  0.00    +0.000 A 
ATOM     15  C   UNL     1      -1.205  10.591  23.049  0.00  0.00    +0.000 A 
ATOM     16  C   UNL     1      -0.309  10.305  22.061  0.00  0.00    +0.000 A 
ATOM     17  C   UNL     1       0.357  11.316  21.432  0.00  0.00    +0.000 A 
ATOM     18  C   UNL     1       0.247  12.658  21.845  0.00  0.00    +0.000 A 
ATOM     19  C   UNL     1      -0.797  13.084  22.743  0.00  0.00    +0.000 A 
ATOM     20  O   UNL     1       0.961  10.872  20.286  0.00  0.00    +0.000 OA
ATOM     21  C   UNL     1       0.694   9.450  20.354  0.00  0.00    +0.000 C 
ATOM     22  O   UNL     1      -0.137   9.091  21.475  0.00  0.00    +0.000 OA
ATOM     23  O   UNL     1      -7.289  12.167  19.655  0.00  0.00    +0.000 OA
ATOM     24  C   UNL     1      -7.714  13.000  18.570  0.00  0.00    +0.000 C 
ATOM     25  O   UNL     1      -7.168  14.348  18.610  0.00  0.00    +0.000 OA
ENDROOT
BRANCH   1  26
ATOM     26  C   UNL     1      -0.230  14.662  19.323  0.00  0.00    +0.000 C 
ATOM     27  O   UNL     1       0.972  14.785  19.507  0.00  0.00    +0.000 OA
BRANCH  26  28
ATOM     28  O   UNL     1      -0.800  14.029  18.248  0.00  0.00    +0.000 OA
BRANCH  28  30
ATOM     29  C   UNL     1      -2.001  11.888  18.492  0.00  0.00    +0.000 C 
ATOM     30  C   UNL     1      -0.691  12.583  18.159  0.00  0.00    +0.000 C 
ENDBRANCH  28  30
ENDBRANCH  26  28
ENDBRANCH   1  26
TORSDOF 3
ENDMDL
