MODEL 1
REMARK VINA RESULT:      -8.7      0.000      0.000
REMARK  Name = 
REMARK  4 active torsions:
REMARK  status: ('A' for Active; 'I' for Inactive)
REMARK    1  A    between atoms: C_1  and  C_2
REMARK    2  A    between atoms: C_4  and  C_5
REMARK    3  A    between atoms: C_11  and  O_12
REMARK    4  A    between atoms: C_11  and  C_13
REMARK                            x       y       z     vdW  Elec       q    Type
REMARK                         _______ _______ _______ _____ _____    ______ ____
ROOT
ATOM      1  C   UNL     1       1.463   8.720  19.856  0.00  0.00    +0.000 A 
ATOM      2  C   UNL     1       2.020   9.326  18.701  0.00  0.00    +0.000 A 
ATOM      3  C   UNL     1       2.859   8.630  17.822  0.00  0.00    +0.000 A 
ATOM      4  C   UNL     1       3.131   7.302  18.080  0.00  0.00    +0.000 A 
ATOM      5  C   UNL     1       2.599   6.679  19.225  0.00  0.00    +0.000 A 
ATOM      6  C   UNL     1       1.795   7.379  20.118  0.00  0.00    +0.000 A 
ATOM      7  C   UNL     1       3.027   5.211  19.277  0.00  0.00    +0.000 C 
ATOM      8  C   UNL     1       3.853   5.091  17.997  0.00  0.00    +0.000 A 
ATOM      9  C   UNL     1       4.510   3.980  17.486  0.00  0.00    +0.000 A 
ATOM     10  C   UNL     1       5.218   4.120  16.292  0.00  0.00    +0.000 A 
ATOM     11  C   UNL     1       5.276   5.360  15.633  0.00  0.00    +0.000 A 
ATOM     12  C   UNL     1       4.619   6.478  16.154  0.00  0.00    +0.000 A 
ATOM     13  C   UNL     1       3.905   6.337  17.332  0.00  0.00    +0.000 A 
ENDROOT
BRANCH   1  17
ATOM     14  C   UNL     1      -1.917  12.375  20.621  0.00  0.00    +0.000 C 
ATOM     15  C   UNL     1      -1.078  11.239  21.126  0.00  0.00    +0.000 A 
ATOM     16  C   UNL     1      -0.216  10.554  20.272  0.00  0.00    +0.000 A 
ATOM     17  C   UNL     1       0.542   9.469  20.748  0.00  0.00    +0.000 A 
ATOM     18  C   UNL     1       0.389   9.144  22.101  0.00  0.00    +0.000 A 
ATOM     19  C   UNL     1      -0.474   9.889  22.890  0.00  0.00    +0.000 A 
ATOM     20  N   UNL     1      -1.211  10.920  22.431  0.00  0.00    +0.000 NA
ENDBRANCH   1  17
BRANCH   7  21
ATOM     21  C   UNL     1       1.830   4.210  19.369  0.00  0.00    +0.000 C 
ATOM     22  F   UNL     1       2.216   2.924  19.551  0.00  0.00    +0.000 F 
ATOM     23  F   UNL     1       0.941   4.500  20.344  0.00  0.00    +0.000 F 
ATOM     24  F   UNL     1       1.138   4.230  18.192  0.00  0.00    +0.000 F 
ENDBRANCH   7  21
BRANCH   7  25
ATOM     25  O   UNL     1       3.951   5.096  20.380  0.00  0.00    +0.000 OA
ATOM     26  H   UNL     1       4.199   4.157  20.445  0.00  0.00    +0.000 HD
ENDBRANCH   7  25
TORSDOF 3
ENDMDL
MODEL 2
REMARK VINA RESULT:      -8.7      4.077      7.866
REMARK  Name = 
REMARK  4 active torsions:
REMARK  status: ('A' for Active; 'I' for Inactive)
REMARK    1  A    between atoms: C_1  and  C_2
REMARK    2  A    between atoms: C_4  and  C_5
REMARK    3  A    between atoms: C_11  and  O_12
REMARK    4  A    between atoms: C_11  and  C_13
REMARK                            x       y       z     vdW  Elec       q    Type
REMARK                         _______ _______ _______ _____ _____    ______ ____
ROOT
ATOM      1  C   UNL     1       5.127   5.115  15.363  0.00  0.00    +0.000 A 
ATOM      2  C   UNL     1       5.100   6.468  15.785  0.00  0.00    +0.000 A 
ATOM      3  C   UNL     1       4.363   6.891  16.898  0.00  0.00    +0.000 A 
ATOM      4  C   UNL     1       3.659   5.950  17.621  0.00  0.00    +0.000 A 
ATOM      5  C   UNL     1       3.660   4.600  17.218  0.00  0.00    +0.000 A 
ATOM      6  C   UNL     1       4.362   4.185  16.091  0.00  0.00    +0.000 A 
ATOM      7  C   UNL     1       2.827   3.757  18.185  0.00  0.00    +0.000 C 
ATOM      8  C   UNL     1       2.377   4.812  19.195  0.00  0.00    +0.000 A 
ATOM      9  C   UNL     1       1.588   4.652  20.326  0.00  0.00    +0.000 A 
ATOM     10  C   UNL     1       1.298   5.781  21.096  0.00  0.00    +0.000 A 
ATOM     11  C   UNL     1       1.782   7.046  20.724  0.00  0.00    +0.000 A 
ATOM     12  C   UNL     1       2.570   7.204  19.581  0.00  0.00    +0.000 A 
ATOM     13  C   UNL     1       2.869   6.084  18.824  0.00  0.00    +0.000 A 
ENDROOT
BRANCH   1  17
ATOM     14  C   UNL     1       5.920   2.116  11.395  0.00  0.00    +0.000 C 
ATOM     15  C   UNL     1       6.346   3.235  12.297  0.00  0.00    +0.000 A 
ATOM     16  C   UNL     1       5.559   3.615  13.383  0.00  0.00    +0.000 A 
ATOM     17  C   UNL     1       5.951   4.688  14.204  0.00  0.00    +0.000 A 
ATOM     18  C   UNL     1       7.157   5.320  13.876  0.00  0.00    +0.000 A 
ATOM     19  C   UNL     1       7.892   4.868  12.790  0.00  0.00    +0.000 A 
ATOM     20  N   UNL     1       7.510   3.848  11.996  0.00  0.00    +0.000 NA
ENDBRANCH   1  17
BRANCH   7  21
ATOM     21  C   UNL     1       3.612   2.559  18.810  0.00  0.00    +0.000 C 
ATOM     22  F   UNL     1       3.030   2.058  19.926  0.00  0.00    +0.000 F 
ATOM     23  F   UNL     1       3.806   1.523  17.964  0.00  0.00    +0.000 F 
ATOM     24  F   UNL     1       4.850   2.986  19.193  0.00  0.00    +0.000 F 
ENDBRANCH   7  21
BRANCH   7  25
ATOM     25  O   UNL     1       1.650   3.349  17.457  0.00  0.00    +0.000 OA
ATOM     26  H   UNL     1       1.165   4.161  17.226  0.00  0.00    +0.000 HD
ENDBRANCH   7  25
TORSDOF 3
ENDMDL
MODEL 3
REMARK VINA RESULT:      -8.6      0.772      1.123
REMARK  Name = 
REMARK  4 active torsions:
REMARK  status: ('A' for Active; 'I' for Inactive)
REMARK    1  A    between atoms: C_1  and  C_2
REMARK    2  A    between atoms: C_4  and  C_5
REMARK    3  A    between atoms: C_11  and  O_12
REMARK    4  A    between atoms: C_11  and  C_13
REMARK                            x       y       z     vdW  Elec       q    Type
REMARK                         _______ _______ _______ _____ _____    ______ ____
ROOT
ATOM      1  C   UNL     1       1.888   8.302  19.435  0.00  0.00    +0.000 A 
ATOM      2  C   UNL     1       2.500   8.964  18.340  0.00  0.00    +0.000 A 
ATOM      3  C   UNL     1       3.348   8.302  17.443  0.00  0.00    +0.000 A 
ATOM      4  C   UNL     1       3.574   6.952  17.623  0.00  0.00    +0.000 A 
ATOM      5  C   UNL     1       2.988   6.273  18.708  0.00  0.00    +0.000 A 
ATOM      6  C   UNL     1       2.174   6.938  19.620  0.00  0.00    +0.000 A 
ATOM      7  C   UNL     1       3.372   4.793  18.678  0.00  0.00    +0.000 C 
ATOM      8  C   UNL     1       4.237   4.730  17.419  0.00  0.00    +0.000 A 
ATOM      9  C   UNL     1       4.879   3.635  16.857  0.00  0.00    +0.000 A 
ATOM     10  C   UNL     1       5.630   3.831  15.697  0.00  0.00    +0.000 A 
ATOM     11  C   UNL     1       5.743   5.108  15.123  0.00  0.00    +0.000 A 
ATOM     12  C   UNL     1       5.101   6.210  15.694  0.00  0.00    +0.000 A 
ATOM     13  C   UNL     1       4.345   6.014  16.838  0.00  0.00    +0.000 A 
ENDROOT
BRANCH   1  17
ATOM     14  C   UNL     1      -1.525  11.906  20.290  0.00  0.00    +0.000 C 
ATOM     15  C   UNL     1      -0.677  10.765  20.766  0.00  0.00    +0.000 A 
ATOM     16  C   UNL     1       0.193  10.111  19.896  0.00  0.00    +0.000 A 
ATOM     17  C   UNL     1       0.960   9.020  20.344  0.00  0.00    +0.000 A 
ATOM     18  C   UNL     1       0.808   8.659  21.689  0.00  0.00    +0.000 A 
ATOM     19  C   UNL     1      -0.063   9.375  22.496  0.00  0.00    +0.000 A 
ATOM     20  N   UNL     1      -0.808  10.412  22.062  0.00  0.00    +0.000 NA
ENDBRANCH   1  17
BRANCH   7  21
ATOM     21  C   UNL     1       2.146   3.824  18.667  0.00  0.00    +0.000 C 
ATOM     22  F   UNL     1       1.179   4.191  17.792  0.00  0.00    +0.000 F 
ATOM     23  F   UNL     1       2.459   2.538  18.397  0.00  0.00    +0.000 F 
ATOM     24  F   UNL     1       1.558   3.832  19.899  0.00  0.00    +0.000 F 
ENDBRANCH   7  21
BRANCH   7  25
ATOM     25  O   UNL     1       4.256   4.580  19.799  0.00  0.00    +0.000 OA
ATOM     26  H   UNL     1       4.398   3.619  19.870  0.00  0.00    +0.000 HD
ENDBRANCH   7  25
TORSDOF 3
ENDMDL
MODEL 4
REMARK VINA RESULT:      -8.6      0.898      1.528
REMARK  Name = 
REMARK  4 active torsions:
REMARK  status: ('A' for Active; 'I' for Inactive)
REMARK    1  A    between atoms: C_1  and  C_2
REMARK    2  A    between atoms: C_4  and  C_5
REMARK    3  A    between atoms: C_11  and  O_12
REMARK    4  A    between atoms: C_11  and  C_13
REMARK                            x       y       z     vdW  Elec       q    Type
REMARK                         _______ _______ _______ _____ _____    ______ ____
ROOT
ATOM      1  C   UNL     1       1.844   8.530  19.103  0.00  0.00    +0.000 A 
ATOM      2  C   UNL     1       2.619   9.111  18.067  0.00  0.00    +0.000 A 
ATOM      3  C   UNL     1       3.502   8.359  17.282  0.00  0.00    +0.000 A 
ATOM      4  C   UNL     1       3.601   7.002  17.513  0.00  0.00    +0.000 A 
ATOM      5  C   UNL     1       2.850   6.402  18.543  0.00  0.00    +0.000 A 
ATOM      6  C   UNL     1       2.000   7.153  19.347  0.00  0.00    +0.000 A 
ATOM      7  C   UNL     1       3.117   4.896  18.586  0.00  0.00    +0.000 C 
ATOM      8  C   UNL     1       4.103   4.731  17.429  0.00  0.00    +0.000 A 
ATOM      9  C   UNL     1       4.712   3.574  16.963  0.00  0.00    +0.000 A 
ATOM     10  C   UNL     1       5.596   3.677  15.887  0.00  0.00    +0.000 A 
ATOM     11  C   UNL     1       5.870   4.925  15.302  0.00  0.00    +0.000 A 
ATOM     12  C   UNL     1       5.261   6.089  15.777  0.00  0.00    +0.000 A 
ATOM     13  C   UNL     1       4.374   5.985  16.836  0.00  0.00    +0.000 A 
ENDROOT
BRANCH   1  17
ATOM     14  C   UNL     1      -0.397   9.693  23.461  0.00  0.00    +0.000 C 
ATOM     15  C   UNL     1      -0.211   9.899  21.988  0.00  0.00    +0.000 A 
ATOM     16  C   UNL     1       0.691   9.119  21.267  0.00  0.00    +0.000 A 
ATOM     17  C   UNL     1       0.883   9.343  19.892  0.00  0.00    +0.000 A 
ATOM     18  C   UNL     1       0.117  10.361  19.310  0.00  0.00    +0.000 A 
ATOM     19  C   UNL     1      -0.775  11.077  20.093  0.00  0.00    +0.000 A 
ATOM     20  N   UNL     1      -0.949  10.872  21.414  0.00  0.00    +0.000 NA
ENDBRANCH   1  17
BRANCH   7  21
ATOM     21  C   UNL     1       1.826   4.025  18.462  0.00  0.00    +0.000 C 
ATOM     22  F   UNL     1       2.082   2.712  18.242  0.00  0.00    +0.000 F 
ATOM     23  F   UNL     1       1.007   4.095  19.534  0.00  0.00    +0.000 F 
ATOM     24  F   UNL     1       1.100   4.449  17.387  0.00  0.00    +0.000 F 
ENDBRANCH   7  21
BRANCH   7  25
ATOM     25  O   UNL     1       3.857   4.650  19.800  0.00  0.00    +0.000 OA
ATOM     26  H   UNL     1       3.382   5.104  20.518  0.00  0.00    +0.000 HD
ENDBRANCH   7  25
TORSDOF 3
ENDMDL
MODEL 5
REMARK VINA RESULT:      -8.5      3.639      7.697
REMARK  Name = 
REMARK  4 active torsions:
REMARK  status: ('A' for Active; 'I' for Inactive)
REMARK    1  A    between atoms: C_1  and  C_2
REMARK    2  A    between atoms: C_4  and  C_5
REMARK    3  A    between atoms: C_11  and  O_12
REMARK    4  A    between atoms: C_11  and  C_13
REMARK                            x       y       z     vdW  Elec       q    Type
REMARK                         _______ _______ _______ _____ _____    ______ ____
ROOT
ATOM      1  C   UNL     1       2.040   7.758  19.150  0.00  0.00    +0.000 A 
ATOM      2  C   UNL     1       1.965   7.633  20.561  0.00  0.00    +0.000 A 
ATOM      3  C   UNL     1       1.210   8.509  21.351  0.00  0.00    +0.000 A 
ATOM      4  C   UNL     1       0.498   9.514  20.728  0.00  0.00    +0.000 A 
ATOM      5  C   UNL     1       0.564   9.667  19.329  0.00  0.00    +0.000 A 
ATOM      6  C   UNL     1       1.341   8.820  18.548  0.00  0.00    +0.000 A 
ATOM      7  C   UNL     1      -0.322  10.831  18.881  0.00  0.00    +0.000 C 
ATOM      8  C   UNL     1      -0.908  11.296  20.214  0.00  0.00    +0.000 A 
ATOM      9  C   UNL     1      -1.801  12.331  20.459  0.00  0.00    +0.000 A 
ATOM     10  C   UNL     1      -2.185  12.575  21.778  0.00  0.00    +0.000 A 
ATOM     11  C   UNL     1      -1.670  11.801  22.831  0.00  0.00    +0.000 A 
ATOM     12  C   UNL     1      -0.766  10.765  22.582  0.00  0.00    +0.000 A 
ATOM     13  C   UNL     1      -0.394  10.513  21.273  0.00  0.00    +0.000 A 
ENDROOT
BRANCH   1  17
ATOM     14  C   UNL     1       2.819   3.090  17.427  0.00  0.00    +0.000 C 
ATOM     15  C   UNL     1       3.202   4.537  17.510  0.00  0.00    +0.000 A 
ATOM     16  C   UNL     1       2.465   5.427  18.288  0.00  0.00    +0.000 A 
ATOM     17  C   UNL     1       2.814   6.789  18.333  0.00  0.00    +0.000 A 
ATOM     18  C   UNL     1       3.929   7.175  17.579  0.00  0.00    +0.000 A 
ATOM     19  C   UNL     1       4.622   6.224  16.848  0.00  0.00    +0.000 A 
ATOM     20  N   UNL     1       4.280   4.921  16.793  0.00  0.00    +0.000 NA
ENDBRANCH   1  17
BRANCH   7  21
ATOM     21  C   UNL     1      -1.389  10.434  17.811  0.00  0.00    +0.000 C 
ATOM     22  F   UNL     1      -1.897  11.494  17.138  0.00  0.00    +0.000 F 
ATOM     23  F   UNL     1      -0.945   9.553  16.888  0.00  0.00    +0.000 F 
ATOM     24  F   UNL     1      -2.450   9.843  18.434  0.00  0.00    +0.000 F 
ENDBRANCH   7  21
BRANCH   7  25
ATOM     25  O   UNL     1       0.572  11.873  18.435  0.00  0.00    +0.000 OA
ATOM     26  H   UNL     1       1.405  11.440  18.178  0.00  0.00    +0.000 HD
ENDBRANCH   7  25
TORSDOF 3
ENDMDL
MODEL 6
REMARK VINA RESULT:      -8.5      0.690      1.556
REMARK  Name = 
REMARK  4 active torsions:
REMARK  status: ('A' for Active; 'I' for Inactive)
REMARK    1  A    between atoms: C_1  and  C_2
REMARK    2  A    between atoms: C_4  and  C_5
REMARK    3  A    between atoms: C_11  and  O_12
REMARK    4  A    between atoms: C_11  and  C_13
REMARK                            x       y       z     vdW  Elec       q    Type
REMARK                         _______ _______ _______ _____ _____    ______ ____
ROOT
ATOM      1  C   UNL     1       1.587   8.915  19.120  0.00  0.00    +0.000 A 
ATOM      2  C   UNL     1       2.269   9.367  17.962  0.00  0.00    +0.000 A 
ATOM      3  C   UNL     1       3.166   8.554  17.257  0.00  0.00    +0.000 A 
ATOM      4  C   UNL     1       3.373   7.262  17.696  0.00  0.00    +0.000 A 
ATOM      5  C   UNL     1       2.716   6.792  18.850  0.00  0.00    +0.000 A 
ATOM      6  C   UNL     1       1.853   7.610  19.571  0.00  0.00    +0.000 A 
ATOM      7  C   UNL     1       3.093   5.334  19.117  0.00  0.00    +0.000 C 
ATOM      8  C   UNL     1       4.032   5.045  17.947  0.00  0.00    +0.000 A 
ATOM      9  C   UNL     1       4.701   3.868  17.637  0.00  0.00    +0.000 A 
ATOM     10  C   UNL     1       5.523   3.850  16.509  0.00  0.00    +0.000 A 
ATOM     11  C   UNL     1       5.679   5.000  15.717  0.00  0.00    +0.000 A 
ATOM     12  C   UNL     1       5.010   6.185  16.035  0.00  0.00    +0.000 A 
ATOM     13  C   UNL     1       4.184   6.200  17.146  0.00  0.00    +0.000 A 
ENDROOT
BRANCH   1  17
ATOM     14  C   UNL     1      -0.875  10.288  23.294  0.00  0.00    +0.000 C 
ATOM     15  C   UNL     1      -0.591  10.442  21.830  0.00  0.00    +0.000 A 
ATOM     16  C   UNL     1       0.326   9.611  21.190  0.00  0.00    +0.000 A 
ATOM     17  C   UNL     1       0.609   9.784  19.823  0.00  0.00    +0.000 A 
ATOM     18  C   UNL     1      -0.085  10.807  19.165  0.00  0.00    +0.000 A 
ATOM     19  C   UNL     1      -0.998  11.577  19.869  0.00  0.00    +0.000 A 
ATOM     20  N   UNL     1      -1.259  11.420  21.182  0.00  0.00    +0.000 NA
ENDBRANCH   1  17
BRANCH   7  21
ATOM     21  C   UNL     1       1.863   4.374  19.210  0.00  0.00    +0.000 C 
ATOM     22  F   UNL     1       1.015   4.681  20.220  0.00  0.00    +0.000 F 
ATOM     23  F   UNL     1       1.127   4.308  18.079  0.00  0.00    +0.000 F 
ATOM     24  F   UNL     1       2.302   3.106  19.463  0.00  0.00    +0.000 F 
ENDBRANCH   7  21
BRANCH   7  25
ATOM     25  O   UNL     1       3.905   5.336  20.310  0.00  0.00    +0.000 OA
ATOM     26  H   UNL     1       4.778   4.988  20.059  0.00  0.00    +0.000 HD
ENDBRANCH   7  25
TORSDOF 3
ENDMDL
MODEL 7
REMARK VINA RESULT:      -8.3      3.610      7.648
REMARK  Name = 
REMARK  4 active torsions:
REMARK  status: ('A' for Active; 'I' for Inactive)
REMARK    1  A    between atoms: C_1  and  C_2
REMARK    2  A    between atoms: C_4  and  C_5
REMARK    3  A    between atoms: C_11  and  O_12
REMARK    4  A    between atoms: C_11  and  C_13
REMARK                            x       y       z     vdW  Elec       q    Type
REMARK                         _______ _______ _______ _____ _____    ______ ____
ROOT
ATOM      1  C   UNL     1       1.970   7.673  19.238  0.00  0.00    +0.000 A 
ATOM      2  C   UNL     1       1.901   7.592  20.652  0.00  0.00    +0.000 A 
ATOM      3  C   UNL     1       1.182   8.517  21.420  0.00  0.00    +0.000 A 
ATOM      4  C   UNL     1       0.501   9.527  20.771  0.00  0.00    +0.000 A 
ATOM      5  C   UNL     1       0.562   9.636  19.368  0.00  0.00    +0.000 A 
ATOM      6  C   UNL     1       1.305   8.739  18.607  0.00  0.00    +0.000 A 
ATOM      7  C   UNL     1      -0.286  10.816  18.890  0.00  0.00    +0.000 C 
ATOM      8  C   UNL     1      -0.846  11.341  20.212  0.00  0.00    +0.000 A 
ATOM      9  C   UNL     1      -1.701  12.413  20.431  0.00  0.00    +0.000 A 
ATOM     10  C   UNL     1      -2.067  12.710  21.745  0.00  0.00    +0.000 A 
ATOM     11  C   UNL     1      -1.571  11.950  22.818  0.00  0.00    +0.000 A 
ATOM     12  C   UNL     1      -0.706  10.876  22.595  0.00  0.00    +0.000 A 
ATOM     13  C   UNL     1      -0.352  10.572  21.291  0.00  0.00    +0.000 A 
ENDROOT
BRANCH   1  17
ATOM     14  C   UNL     1       5.741   6.365  16.165  0.00  0.00    +0.000 C 
ATOM     15  C   UNL     1       4.513   6.020  16.953  0.00  0.00    +0.000 A 
ATOM     16  C   UNL     1       3.836   6.994  17.683  0.00  0.00    +0.000 A 
ATOM     17  C   UNL     1       2.705   6.653  18.446  0.00  0.00    +0.000 A 
ATOM     18  C   UNL     1       2.306   5.311  18.409  0.00  0.00    +0.000 A 
ATOM     19  C   UNL     1       3.021   4.406  17.639  0.00  0.00    +0.000 A 
ATOM     20  N   UNL     1       4.114   4.730  16.920  0.00  0.00    +0.000 NA
ENDBRANCH   1  17
BRANCH   7  21
ATOM     21  C   UNL     1      -1.373  10.424  17.839  0.00  0.00    +0.000 C 
ATOM     22  F   UNL     1      -1.909  11.489  17.196  0.00  0.00    +0.000 F 
ATOM     23  F   UNL     1      -0.942   9.563  16.892  0.00  0.00    +0.000 F 
ATOM     24  F   UNL     1      -2.413   9.812  18.478  0.00  0.00    +0.000 F 
ENDBRANCH   7  21
BRANCH   7  25
ATOM     25  O   UNL     1       0.640  11.812  18.408  0.00  0.00    +0.000 OA
ATOM     26  H   UNL     1       0.146  12.384  17.793  0.00  0.00    +0.000 HD
ENDBRANCH   7  25
TORSDOF 3
ENDMDL
MODEL 8
REMARK VINA RESULT:      -8.2      3.895      5.754
REMARK  Name = 
REMARK  4 active torsions:
REMARK  status: ('A' for Active; 'I' for Inactive)
REMARK    1  A    between atoms: C_1  and  C_2
REMARK    2  A    between atoms: C_4  and  C_5
REMARK    3  A    between atoms: C_11  and  O_12
REMARK    4  A    between atoms: C_11  and  C_13
REMARK                            x       y       z     vdW  Elec       q    Type
REMARK                         _______ _______ _______ _____ _____    ______ ____
ROOT
ATOM      1  C   UNL     1      -1.068  11.399  22.362  0.00  0.00    +0.000 A 
ATOM      2  C   UNL     1      -0.704  10.170  22.969  0.00  0.00    +0.000 A 
ATOM      3  C   UNL     1       0.041   9.194  22.294  0.00  0.00    +0.000 A 
ATOM      4  C   UNL     1       0.451   9.452  21.002  0.00  0.00    +0.000 A 
ATOM      5  C   UNL     1       0.094  10.660  20.372  0.00  0.00    +0.000 A 
ATOM      6  C   UNL     1      -0.676  11.614  21.029  0.00  0.00    +0.000 A 
ATOM      7  C   UNL     1       0.681  10.716  18.961  0.00  0.00    +0.000 C 
ATOM      8  C   UNL     1       1.432   9.387  18.892  0.00  0.00    +0.000 A 
ATOM      9  C   UNL     1       2.180   8.863  17.847  0.00  0.00    +0.000 A 
ATOM     10  C   UNL     1       2.768   7.608  18.017  0.00  0.00    +0.000 A 
ATOM     11  C   UNL     1       2.594   6.891  19.213  0.00  0.00    +0.000 A 
ATOM     12  C   UNL     1       1.836   7.418  20.260  0.00  0.00    +0.000 A 
ATOM     13  C   UNL     1       1.262   8.668  20.097  0.00  0.00    +0.000 A 
ENDROOT
BRANCH   1  17
ATOM     14  C   UNL     1      -1.356  15.950  24.499  0.00  0.00    +0.000 C 
ATOM     15  C   UNL     1      -1.962  14.622  24.160  0.00  0.00    +0.000 A 
ATOM     16  C   UNL     1      -1.233  13.663  23.457  0.00  0.00    +0.000 A 
ATOM     17  C   UNL     1      -1.822  12.433  23.115  0.00  0.00    +0.000 A 
ATOM     18  C   UNL     1      -3.145  12.235  23.531  0.00  0.00    +0.000 A 
ATOM     19  C   UNL     1      -3.794  13.230  24.245  0.00  0.00    +0.000 A 
ATOM     20  N   UNL     1      -3.234  14.415  24.560  0.00  0.00    +0.000 NA
ENDBRANCH   1  17
BRANCH   7  21
ATOM     21  C   UNL     1       1.571  11.974  18.700  0.00  0.00    +0.000 C 
ATOM     22  F   UNL     1       2.161  12.457  19.819  0.00  0.00    +0.000 F 
ATOM     23  F   UNL     1       2.548  11.780  17.787  0.00  0.00    +0.000 F 
ATOM     24  F   UNL     1       0.788  12.986  18.223  0.00  0.00    +0.000 F 
ENDBRANCH   7  21
BRANCH   7  25
ATOM     25  O   UNL     1      -0.435  10.610  18.052  0.00  0.00    +0.000 OA
ATOM     26  H   UNL     1      -0.083  10.742  17.154  0.00  0.00    +0.000 HD
ENDBRANCH   7  25
TORSDOF 3
ENDMDL
MODEL 9
REMARK VINA RESULT:      -8.1      3.812      5.683
REMARK  Name = 
REMARK  4 active torsions:
REMARK  status: ('A' for Active; 'I' for Inactive)
REMARK    1  A    between atoms: C_1  and  C_2
REMARK    2  A    between atoms: C_4  and  C_5
REMARK    3  A    between atoms: C_11  and  O_12
REMARK    4  A    between atoms: C_11  and  C_13
REMARK                            x       y       z     vdW  Elec       q    Type
REMARK                         _______ _______ _______ _____ _____    ______ ____
ROOT
ATOM      1  C   UNL     1      -1.104  11.348  22.290  0.00  0.00    +0.000 A 
ATOM      2  C   UNL     1      -0.752  10.133  22.931  0.00  0.00    +0.000 A 
ATOM      3  C   UNL     1       0.004   9.141  22.292  0.00  0.00    +0.000 A 
ATOM      4  C   UNL     1       0.438   9.370  21.002  0.00  0.00    +0.000 A 
ATOM      5  C   UNL     1       0.094  10.563  20.339  0.00  0.00    +0.000 A 
ATOM      6  C   UNL     1      -0.687  11.533  20.959  0.00  0.00    +0.000 A 
ATOM      7  C   UNL     1       0.707  10.587  18.938  0.00  0.00    +0.000 C 
ATOM      8  C   UNL     1       1.457   9.256  18.913  0.00  0.00    +0.000 A 
ATOM      9  C   UNL     1       2.224   8.708  17.894  0.00  0.00    +0.000 A 
ATOM     10  C   UNL     1       2.807   7.457  18.103  0.00  0.00    +0.000 A 
ATOM     11  C   UNL     1       2.611   6.767  19.311  0.00  0.00    +0.000 A 
ATOM     12  C   UNL     1       1.833   7.318  20.332  0.00  0.00    +0.000 A 
ATOM     13  C   UNL     1       1.265   8.565  20.131  0.00  0.00    +0.000 A 
ENDROOT
BRANCH   1  17
ATOM     14  C   UNL     1      -5.401  13.096  24.250  0.00  0.00    +0.000 C 
ATOM     15  C   UNL     1      -3.943  13.254  23.941  0.00  0.00    +0.000 A 
ATOM     16  C   UNL     1      -3.245  12.257  23.262  0.00  0.00    +0.000 A 
ATOM     17  C   UNL     1      -1.870  12.399  23.006  0.00  0.00    +0.000 A 
ATOM     18  C   UNL     1      -1.270  13.584  23.451  0.00  0.00    +0.000 A 
ATOM     19  C   UNL     1      -2.038  14.538  24.100  0.00  0.00    +0.000 A 
ATOM     20  N   UNL     1      -3.354  14.395  24.358  0.00  0.00    +0.000 NA
ENDBRANCH   1  17
BRANCH   7  21
ATOM     21  C   UNL     1       1.603  11.838  18.665  0.00  0.00    +0.000 C 
ATOM     22  F   UNL     1       2.208  12.319  19.777  0.00  0.00    +0.000 F 
ATOM     23  F   UNL     1       2.569  11.635  17.743  0.00  0.00    +0.000 F 
ATOM     24  F   UNL     1       0.823  12.855  18.195  0.00  0.00    +0.000 F 
ENDBRANCH   7  21
BRANCH   7  25
ATOM     25  O   UNL     1      -0.393  10.461  18.012  0.00  0.00    +0.000 OA
ATOM     26  H   UNL     1      -0.743  11.358  17.864  0.00  0.00    +0.000 HD
ENDBRANCH   7  25
TORSDOF 3
ENDMDL
