MODEL 1
REMARK VINA RESULT:      -7.4      0.000      0.000
REMARK  Name = 
REMARK  3 active torsions:
REMARK  status: ('A' for Active; 'I' for Inactive)
REMARK    1  A    between atoms: N_1  and  C_2
REMARK    2  A    between atoms: C_4  and  C_5
REMARK    3  A    between atoms: C_15  and  C_16
REMARK                            x       y       z     vdW  Elec       q    Type
REMARK                         _______ _______ _______ _____ _____    ______ ____
ROOT
ATOM      1  C   UNL     1       4.444   4.471  18.268  0.00  0.00    +0.000 A 
ATOM      2  C   UNL     1       5.367   4.368  17.308  0.00  0.00    +0.000 A 
ATOM      3  C   UNL     1       5.591   5.407  16.315  0.00  0.00    +0.000 A 
ATOM      4  C   UNL     1       4.894   6.571  16.418  0.00  0.00    +0.000 A 
ATOM      5  C   UNL     1       3.936   6.748  17.469  0.00  0.00    +0.000 A 
ATOM      6  N   UNL     1       3.167   7.756  17.827  0.00  0.00    +0.000 NA
ATOM      7  C   UNL     1       2.552   7.291  18.971  0.00  0.00    +0.000 A 
ATOM      8  N   UNL     1       2.833   6.026  19.291  0.00  0.00    +0.000 NA
ATOM      9  N   UNL     1       3.743   5.686  18.355  0.00  0.00    +0.000 N 
ENDROOT
BRANCH   3  10
ATOM     10  C   UNL     1       6.662   5.301  15.237  0.00  0.00    +0.000 C 
ATOM     11  O   UNL     1       7.721   5.907  15.394  0.00  0.00    +0.000 OA
ATOM     12  N   UNL     1       6.432   4.523  14.104  0.00  0.00    +0.000 N 
ATOM     13  C   UNL     1       7.488   4.266  13.136  0.00  0.00    +0.000 C 
ATOM     14  C   UNL     1       6.740   3.975  11.841  0.00  0.00    +0.000 C 
ATOM     15  C   UNL     1       5.463   3.293  12.293  0.00  0.00    +0.000 C 
ATOM     16  C   UNL     1       5.237   3.800  13.707  0.00  0.00    +0.000 C 
ENDBRANCH   3  10
BRANCH   7  17
ATOM     17  C   UNL     1       1.651   8.107  19.835  0.00  0.00    +0.000 A 
ATOM     18  C   UNL     1       1.254   7.806  21.122  0.00  0.00    +0.000 A 
ATOM     19  C   UNL     1       0.389   8.850  21.536  0.00  0.00    +0.000 A 
ATOM     20  C   UNL     1       0.299   9.718  20.475  0.00  0.00    +0.000 A 
ATOM     21  O   UNL     1       1.072   9.289  19.447  0.00  0.00    +0.000 OA
ENDBRANCH   7  17
BRANCH   1  22
ATOM     22  N   UNL     1       4.179   3.456  19.174  0.00  0.00    +0.000 N 
ATOM     23  H   UNL     1       4.399   2.529  18.817  0.00  0.00    +0.000 HD
ATOM     24  H   UNL     1       3.218   3.516  19.525  0.00  0.00    +0.000 HD
ENDBRANCH   1  22
TORSDOF 3
ENDMDL
MODEL 2
REMARK VINA RESULT:      -7.4      1.708      7.456
REMARK  Name = 
REMARK  3 active torsions:
REMARK  status: ('A' for Active; 'I' for Inactive)
REMARK    1  A    between atoms: N_1  and  C_2
REMARK    2  A    between atoms: C_4  and  C_5
REMARK    3  A    between atoms: C_15  and  C_16
REMARK                            x       y       z     vdW  Elec       q    Type
REMARK                         _______ _______ _______ _____ _____    ______ ____
ROOT
ATOM      1  C   UNL     1       3.926   3.594  18.122  0.00  0.00    +0.000 A 
ATOM      2  C   UNL     1       3.180   4.325  18.955  0.00  0.00    +0.000 A 
ATOM      3  C   UNL     1       3.110   5.776  18.884  0.00  0.00    +0.000 A 
ATOM      4  C   UNL     1       3.761   6.413  17.874  0.00  0.00    +0.000 A 
ATOM      5  C   UNL     1       4.525   5.663  16.921  0.00  0.00    +0.000 A 
ATOM      6  N   UNL     1       5.206   6.000  15.845  0.00  0.00    +0.000 NA
ATOM      7  C   UNL     1       5.627   4.786  15.345  0.00  0.00    +0.000 A 
ATOM      8  N   UNL     1       5.316   3.727  16.095  0.00  0.00    +0.000 NA
ATOM      9  N   UNL     1       4.583   4.277  17.084  0.00  0.00    +0.000 N 
ENDROOT
BRANCH   3  10
ATOM     10  C   UNL     1       2.238   6.607  19.817  0.00  0.00    +0.000 C 
ATOM     11  O   UNL     1       1.859   6.105  20.874  0.00  0.00    +0.000 OA
ATOM     12  N   UNL     1       1.890   7.910  19.466  0.00  0.00    +0.000 N 
ATOM     13  C   UNL     1       1.200   8.786  20.401  0.00  0.00    +0.000 C 
ATOM     14  C   UNL     1       0.475   9.783  19.508  0.00  0.00    +0.000 C 
ATOM     15  C   UNL     1       1.391   9.945  18.310  0.00  0.00    +0.000 C 
ATOM     16  C   UNL     1       2.175   8.646  18.248  0.00  0.00    +0.000 C 
ENDBRANCH   3  10
BRANCH   7  17
ATOM     17  C   UNL     1       6.356   4.612  14.056  0.00  0.00    +0.000 A 
ATOM     18  C   UNL     1       6.093   3.667  13.085  0.00  0.00    +0.000 A 
ATOM     19  C   UNL     1       7.044   3.865  12.054  0.00  0.00    +0.000 A 
ATOM     20  C   UNL     1       7.839   4.910  12.461  0.00  0.00    +0.000 A 
ATOM     21  O   UNL     1       7.420   5.381  13.661  0.00  0.00    +0.000 OA
ENDBRANCH   7  17
BRANCH   1  22
ATOM     22  N   UNL     1       4.050   2.218  18.229  0.00  0.00    +0.000 N 
ATOM     23  H   UNL     1       3.743   1.853  19.127  0.00  0.00    +0.000 HD
ATOM     24  H   UNL     1       4.999   1.914  17.992  0.00  0.00    +0.000 HD
ENDBRANCH   1  22
TORSDOF 3
ENDMDL
MODEL 3
REMARK VINA RESULT:      -7.3      4.244      5.536
REMARK  Name = 
REMARK  3 active torsions:
REMARK  status: ('A' for Active; 'I' for Inactive)
REMARK    1  A    between atoms: N_1  and  C_2
REMARK    2  A    between atoms: C_4  and  C_5
REMARK    3  A    between atoms: C_15  and  C_16
REMARK                            x       y       z     vdW  Elec       q    Type
REMARK                         _______ _______ _______ _____ _____    ______ ____
ROOT
ATOM      1  C   UNL     1       1.922   8.748  18.493  0.00  0.00    +0.000 A 
ATOM      2  C   UNL     1       2.548   7.570  18.424  0.00  0.00    +0.000 A 
ATOM      3  C   UNL     1       2.658   6.668  19.561  0.00  0.00    +0.000 A 
ATOM      4  C   UNL     1       2.025   6.997  20.719  0.00  0.00    +0.000 A 
ATOM      5  C   UNL     1       1.292   8.224  20.819  0.00  0.00    +0.000 A 
ATOM      6  N   UNL     1       0.566   8.766  21.776  0.00  0.00    +0.000 NA
ATOM      7  C   UNL     1       0.074   9.912  21.187  0.00  0.00    +0.000 A 
ATOM      8  N   UNL     1       0.522  10.151  19.952  0.00  0.00    +0.000 NA
ATOM      9  N   UNL     1       1.271   9.059  19.700  0.00  0.00    +0.000 N 
ENDROOT
BRANCH   3  10
ATOM     10  C   UNL     1       3.348   5.313  19.474  0.00  0.00    +0.000 C 
ATOM     11  O   UNL     1       4.576   5.271  19.523  0.00  0.00    +0.000 OA
ATOM     12  N   UNL     1       2.586   4.153  19.347  0.00  0.00    +0.000 N 
ATOM     13  C   UNL     1       3.197   2.835  19.427  0.00  0.00    +0.000 C 
ATOM     14  C   UNL     1       2.244   1.937  18.648  0.00  0.00    +0.000 C 
ATOM     15  C   UNL     1       0.875   2.539  18.901  0.00  0.00    +0.000 C 
ATOM     16  C   UNL     1       1.149   4.002  19.203  0.00  0.00    +0.000 C 
ENDBRANCH   3  10
BRANCH   7  17
ATOM     17  C   UNL     1      -0.904  10.836  21.829  0.00  0.00    +0.000 A 
ATOM     18  C   UNL     1      -1.273  10.845  23.159  0.00  0.00    +0.000 A 
ATOM     19  C   UNL     1      -2.236  11.873  23.308  0.00  0.00    +0.000 A 
ATOM     20  C   UNL     1      -2.408  12.422  22.060  0.00  0.00    +0.000 A 
ATOM     21  O   UNL     1      -1.595  11.815  21.162  0.00  0.00    +0.000 OA
ENDBRANCH   7  17
BRANCH   1  22
ATOM     22  N   UNL     1       1.874   9.641  17.434  0.00  0.00    +0.000 N 
ATOM     23  H   UNL     1       2.776   9.786  16.986  0.00  0.00    +0.000 HD
ATOM     24  H   UNL     1       1.435  10.523  17.714  0.00  0.00    +0.000 HD
ENDBRANCH   1  22
TORSDOF 3
ENDMDL
MODEL 4
REMARK VINA RESULT:      -7.2      4.359      5.365
REMARK  Name = 
REMARK  3 active torsions:
REMARK  status: ('A' for Active; 'I' for Inactive)
REMARK    1  A    between atoms: N_1  and  C_2
REMARK    2  A    between atoms: C_4  and  C_5
REMARK    3  A    between atoms: C_15  and  C_16
REMARK                            x       y       z     vdW  Elec       q    Type
REMARK                         _______ _______ _______ _____ _____    ______ ____
ROOT
ATOM      1  C   UNL     1       7.838   5.678  18.726  0.00  0.00    +0.000 A 
ATOM      2  C   UNL     1       7.148   4.901  17.887  0.00  0.00    +0.000 A 
ATOM      3  C   UNL     1       6.404   5.428  16.754  0.00  0.00    +0.000 A 
ATOM      4  C   UNL     1       6.484   6.759  16.483  0.00  0.00    +0.000 A 
ATOM      5  C   UNL     1       7.262   7.622  17.322  0.00  0.00    +0.000 A 
ATOM      6  N   UNL     1       7.545   8.908  17.278  0.00  0.00    +0.000 NA
ATOM      7  C   UNL     1       8.411   9.076  18.338  0.00  0.00    +0.000 A 
ATOM      8  N   UNL     1       8.612   7.987  19.083  0.00  0.00    +0.000 NA
ATOM      9  N   UNL     1       7.909   7.048  18.419  0.00  0.00    +0.000 N 
ENDROOT
BRANCH   3  10
ATOM     10  C   UNL     1       5.640   4.539  15.782  0.00  0.00    +0.000 C 
ATOM     11  O   UNL     1       4.654   3.927  16.192  0.00  0.00    +0.000 OA
ATOM     12  N   UNL     1       6.060   4.435  14.458  0.00  0.00    +0.000 N 
ATOM     13  C   UNL     1       5.264   3.728  13.465  0.00  0.00    +0.000 C 
ATOM     14  C   UNL     1       6.278   3.303  12.412  0.00  0.00    +0.000 C 
ATOM     15  C   UNL     1       7.309   4.416  12.415  0.00  0.00    +0.000 C 
ATOM     16  C   UNL     1       7.223   5.013  13.809  0.00  0.00    +0.000 C 
ENDBRANCH   3  10
BRANCH   7  17
ATOM     17  C   UNL     1       9.115  10.352  18.656  0.00  0.00    +0.000 A 
ATOM     18  C   UNL     1       9.846  10.623  19.795  0.00  0.00    +0.000 A 
ATOM     19  C   UNL     1      10.310  11.956  19.673  0.00  0.00    +0.000 A 
ATOM     20  C   UNL     1       9.824  12.424  18.476  0.00  0.00    +0.000 A 
ATOM     21  O   UNL     1       9.115  11.457  17.845  0.00  0.00    +0.000 OA
ENDBRANCH   7  17
BRANCH   1  22
ATOM     22  N   UNL     1       8.491   5.188  19.846  0.00  0.00    +0.000 N 
ATOM     23  H   UNL     1       8.941   5.913  20.400  0.00  0.00    +0.000 HD
ATOM     24  H   UNL     1       9.139   4.434  19.596  0.00  0.00    +0.000 HD
ENDBRANCH   1  22
TORSDOF 3
ENDMDL
MODEL 5
REMARK VINA RESULT:      -7.2      2.423      7.827
REMARK  Name = 
REMARK  3 active torsions:
REMARK  status: ('A' for Active; 'I' for Inactive)
REMARK    1  A    between atoms: N_1  and  C_2
REMARK    2  A    between atoms: C_4  and  C_5
REMARK    3  A    between atoms: C_15  and  C_16
REMARK                            x       y       z     vdW  Elec       q    Type
REMARK                         _______ _______ _______ _____ _____    ______ ____
ROOT
ATOM      1  C   UNL     1       2.014   7.415  19.975  0.00  0.00    +0.000 A 
ATOM      2  C   UNL     1       1.212   8.481  20.053  0.00  0.00    +0.000 A 
ATOM      3  C   UNL     1       1.214   9.543  19.060  0.00  0.00    +0.000 A 
ATOM      4  C   UNL     1       2.002   9.407  17.959  0.00  0.00    +0.000 A 
ATOM      5  C   UNL     1       2.834   8.250  17.805  0.00  0.00    +0.000 A 
ATOM      6  N   UNL     1       3.646   7.844  16.850  0.00  0.00    +0.000 NA
ATOM      7  C   UNL     1       4.066   6.609  17.298  0.00  0.00    +0.000 A 
ATOM      8  N   UNL     1       3.627   6.268  18.511  0.00  0.00    +0.000 NA
ATOM      9  N   UNL     1       2.812   7.296  18.824  0.00  0.00    +0.000 N 
ENDROOT
BRANCH   3  10
ATOM     10  C   UNL     1       0.281  10.744  19.135  0.00  0.00    +0.000 C 
ATOM     11  O   UNL     1       0.572  11.672  19.888  0.00  0.00    +0.000 OA
ATOM     12  N   UNL     1      -0.873  10.777  18.355  0.00  0.00    +0.000 N 
ATOM     13  C   UNL     1      -1.700  11.972  18.277  0.00  0.00    +0.000 C 
ATOM     14  C   UNL     1      -3.080  11.446  17.906  0.00  0.00    +0.000 C 
ATOM     15  C   UNL     1      -2.795  10.238  17.032  0.00  0.00    +0.000 C 
ATOM     16  C   UNL     1      -1.420   9.764  17.471  0.00  0.00    +0.000 C 
ENDBRANCH   3  10
BRANCH   7  17
ATOM     17  C   UNL     1       4.926   5.676  16.515  0.00  0.00    +0.000 A 
ATOM     18  C   UNL     1       4.895   4.297  16.560  0.00  0.00    +0.000 A 
ATOM     19  C   UNL     1       5.896   3.837  15.669  0.00  0.00    +0.000 A 
ATOM     20  C   UNL     1       6.488   4.961  15.144  0.00  0.00    +0.000 A 
ATOM     21  O   UNL     1       5.897   6.078  15.634  0.00  0.00    +0.000 OA
ENDBRANCH   7  17
BRANCH   1  22
ATOM     22  N   UNL     1       2.065   6.434  20.954  0.00  0.00    +0.000 N 
ATOM     23  H   UNL     1       1.953   5.492  20.588  0.00  0.00    +0.000 HD
ATOM     24  H   UNL     1       1.406   6.636  21.713  0.00  0.00    +0.000 HD
ENDBRANCH   1  22
TORSDOF 3
ENDMDL
MODEL 6
REMARK VINA RESULT:      -7.1      4.411      6.236
REMARK  Name = 
REMARK  3 active torsions:
REMARK  status: ('A' for Active; 'I' for Inactive)
REMARK    1  A    between atoms: N_1  and  C_2
REMARK    2  A    between atoms: C_4  and  C_5
REMARK    3  A    between atoms: C_15  and  C_16
REMARK                            x       y       z     vdW  Elec       q    Type
REMARK                         _______ _______ _______ _____ _____    ______ ____
ROOT
ATOM      1  C   UNL     1       7.733   5.874  18.996  0.00  0.00    +0.000 A 
ATOM      2  C   UNL     1       6.815   5.064  18.461  0.00  0.00    +0.000 A 
ATOM      3  C   UNL     1       5.805   5.527  17.522  0.00  0.00    +0.000 A 
ATOM      4  C   UNL     1       5.848   6.820  17.102  0.00  0.00    +0.000 A 
ATOM      5  C   UNL     1       6.853   7.710  17.604  0.00  0.00    +0.000 A 
ATOM      6  N   UNL     1       7.152   8.968  17.351  0.00  0.00    +0.000 NA
ATOM      7  C   UNL     1       8.281   9.183  18.113  0.00  0.00    +0.000 A 
ATOM      8  N   UNL     1       8.646   8.157  18.886  0.00  0.00    +0.000 NA
ATOM      9  N   UNL     1       7.758   7.204  18.539  0.00  0.00    +0.000 N 
ENDROOT
BRANCH   3  10
ATOM     10  C   UNL     1       4.776   4.598  16.893  0.00  0.00    +0.000 C 
ATOM     11  O   UNL     1       4.994   4.150  15.768  0.00  0.00    +0.000 OA
ATOM     12  N   UNL     1       3.617   4.268  17.593  0.00  0.00    +0.000 N 
ATOM     13  C   UNL     1       2.694   3.259  17.096  0.00  0.00    +0.000 C 
ATOM     14  C   UNL     1       1.360   3.633  17.729  0.00  0.00    +0.000 C 
ATOM     15  C   UNL     1       1.739   4.219  19.077  0.00  0.00    +0.000 C 
ATOM     16  C   UNL     1       3.151   4.744  18.883  0.00  0.00    +0.000 C 
ENDBRANCH   3  10
BRANCH   7  17
ATOM     17  C   UNL     1       9.085  10.439  18.094  0.00  0.00    +0.000 A 
ATOM     18  C   UNL     1      10.370  10.599  18.571  0.00  0.00    +0.000 A 
ATOM     19  C   UNL     1      10.717  11.956  18.362  0.00  0.00    +0.000 A 
ATOM     20  C   UNL     1       9.620  12.548  17.782  0.00  0.00    +0.000 A 
ATOM     21  O   UNL     1       8.634  11.636  17.599  0.00  0.00    +0.000 OA
ENDBRANCH   7  17
BRANCH   1  22
ATOM     22  N   UNL     1       8.653   5.453  19.943  0.00  0.00    +0.000 N 
ATOM     23  H   UNL     1       9.605   5.752  19.742  0.00  0.00    +0.000 HD
ATOM     24  H   UNL     1       8.590   4.441  20.095  0.00  0.00    +0.000 HD
ENDBRANCH   1  22
TORSDOF 3
ENDMDL
MODEL 7
REMARK VINA RESULT:      -7.0      3.320      3.641
REMARK  Name = 
REMARK  3 active torsions:
REMARK  status: ('A' for Active; 'I' for Inactive)
REMARK    1  A    between atoms: N_1  and  C_2
REMARK    2  A    between atoms: C_4  and  C_5
REMARK    3  A    between atoms: C_15  and  C_16
REMARK                            x       y       z     vdW  Elec       q    Type
REMARK                         _______ _______ _______ _____ _____    ______ ____
ROOT
ATOM      1  C   UNL     1       7.062   4.841  18.140  0.00  0.00    +0.000 A 
ATOM      2  C   UNL     1       7.497   5.047  16.894  0.00  0.00    +0.000 A 
ATOM      3  C   UNL     1       6.765   4.599  15.719  0.00  0.00    +0.000 A 
ATOM      4  C   UNL     1       5.546   4.023  15.890  0.00  0.00    +0.000 A 
ATOM      5  C   UNL     1       5.013   3.836  17.207  0.00  0.00    +0.000 A 
ATOM      6  N   UNL     1       3.871   3.357  17.659  0.00  0.00    +0.000 NA
ATOM      7  C   UNL     1       3.971   3.540  19.022  0.00  0.00    +0.000 A 
ATOM      8  N   UNL     1       5.140   4.026  19.444  0.00  0.00    +0.000 NA
ATOM      9  N   UNL     1       5.795   4.249  18.287  0.00  0.00    +0.000 N 
ENDROOT
BRANCH   3  10
ATOM     10  C   UNL     1       7.249   4.859  14.299  0.00  0.00    +0.000 C 
ATOM     11  O   UNL     1       8.155   5.671  14.122  0.00  0.00    +0.000 OA
ATOM     12  N   UNL     1       6.667   4.176  13.232  0.00  0.00    +0.000 N 
ATOM     13  C   UNL     1       7.210   4.275  11.885  0.00  0.00    +0.000 C 
ATOM     14  C   UNL     1       6.023   3.962  10.983  0.00  0.00    +0.000 C 
ATOM     15  C   UNL     1       5.206   2.960  11.777  0.00  0.00    +0.000 C 
ATOM     16  C   UNL     1       5.553   3.246  13.227  0.00  0.00    +0.000 C 
ENDBRANCH   3  10
BRANCH   7  17
ATOM     17  C   UNL     1       2.875   3.255  19.993  0.00  0.00    +0.000 A 
ATOM     18  C   UNL     1       1.541   3.572  19.840  0.00  0.00    +0.000 A 
ATOM     19  C   UNL     1       0.879   3.131  21.013  0.00  0.00    +0.000 A 
ATOM     20  C   UNL     1       1.850   2.584  21.818  0.00  0.00    +0.000 A 
ATOM     21  O   UNL     1       3.057   2.637  21.203  0.00  0.00    +0.000 OA
ENDBRANCH   7  17
BRANCH   1  22
ATOM     22  N   UNL     1       7.788   5.205  19.264  0.00  0.00    +0.000 N 
ATOM     23  H   UNL     1       7.241   5.723  19.948  0.00  0.00    +0.000 HD
ATOM     24  H   UNL     1       8.649   5.696  19.004  0.00  0.00    +0.000 HD
ENDBRANCH   1  22
TORSDOF 3
ENDMDL
MODEL 8
REMARK VINA RESULT:      -7.0      2.815      4.406
REMARK  Name = 
REMARK  3 active torsions:
REMARK  status: ('A' for Active; 'I' for Inactive)
REMARK    1  A    between atoms: N_1  and  C_2
REMARK    2  A    between atoms: C_4  and  C_5
REMARK    3  A    between atoms: C_15  and  C_16
REMARK                            x       y       z     vdW  Elec       q    Type
REMARK                         _______ _______ _______ _____ _____    ______ ____
ROOT
ATOM      1  C   UNL     1       1.898   7.532  20.150  0.00  0.00    +0.000 A 
ATOM      2  C   UNL     1       2.558   6.505  19.607  0.00  0.00    +0.000 A 
ATOM      3  C   UNL     1       3.008   6.500  18.224  0.00  0.00    +0.000 A 
ATOM      4  C   UNL     1       2.828   7.620  17.474  0.00  0.00    +0.000 A 
ATOM      5  C   UNL     1       2.177   8.767  18.034  0.00  0.00    +0.000 A 
ATOM      6  N   UNL     1       1.911   9.970  17.568  0.00  0.00    +0.000 NA
ATOM      7  C   UNL     1       1.344  10.609  18.651  0.00  0.00    +0.000 A 
ATOM      8  N   UNL     1       1.169   9.845  19.731  0.00  0.00    +0.000 NA
ATOM      9  N   UNL     1       1.731   8.679  19.354  0.00  0.00    +0.000 N 
ENDROOT
BRANCH   3  10
ATOM     10  C   UNL     1       3.784   5.340  17.613  0.00  0.00    +0.000 C 
ATOM     11  O   UNL     1       3.175   4.315  17.312  0.00  0.00    +0.000 OA
ATOM     12  N   UNL     1       5.157   5.457  17.404  0.00  0.00    +0.000 N 
ATOM     13  C   UNL     1       5.900   4.438  16.676  0.00  0.00    +0.000 C 
ATOM     14  C   UNL     1       7.326   4.581  17.192  0.00  0.00    +0.000 C 
ATOM     15  C   UNL     1       7.472   6.063  17.480  0.00  0.00    +0.000 C 
ATOM     16  C   UNL     1       6.056   6.541  17.753  0.00  0.00    +0.000 C 
ENDBRANCH   3  10
BRANCH   7  17
ATOM     17  C   UNL     1       0.960  12.050  18.673  0.00  0.00    +0.000 A 
ATOM     18  C   UNL     1       1.813  13.124  18.821  0.00  0.00    +0.000 A 
ATOM     19  C   UNL     1       1.008  14.290  18.802  0.00  0.00    +0.000 A 
ATOM     20  C   UNL     1      -0.289  13.859  18.657  0.00  0.00    +0.000 A 
ATOM     21  O   UNL     1      -0.328  12.507  18.560  0.00  0.00    +0.000 OA
ENDBRANCH   7  17
BRANCH   1  22
ATOM     22  N   UNL     1       1.407   7.514  21.446  0.00  0.00    +0.000 N 
ATOM     23  H   UNL     1       0.746   6.760  21.617  0.00  0.00    +0.000 HD
ATOM     24  H   UNL     1       1.027   8.428  21.709  0.00  0.00    +0.000 HD
ENDBRANCH   1  22
TORSDOF 3
ENDMDL
MODEL 9
REMARK VINA RESULT:      -7.0      3.297      7.669
REMARK  Name = 
REMARK  3 active torsions:
REMARK  status: ('A' for Active; 'I' for Inactive)
REMARK    1  A    between atoms: N_1  and  C_2
REMARK    2  A    between atoms: C_4  and  C_5
REMARK    3  A    between atoms: C_15  and  C_16
REMARK                            x       y       z     vdW  Elec       q    Type
REMARK                         _______ _______ _______ _____ _____    ______ ____
ROOT
ATOM      1  C   UNL     1       6.811   5.398  18.295  0.00  0.00    +0.000 A 
ATOM      2  C   UNL     1       6.155   4.741  19.256  0.00  0.00    +0.000 A 
ATOM      3  C   UNL     1       5.127   3.751  18.974  0.00  0.00    +0.000 A 
ATOM      4  C   UNL     1       4.881   3.416  17.679  0.00  0.00    +0.000 A 
ATOM      5  C   UNL     1       5.603   4.053  16.617  0.00  0.00    +0.000 A 
ATOM      6  N   UNL     1       5.602   3.902  15.309  0.00  0.00    +0.000 NA
ATOM      7  C   UNL     1       6.593   4.767  14.892  0.00  0.00    +0.000 A 
ATOM      8  N   UNL     1       7.144   5.503  15.858  0.00  0.00    +0.000 NA
ATOM      9  N   UNL     1       6.541   5.027  16.966  0.00  0.00    +0.000 N 
ENDROOT
BRANCH   3  10
ATOM     10  C   UNL     1       4.399   2.983  20.069  0.00  0.00    +0.000 C 
ATOM     11  O   UNL     1       4.981   2.053  20.625  0.00  0.00    +0.000 OA
ATOM     12  N   UNL     1       3.102   3.344  20.426  0.00  0.00    +0.000 N 
ATOM     13  C   UNL     1       2.438   2.744  21.574  0.00  0.00    +0.000 C 
ATOM     14  C   UNL     1       0.954   2.887  21.261  0.00  0.00    +0.000 C 
ATOM     15  C   UNL     1       0.861   4.187  20.484  0.00  0.00    +0.000 C 
ATOM     16  C   UNL     1       2.231   4.352  19.848  0.00  0.00    +0.000 C 
ENDBRANCH   3  10
BRANCH   7  17
ATOM     17  C   UNL     1       7.064   4.891  13.482  0.00  0.00    +0.000 A 
ATOM     18  C   UNL     1       6.735   4.060  12.431  0.00  0.00    +0.000 A 
ATOM     19  C   UNL     1       7.427   4.547  11.294  0.00  0.00    +0.000 A 
ATOM     20  C   UNL     1       8.147   5.637  11.721  0.00  0.00    +0.000 A 
ATOM     21  O   UNL     1       7.921   5.865  13.038  0.00  0.00    +0.000 OA
ENDBRANCH   7  17
BRANCH   1  22
ATOM     22  N   UNL     1       7.742   6.390  18.558  0.00  0.00    +0.000 N 
ATOM     23  H   UNL     1       8.224   6.267  19.445  0.00  0.00    +0.000 HD
ATOM     24  H   UNL     1       7.323   7.322  18.471  0.00  0.00    +0.000 HD
ENDBRANCH   1  22
TORSDOF 3
ENDMDL
