MODEL 1
REMARK VINA RESULT:      -6.7      0.000      0.000
REMARK  Name = 
REMARK  10 active torsions:
REMARK  status: ('A' for Active; 'I' for Inactive)
REMARK    1  A    between atoms: C_1  and  C_2
REMARK    2  A    between atoms: C_2  and  C_3
REMARK    3  A    between atoms: C_2  and  N_4
REMARK    4  A    between atoms: N_4  and  C_5
REMARK    5  A    between atoms: N_4  and  C_6
REMARK    6  A    between atoms: C_10  and  N_11
REMARK    7  A    between atoms: N_11  and  C_12
REMARK    8  A    between atoms: N_11  and  C_13
REMARK    9  A    between atoms: C_13  and  C_14
REMARK   10  A    between atoms: C_13  and  C_15
REMARK                            x       y       z     vdW  Elec       q    Type
REMARK                         _______ _______ _______ _____ _____    ______ ____
ROOT
ATOM      1  C   UNL     1       5.230   4.872  17.322  0.00  0.00    +0.000 C 
ATOM      2  C   UNL     1       4.994   3.596  17.667  0.00  0.00    +0.000 C 
ATOM      3  C   UNL     1       3.701   3.063  18.154  0.00  0.00    +0.000 C 
ATOM      4  O   UNL     1       3.539   1.848  18.230  0.00  0.00    +0.000 OA
ATOM      5  C   UNL     1       2.652   4.053  18.543  0.00  0.00    +0.000 C 
ATOM      6  C   UNL     1       2.838   5.322  18.167  0.00  0.00    +0.000 C 
ATOM      7  C   UNL     1       4.032   5.805  17.446  0.00  0.00    +0.000 C 
ATOM      8  O   UNL     1       3.997   6.947  16.996  0.00  0.00    +0.000 OA
ENDROOT
BRANCH   1   9
ATOM      9  N   UNL     1       6.484   5.369  16.847  0.00  0.00    +0.000 N 
ATOM     10  C   UNL     1       6.986   4.960  15.520  0.00  0.00    +0.000 C 
BRANCH   9  12
ATOM     11  C   UNL     1       7.510   7.531  17.502  0.00  0.00    +0.000 C 
ATOM     12  C   UNL     1       7.484   6.021  17.735  0.00  0.00    +0.000 C 
ATOM     13  C   UNL     1       7.285   5.673  19.214  0.00  0.00    +0.000 C 
ENDBRANCH   9  12
ENDBRANCH   1   9
BRANCH   5  14
ATOM     14  N   UNL     1       1.499   3.636  19.224  0.00  0.00    +0.000 N 
ATOM     15  C   UNL     1       0.663   2.583  18.639  0.00  0.00    +0.000 C 
BRANCH  14  16
ATOM     16  C   UNL     1       1.300   3.852  20.677  0.00  0.00    +0.000 C 
ATOM     17  C   UNL     1       1.530   2.591  21.507  0.00  0.00    +0.000 C 
ATOM     18  C   UNL     1       2.174   4.996  21.197  0.00  0.00    +0.000 C 
ENDBRANCH  14  16
ENDBRANCH   5  14
TORSDOF 4
ENDMDL
MODEL 2
REMARK VINA RESULT:      -6.4      0.258      5.780
REMARK  Name = 
REMARK  10 active torsions:
REMARK  status: ('A' for Active; 'I' for Inactive)
REMARK    1  A    between atoms: C_1  and  C_2
REMARK    2  A    between atoms: C_2  and  C_3
REMARK    3  A    between atoms: C_2  and  N_4
REMARK    4  A    between atoms: N_4  and  C_5
REMARK    5  A    between atoms: N_4  and  C_6
REMARK    6  A    between atoms: C_10  and  N_11
REMARK    7  A    between atoms: N_11  and  C_12
REMARK    8  A    between atoms: N_11  and  C_13
REMARK    9  A    between atoms: C_13  and  C_14
REMARK   10  A    between atoms: C_13  and  C_15
REMARK                            x       y       z     vdW  Elec       q    Type
REMARK                         _______ _______ _______ _____ _____    ______ ____
ROOT
ATOM      1  C   UNL     1       2.750   3.791  18.610  0.00  0.00    +0.000 C 
ATOM      2  C   UNL     1       2.962   5.061  18.231  0.00  0.00    +0.000 C 
ATOM      3  C   UNL     1       4.150   5.551  17.495  0.00  0.00    +0.000 C 
ATOM      4  O   UNL     1       4.137   6.680  17.011  0.00  0.00    +0.000 OA
ATOM      5  C   UNL     1       5.322   4.631  17.390  0.00  0.00    +0.000 C 
ATOM      6  C   UNL     1       5.124   3.349  17.713  0.00  0.00    +0.000 C 
ATOM      7  C   UNL     1       3.844   2.808  18.213  0.00  0.00    +0.000 C 
ATOM      8  O   UNL     1       3.740   1.588  18.294  0.00  0.00    +0.000 OA
ENDROOT
BRANCH   1   9
ATOM      9  N   UNL     1       1.593   3.333  19.315  0.00  0.00    +0.000 N 
ATOM     10  C   UNL     1       0.494   2.672  18.582  0.00  0.00    +0.000 C 
BRANCH   9  12
ATOM     11  C   UNL     1       1.542   2.642  21.697  0.00  0.00    +0.000 C 
ATOM     12  C   UNL     1       1.265   3.767  20.700  0.00  0.00    +0.000 C 
ATOM     13  C   UNL     1       1.966   5.070  21.098  0.00  0.00    +0.000 C 
ENDBRANCH   9  12
ENDBRANCH   1   9
BRANCH   5  14
ATOM     14  N   UNL     1       6.555   5.101  16.916  0.00  0.00    +0.000 N 
ATOM     15  C   UNL     1       6.766   5.225  15.470  0.00  0.00    +0.000 C 
BRANCH  14  16
ATOM     16  C   UNL     1       7.490   5.893  17.751  0.00  0.00    +0.000 C 
ATOM     17  C   UNL     1       7.440   7.389  17.451  0.00  0.00    +0.000 C 
ATOM     18  C   UNL     1       7.257   5.642  19.243  0.00  0.00    +0.000 C 
ENDBRANCH  14  16
ENDBRANCH   5  14
TORSDOF 4
ENDMDL
MODEL 3
REMARK VINA RESULT:      -6.3      1.555      5.912
REMARK  Name = 
REMARK  10 active torsions:
REMARK  status: ('A' for Active; 'I' for Inactive)
REMARK    1  A    between atoms: C_1  and  C_2
REMARK    2  A    between atoms: C_2  and  C_3
REMARK    3  A    between atoms: C_2  and  N_4
REMARK    4  A    between atoms: N_4  and  C_5
REMARK    5  A    between atoms: N_4  and  C_6
REMARK    6  A    between atoms: C_10  and  N_11
REMARK    7  A    between atoms: N_11  and  C_12
REMARK    8  A    between atoms: N_11  and  C_13
REMARK    9  A    between atoms: C_13  and  C_14
REMARK   10  A    between atoms: C_13  and  C_15
REMARK                            x       y       z     vdW  Elec       q    Type
REMARK                         _______ _______ _______ _____ _____    ______ ____
ROOT
ATOM      1  C   UNL     1       3.302   4.830  19.216  0.00  0.00    +0.000 C 
ATOM      2  C   UNL     1       4.558   4.394  19.405  0.00  0.00    +0.000 C 
ATOM      3  C   UNL     1       5.740   4.815  18.619  0.00  0.00    +0.000 C 
ATOM      4  O   UNL     1       6.865   4.522  19.017  0.00  0.00    +0.000 OA
ATOM      5  C   UNL     1       5.493   5.577  17.359  0.00  0.00    +0.000 C 
ATOM      6  C   UNL     1       4.263   6.066  17.170  0.00  0.00    +0.000 C 
ATOM      7  C   UNL     1       3.136   5.853  18.099  0.00  0.00    +0.000 C 
ATOM      8  O   UNL     1       2.114   6.507  17.908  0.00  0.00    +0.000 OA
ENDROOT
BRANCH   1   9
ATOM      9  N   UNL     1       2.171   4.418  19.988  0.00  0.00    +0.000 N 
ATOM     10  C   UNL     1       1.556   5.350  20.955  0.00  0.00    +0.000 C 
BRANCH   9  12
ATOM     11  C   UNL     1       1.373   2.682  21.572  0.00  0.00    +0.000 C 
ATOM     12  C   UNL     1       1.763   2.993  20.127  0.00  0.00    +0.000 C 
ATOM     13  C   UNL     1       0.665   2.588  19.138  0.00  0.00    +0.000 C 
ENDBRANCH   9  12
ENDBRANCH   1   9
BRANCH   5  14
ATOM     14  N   UNL     1       6.536   5.808  16.451  0.00  0.00    +0.000 N 
ATOM     15  C   UNL     1       7.476   6.905  16.703  0.00  0.00    +0.000 C 
BRANCH  14  16
ATOM     16  C   UNL     1       7.027   4.773  15.509  0.00  0.00    +0.000 C 
ATOM     17  C   UNL     1       6.063   3.600  15.350  0.00  0.00    +0.000 C 
ATOM     18  C   UNL     1       7.360   5.376  14.141  0.00  0.00    +0.000 C 
ENDBRANCH  14  16
ENDBRANCH   5  14
TORSDOF 4
ENDMDL
MODEL 4
REMARK VINA RESULT:      -6.2      1.041      1.534
REMARK  Name = 
REMARK  10 active torsions:
REMARK  status: ('A' for Active; 'I' for Inactive)
REMARK    1  A    between atoms: C_1  and  C_2
REMARK    2  A    between atoms: C_2  and  C_3
REMARK    3  A    between atoms: C_2  and  N_4
REMARK    4  A    between atoms: N_4  and  C_5
REMARK    5  A    between atoms: N_4  and  C_6
REMARK    6  A    between atoms: C_10  and  N_11
REMARK    7  A    between atoms: N_11  and  C_12
REMARK    8  A    between atoms: N_11  and  C_13
REMARK    9  A    between atoms: C_13  and  C_14
REMARK   10  A    between atoms: C_13  and  C_15
REMARK                            x       y       z     vdW  Elec       q    Type
REMARK                         _______ _______ _______ _____ _____    ______ ____
ROOT
ATOM      1  C   UNL     1       5.688   5.395  17.718  0.00  0.00    +0.000 C 
ATOM      2  C   UNL     1       5.729   4.294  18.485  0.00  0.00    +0.000 C 
ATOM      3  C   UNL     1       4.591   3.740  19.254  0.00  0.00    +0.000 C 
ATOM      4  O   UNL     1       4.682   2.617  19.742  0.00  0.00    +0.000 OA
ATOM      5  C   UNL     1       3.380   4.601  19.406  0.00  0.00    +0.000 C 
ATOM      6  C   UNL     1       3.290   5.676  18.617  0.00  0.00    +0.000 C 
ATOM      7  C   UNL     1       4.332   6.087  17.655  0.00  0.00    +0.000 C 
ATOM      8  O   UNL     1       4.048   6.980  16.861  0.00  0.00    +0.000 OA
ENDROOT
BRANCH   1   9
ATOM      9  N   UNL     1       6.795   5.913  16.975  0.00  0.00    +0.000 N 
ATOM     10  C   UNL     1       7.159   5.314  15.675  0.00  0.00    +0.000 C 
BRANCH   9  12
ATOM     11  C   UNL     1       7.408   8.275  17.424  0.00  0.00    +0.000 C 
ATOM     12  C   UNL     1       7.820   6.811  17.573  0.00  0.00    +0.000 C 
ATOM     13  C   UNL     1       8.151   6.455  19.026  0.00  0.00    +0.000 C 
ENDBRANCH   9  12
ENDBRANCH   1   9
BRANCH   5  14
ATOM     14  N   UNL     1       2.363   4.246  20.304  0.00  0.00    +0.000 N 
ATOM     15  C   UNL     1       1.508   5.294  20.870  0.00  0.00    +0.000 C 
BRANCH  14  16
ATOM     16  C   UNL     1       1.801   2.876  20.383  0.00  0.00    +0.000 C 
ATOM     17  C   UNL     1       1.326   2.502  21.785  0.00  0.00    +0.000 C 
ATOM     18  C   UNL     1       0.671   2.676  19.369  0.00  0.00    +0.000 C 
ENDBRANCH  14  16
ENDBRANCH   5  14
TORSDOF 4
ENDMDL
MODEL 5
REMARK VINA RESULT:      -6.2      1.749      3.113
REMARK  Name = 
REMARK  10 active torsions:
REMARK  status: ('A' for Active; 'I' for Inactive)
REMARK    1  A    between atoms: C_1  and  C_2
REMARK    2  A    between atoms: C_2  and  C_3
REMARK    3  A    between atoms: C_2  and  N_4
REMARK    4  A    between atoms: N_4  and  C_5
REMARK    5  A    between atoms: N_4  and  C_6
REMARK    6  A    between atoms: C_10  and  N_11
REMARK    7  A    between atoms: N_11  and  C_12
REMARK    8  A    between atoms: N_11  and  C_13
REMARK    9  A    between atoms: C_13  and  C_14
REMARK   10  A    between atoms: C_13  and  C_15
REMARK                            x       y       z     vdW  Elec       q    Type
REMARK                         _______ _______ _______ _____ _____    ______ ____
ROOT
ATOM      1  C   UNL     1       5.502   5.774  17.748  0.00  0.00    +0.000 C 
ATOM      2  C   UNL     1       4.318   6.313  17.415  0.00  0.00    +0.000 C 
ATOM      3  C   UNL     1       3.114   6.340  18.276  0.00  0.00    +0.000 C 
ATOM      4  O   UNL     1       2.161   7.046  17.959  0.00  0.00    +0.000 OA
ATOM      5  C   UNL     1       3.123   5.482  19.499  0.00  0.00    +0.000 C 
ATOM      6  C   UNL     1       4.299   4.975  19.881  0.00  0.00    +0.000 C 
ATOM      7  C   UNL     1       5.564   5.167  19.144  0.00  0.00    +0.000 C 
ATOM      8  O   UNL     1       6.600   4.809  19.696  0.00  0.00    +0.000 OA
ENDROOT
BRANCH   1   9
ATOM      9  N   UNL     1       6.658   5.762  16.906  0.00  0.00    +0.000 N 
ATOM     10  C   UNL     1       7.480   6.980  16.762  0.00  0.00    +0.000 C 
BRANCH   9  12
ATOM     11  C   UNL     1       5.799   3.651  15.925  0.00  0.00    +0.000 C 
ATOM     12  C   UNL     1       6.914   4.696  15.900  0.00  0.00    +0.000 C 
ATOM     13  C   UNL     1       7.148   5.250  14.490  0.00  0.00    +0.000 C 
ENDBRANCH   9  12
ENDBRANCH   1   9
BRANCH   5  14
ATOM     14  N   UNL     1       1.946   5.278  20.233  0.00  0.00    +0.000 N 
ATOM     15  C   UNL     1       1.301   6.422  20.885  0.00  0.00    +0.000 C 
BRANCH  14  16
ATOM     16  C   UNL     1       1.069   4.098  20.036  0.00  0.00    +0.000 C 
ATOM     17  C   UNL     1       1.207   3.473  18.650  0.00  0.00    +0.000 C 
ATOM     18  C   UNL     1       1.301   3.042  21.120  0.00  0.00    +0.000 C 
ENDBRANCH  14  16
ENDBRANCH   5  14
TORSDOF 4
ENDMDL
MODEL 6
REMARK VINA RESULT:      -6.2      1.866      5.798
REMARK  Name = 
REMARK  10 active torsions:
REMARK  status: ('A' for Active; 'I' for Inactive)
REMARK    1  A    between atoms: C_1  and  C_2
REMARK    2  A    between atoms: C_2  and  C_3
REMARK    3  A    between atoms: C_2  and  N_4
REMARK    4  A    between atoms: N_4  and  C_5
REMARK    5  A    between atoms: N_4  and  C_6
REMARK    6  A    between atoms: C_10  and  N_11
REMARK    7  A    between atoms: N_11  and  C_12
REMARK    8  A    between atoms: N_11  and  C_13
REMARK    9  A    between atoms: C_13  and  C_14
REMARK   10  A    between atoms: C_13  and  C_15
REMARK                            x       y       z     vdW  Elec       q    Type
REMARK                         _______ _______ _______ _____ _____    ______ ____
ROOT
ATOM      1  C   UNL     1       2.937   5.788  19.382  0.00  0.00    +0.000 C 
ATOM      2  C   UNL     1       4.128   5.248  19.685  0.00  0.00    +0.000 C 
ATOM      3  C   UNL     1       5.411   5.571  19.020  0.00  0.00    +0.000 C 
ATOM      4  O   UNL     1       6.464   5.183  19.519  0.00  0.00    +0.000 OA
ATOM      5  C   UNL     1       5.350   6.356  17.751  0.00  0.00    +0.000 C 
ATOM      6  C   UNL     1       4.189   6.947  17.452  0.00  0.00    +0.000 C 
ATOM      7  C   UNL     1       2.964   6.825  18.267  0.00  0.00    +0.000 C 
ATOM      8  O   UNL     1       2.023   7.564  17.988  0.00  0.00    +0.000 OA
ENDROOT
BRANCH   1   9
ATOM      9  N   UNL     1       1.707   5.469  20.039  0.00  0.00    +0.000 N 
ATOM     10  C   UNL     1       1.169   6.369  21.079  0.00  0.00    +0.000 C 
BRANCH   9  12
ATOM     11  C   UNL     1       1.326   3.472  18.617  0.00  0.00    +0.000 C 
ATOM     12  C   UNL     1       1.086   4.117  19.981  0.00  0.00    +0.000 C 
ATOM     13  C   UNL     1       1.530   3.207  21.131  0.00  0.00    +0.000 C 
ENDBRANCH   9  12
ENDBRANCH   1   9
BRANCH   5  14
ATOM     14  N   UNL     1       6.491   6.502  16.949  0.00  0.00    +0.000 N 
ATOM     15  C   UNL     1       7.587   7.359  17.412  0.00  0.00    +0.000 C 
BRANCH  14  16
ATOM     16  C   UNL     1       6.868   5.525  15.899  0.00  0.00    +0.000 C 
ATOM     17  C   UNL     1       7.441   4.228  16.464  0.00  0.00    +0.000 C 
ATOM     18  C   UNL     1       5.690   5.224  14.967  0.00  0.00    +0.000 C 
ENDBRANCH  14  16
ENDBRANCH   5  14
TORSDOF 4
ENDMDL
MODEL 7
REMARK VINA RESULT:      -6.1      1.254      5.708
REMARK  Name = 
REMARK  10 active torsions:
REMARK  status: ('A' for Active; 'I' for Inactive)
REMARK    1  A    between atoms: C_1  and  C_2
REMARK    2  A    between atoms: C_2  and  C_3
REMARK    3  A    between atoms: C_2  and  N_4
REMARK    4  A    between atoms: N_4  and  C_5
REMARK    5  A    between atoms: N_4  and  C_6
REMARK    6  A    between atoms: C_10  and  N_11
REMARK    7  A    between atoms: N_11  and  C_12
REMARK    8  A    between atoms: N_11  and  C_13
REMARK    9  A    between atoms: C_13  and  C_14
REMARK   10  A    between atoms: C_13  and  C_15
REMARK                            x       y       z     vdW  Elec       q    Type
REMARK                         _______ _______ _______ _____ _____    ______ ____
ROOT
ATOM      1  C   UNL     1       3.071   3.386  18.678  0.00  0.00    +0.000 C 
ATOM      2  C   UNL     1       3.138   3.914  17.445  0.00  0.00    +0.000 C 
ATOM      3  C   UNL     1       4.380   4.331  16.756  0.00  0.00    +0.000 C 
ATOM      4  O   UNL     1       4.346   4.595  15.557  0.00  0.00    +0.000 OA
ATOM      5  C   UNL     1       5.625   4.421  17.577  0.00  0.00    +0.000 C 
ATOM      6  C   UNL     1       5.601   3.859  18.789  0.00  0.00    +0.000 C 
ATOM      7  C   UNL     1       4.412   3.209  19.377  0.00  0.00    +0.000 C 
ATOM      8  O   UNL     1       4.572   2.570  20.413  0.00  0.00    +0.000 OA
ENDROOT
BRANCH   1   9
ATOM      9  N   UNL     1       1.862   2.981  19.326  0.00  0.00    +0.000 N 
ATOM     10  C   UNL     1       0.931   2.059  18.646  0.00  0.00    +0.000 C 
BRANCH   9  12
ATOM     11  C   UNL     1       1.497   2.836  21.776  0.00  0.00    +0.000 C 
ATOM     12  C   UNL     1       1.310   3.682  20.517  0.00  0.00    +0.000 C 
ATOM     13  C   UNL     1       1.872   5.097  20.691  0.00  0.00    +0.000 C 
ENDBRANCH   9  12
ENDBRANCH   1   9
BRANCH   5  14
ATOM     14  N   UNL     1       6.778   5.025  17.056  0.00  0.00    +0.000 N 
ATOM     15  C   UNL     1       7.424   4.438  15.877  0.00  0.00    +0.000 C 
BRANCH  14  16
ATOM     16  C   UNL     1       7.137   6.440  17.321  0.00  0.00    +0.000 C 
ATOM     17  C   UNL     1       5.927   7.371  17.339  0.00  0.00    +0.000 C 
ATOM     18  C   UNL     1       7.935   6.580  18.620  0.00  0.00    +0.000 C 
ENDBRANCH  14  16
ENDBRANCH   5  14
TORSDOF 4
ENDMDL
MODEL 8
REMARK VINA RESULT:      -6.1      1.093      5.849
REMARK  Name = 
REMARK  10 active torsions:
REMARK  status: ('A' for Active; 'I' for Inactive)
REMARK    1  A    between atoms: C_1  and  C_2
REMARK    2  A    between atoms: C_2  and  C_3
REMARK    3  A    between atoms: C_2  and  N_4
REMARK    4  A    between atoms: N_4  and  C_5
REMARK    5  A    between atoms: N_4  and  C_6
REMARK    6  A    between atoms: C_10  and  N_11
REMARK    7  A    between atoms: N_11  and  C_12
REMARK    8  A    between atoms: N_11  and  C_13
REMARK    9  A    between atoms: C_13  and  C_14
REMARK   10  A    between atoms: C_13  and  C_15
REMARK                            x       y       z     vdW  Elec       q    Type
REMARK                         _______ _______ _______ _____ _____    ______ ____
ROOT
ATOM      1  C   UNL     1       2.909   3.461  18.846  0.00  0.00    +0.000 C 
ATOM      2  C   UNL     1       3.048   4.266  17.780  0.00  0.00    +0.000 C 
ATOM      3  C   UNL     1       4.335   4.738  17.222  0.00  0.00    +0.000 C 
ATOM      4  O   UNL     1       4.352   5.288  16.124  0.00  0.00    +0.000 OA
ATOM      5  C   UNL     1       5.562   4.525  18.047  0.00  0.00    +0.000 C 
ATOM      6  C   UNL     1       5.464   3.688  19.084  0.00  0.00    +0.000 C 
ATOM      7  C   UNL     1       4.215   3.012  19.488  0.00  0.00    +0.000 C 
ATOM      8  O   UNL     1       4.300   2.129  20.337  0.00  0.00    +0.000 OA
ENDROOT
BRANCH   1   9
ATOM      9  N   UNL     1       1.657   3.009  19.369  0.00  0.00    +0.000 N 
ATOM     10  C   UNL     1       0.769   2.170  18.539  0.00  0.00    +0.000 C 
BRANCH   9  12
ATOM     11  C   UNL     1       1.315   2.730  21.810  0.00  0.00    +0.000 C 
ATOM     12  C   UNL     1       1.029   3.596  20.584  0.00  0.00    +0.000 C 
ATOM     13  C   UNL     1       1.423   5.059  20.812  0.00  0.00    +0.000 C 
ENDBRANCH   9  12
ENDBRANCH   1   9
BRANCH   5  14
ATOM     14  N   UNL     1       6.771   5.143  17.697  0.00  0.00    +0.000 N 
ATOM     15  C   UNL     1       7.410   4.796  16.423  0.00  0.00    +0.000 C 
BRANCH  14  16
ATOM     16  C   UNL     1       7.221   6.426  18.288  0.00  0.00    +0.000 C 
ATOM     17  C   UNL     1       8.313   6.251  19.340  0.00  0.00    +0.000 C 
ATOM     18  C   UNL     1       7.677   7.410  17.208  0.00  0.00    +0.000 C 
ENDBRANCH  14  16
ENDBRANCH   5  14
TORSDOF 4
ENDMDL
MODEL 9
REMARK VINA RESULT:      -6.1      1.186      2.061
REMARK  Name = 
REMARK  10 active torsions:
REMARK  status: ('A' for Active; 'I' for Inactive)
REMARK    1  A    between atoms: C_1  and  C_2
REMARK    2  A    between atoms: C_2  and  C_3
REMARK    3  A    between atoms: C_2  and  N_4
REMARK    4  A    between atoms: N_4  and  C_5
REMARK    5  A    between atoms: N_4  and  C_6
REMARK    6  A    between atoms: C_10  and  N_11
REMARK    7  A    between atoms: N_11  and  C_12
REMARK    8  A    between atoms: N_11  and  C_13
REMARK    9  A    between atoms: C_13  and  C_14
REMARK   10  A    between atoms: C_13  and  C_15
REMARK                            x       y       z     vdW  Elec       q    Type
REMARK                         _______ _______ _______ _____ _____    ______ ____
ROOT
ATOM      1  C   UNL     1       5.405   5.641  17.466  0.00  0.00    +0.000 C 
ATOM      2  C   UNL     1       4.262   6.339  17.366  0.00  0.00    +0.000 C 
ATOM      3  C   UNL     1       2.980   5.983  18.014  0.00  0.00    +0.000 C 
ATOM      4  O   UNL     1       2.065   6.803  18.033  0.00  0.00    +0.000 OA
ATOM      5  C   UNL     1       2.865   4.619  18.610  0.00  0.00    +0.000 C 
ATOM      6  C   UNL     1       3.995   3.923  18.769  0.00  0.00    +0.000 C 
ATOM      7  C   UNL     1       5.327   4.399  18.344  0.00  0.00    +0.000 C 
ATOM      8  O   UNL     1       6.302   3.751  18.713  0.00  0.00    +0.000 OA
ENDROOT
BRANCH   1   9
ATOM      9  N   UNL     1       6.638   6.002  16.838  0.00  0.00    +0.000 N 
ATOM     10  C   UNL     1       7.083   5.294  15.621  0.00  0.00    +0.000 C 
BRANCH   9  12
ATOM     11  C   UNL     1       7.305   8.309  17.463  0.00  0.00    +0.000 C 
ATOM     12  C   UNL     1       7.677   6.828  17.512  0.00  0.00    +0.000 C 
ATOM     13  C   UNL     1       7.977   6.361  18.941  0.00  0.00    +0.000 C 
ENDBRANCH   9  12
ENDBRANCH   1   9
BRANCH   5  14
ATOM     14  N   UNL     1       1.620   4.129  19.033  0.00  0.00    +0.000 N 
ATOM     15  C   UNL     1       0.978   3.053  18.272  0.00  0.00    +0.000 C 
BRANCH  14  16
ATOM     16  C   UNL     1       1.117   4.298  20.417  0.00  0.00    +0.000 C 
ATOM     17  C   UNL     1       1.367   3.077  21.299  0.00  0.00    +0.000 C 
ATOM     18  C   UNL     1       1.695   5.555  21.073  0.00  0.00    +0.000 C 
ENDBRANCH  14  16
ENDBRANCH   5  14
TORSDOF 4
ENDMDL
