MODEL 1
REMARK VINA RESULT:      -7.6      0.000      0.000
REMARK  Name = 
REMARK  5 active torsions:
REMARK  status: ('A' for Active; 'I' for Inactive)
REMARK    1  A    between atoms: C_1  and  C_2
REMARK    2  A    between atoms: CA_7  and  C_8
REMARK    3  A    between atoms: C_8  and  OXT_10
REMARK    4  A    between atoms: C_11  and  C_12
REMARK    5  A    between atoms: C_12  and  O_14
REMARK                            x       y       z     vdW  Elec       q    Type
REMARK                         _______ _______ _______ _____ _____    ______ ____
ROOT
ATOM      1  C   UNL     1       1.480   2.644  21.463  0.00  0.00    +0.000 C 
ATOM      2  C   UNL     1       2.173   2.937  20.165  0.00  0.00    +0.000 A 
ATOM      3  C   UNL     1       1.571   2.646  18.942  0.00  0.00    +0.000 A 
ATOM      4  C   UNL     1       2.220   2.975  17.750  0.00  0.00    +0.000 A 
ATOM      5  C   UNL     1       3.484   3.551  17.745  0.00  0.00    +0.000 A 
ATOM      6  N   UNL     1       4.078   3.855  16.570  0.00  0.00    +0.000 NA
ATOM      7  CA  UNL     1       5.365   4.332  16.634  0.00  0.00    +0.000 A 
ATOM      8  C   UNL     1       6.029   4.482  17.857  0.00  0.00    +0.000 A 
ATOM      9  N   UNL     1       5.396   4.253  19.050  0.00  0.00    +0.000 NA
ATOM     10  C   UNL     1       4.127   3.797  18.985  0.00  0.00    +0.000 A 
ATOM     11  C   UNL     1       3.444   3.525  20.164  0.00  0.00    +0.000 A 
ENDROOT
BRANCH   7  12
ATOM     12  C   UNL     1       5.961   4.606  15.281  0.00  0.00    +0.000 C 
ATOM     13  O   UNL     1       6.191   5.718  14.883  0.00  0.00    +0.000 OA
BRANCH  12  14
ATOM     14  OXT UNL     1       6.326   3.513  14.547  0.00  0.00    +0.000 OA
ATOM     15  HXT UNL     1       6.479   3.621  13.586  0.00  0.00    +0.000 HD
ENDBRANCH  12  14
ENDBRANCH   7  12
BRANCH   8  16
ATOM     16  C   UNL     1       7.462   4.915  18.027  0.00  0.00    +0.000 C 
ATOM     17  O   UNL     1       7.773   5.989  18.461  0.00  0.00    +0.000 OA
BRANCH  16  18
ATOM     18  O   UNL     1       8.422   3.988  17.730  0.00  0.00    +0.000 OA
ATOM     19  H   UNL     1       8.729   3.895  16.806  0.00  0.00    +0.000 HD
ENDBRANCH  16  18
ENDBRANCH   8  16
TORSDOF 4
ENDMDL
MODEL 2
REMARK VINA RESULT:      -7.5      0.777      1.107
REMARK  Name = 
REMARK  5 active torsions:
REMARK  status: ('A' for Active; 'I' for Inactive)
REMARK    1  A    between atoms: C_1  and  C_2
REMARK    2  A    between atoms: CA_7  and  C_8
REMARK    3  A    between atoms: C_8  and  OXT_10
REMARK    4  A    between atoms: C_11  and  C_12
REMARK    5  A    between atoms: C_12  and  O_14
REMARK                            x       y       z     vdW  Elec       q    Type
REMARK                         _______ _______ _______ _____ _____    ______ ____
ROOT
ATOM      1  C   UNL     1       1.438   2.561  21.662  0.00  0.00    +0.000 C 
ATOM      2  C   UNL     1       2.042   3.117  20.405  0.00  0.00    +0.000 A 
ATOM      3  C   UNL     1       1.269   3.335  19.267  0.00  0.00    +0.000 A 
ATOM      4  C   UNL     1       1.850   3.900  18.129  0.00  0.00    +0.000 A 
ATOM      5  C   UNL     1       3.202   4.214  18.081  0.00  0.00    +0.000 A 
ATOM      6  N   UNL     1       3.726   4.759  16.961  0.00  0.00    +0.000 NA
ATOM      7  CA  UNL     1       5.086   4.955  16.947  0.00  0.00    +0.000 A 
ATOM      8  C   UNL     1       5.888   4.593  18.036  0.00  0.00    +0.000 A 
ATOM      9  N   UNL     1       5.345   4.119  19.201  0.00  0.00    +0.000 NA
ATOM     10  C   UNL     1       4.006   3.940  19.217  0.00  0.00    +0.000 A 
ATOM     11  C   UNL     1       3.405   3.439  20.364  0.00  0.00    +0.000 A 
ENDROOT
BRANCH   7  12
ATOM     12  C   UNL     1       5.586   5.528  15.650  0.00  0.00    +0.000 C 
ATOM     13  O   UNL     1       6.139   4.863  14.813  0.00  0.00    +0.000 OA
BRANCH  12  14
ATOM     14  OXT UNL     1       5.297   6.842  15.416  0.00  0.00    +0.000 OA
ATOM     15  HXT UNL     1       5.953   7.392  14.942  0.00  0.00    +0.000 HD
ENDBRANCH  12  14
ENDBRANCH   7  12
BRANCH   8  16
ATOM     16  C   UNL     1       7.390   4.689  18.085  0.00  0.00    +0.000 C 
ATOM     17  O   UNL     1       7.983   5.208  18.990  0.00  0.00    +0.000 OA
BRANCH  16  18
ATOM     18  O   UNL     1       8.077   4.081  17.071  0.00  0.00    +0.000 OA
ATOM     19  H   UNL     1       7.654   3.348  16.578  0.00  0.00    +0.000 HD
ENDBRANCH  16  18
ENDBRANCH   8  16
TORSDOF 4
ENDMDL
MODEL 3
REMARK VINA RESULT:      -7.5      1.262      1.594
REMARK  Name = 
REMARK  5 active torsions:
REMARK  status: ('A' for Active; 'I' for Inactive)
REMARK    1  A    between atoms: C_1  and  C_2
REMARK    2  A    between atoms: CA_7  and  C_8
REMARK    3  A    between atoms: C_8  and  OXT_10
REMARK    4  A    between atoms: C_11  and  C_12
REMARK    5  A    between atoms: C_12  and  O_14
REMARK                            x       y       z     vdW  Elec       q    Type
REMARK                         _______ _______ _______ _____ _____    ______ ____
ROOT
ATOM      1  C   UNL     1       0.976   3.158  20.705  0.00  0.00    +0.000 C 
ATOM      2  C   UNL     1       2.050   3.459  19.701  0.00  0.00    +0.000 A 
ATOM      3  C   UNL     1       1.930   3.056  18.372  0.00  0.00    +0.000 A 
ATOM      4  C   UNL     1       2.924   3.394  17.450  0.00  0.00    +0.000 A 
ATOM      5  C   UNL     1       4.065   4.089  17.831  0.00  0.00    +0.000 A 
ATOM      6  N   UNL     1       5.003   4.396  16.908  0.00  0.00    +0.000 NA
ATOM      7  CA  UNL     1       6.149   4.999  17.370  0.00  0.00    +0.000 A 
ATOM      8  C   UNL     1       6.337   5.266  18.731  0.00  0.00    +0.000 A 
ATOM      9  N   UNL     1       5.350   5.030  19.652  0.00  0.00    +0.000 NA
ATOM     10  C   UNL     1       4.220   4.451  19.194  0.00  0.00    +0.000 A 
ATOM     11  C   UNL     1       3.195   4.166  20.088  0.00  0.00    +0.000 A 
ENDROOT
BRANCH   7  12
ATOM     12  C   UNL     1       7.152   5.269  16.283  0.00  0.00    +0.000 C 
ATOM     13  O   UNL     1       7.503   4.430  15.496  0.00  0.00    +0.000 OA
BRANCH  12  14
ATOM     14  OXT UNL     1       7.586   6.559  16.166  0.00  0.00    +0.000 OA
ATOM     15  HXT UNL     1       7.623   7.118  16.969  0.00  0.00    +0.000 HD
ENDBRANCH  12  14
ENDBRANCH   7  12
BRANCH   8  16
ATOM     16  C   UNL     1       7.586   5.844  19.344  0.00  0.00    +0.000 C 
ATOM     17  O   UNL     1       8.165   6.787  18.881  0.00  0.00    +0.000 OA
BRANCH  16  18
ATOM     18  O   UNL     1       8.005   5.287  20.521  0.00  0.00    +0.000 OA
ATOM     19  H   UNL     1       7.957   4.316  20.635  0.00  0.00    +0.000 HD
ENDBRANCH  16  18
ENDBRANCH   8  16
TORSDOF 4
ENDMDL
MODEL 4
REMARK VINA RESULT:      -7.2      4.163      5.365
REMARK  Name = 
REMARK  5 active torsions:
REMARK  status: ('A' for Active; 'I' for Inactive)
REMARK    1  A    between atoms: C_1  and  C_2
REMARK    2  A    between atoms: CA_7  and  C_8
REMARK    3  A    between atoms: C_8  and  OXT_10
REMARK    4  A    between atoms: C_11  and  C_12
REMARK    5  A    between atoms: C_12  and  O_14
REMARK                            x       y       z     vdW  Elec       q    Type
REMARK                         _______ _______ _______ _____ _____    ______ ____
ROOT
ATOM      1  C   UNL     1       2.136   9.447  17.873  0.00  0.00    +0.000 C 
ATOM      2  C   UNL     1       2.711   8.072  18.048  0.00  0.00    +0.000 A 
ATOM      3  C   UNL     1       3.720   7.599  17.211  0.00  0.00    +0.000 A 
ATOM      4  C   UNL     1       4.269   6.333  17.429  0.00  0.00    +0.000 A 
ATOM      5  C   UNL     1       3.805   5.502  18.441  0.00  0.00    +0.000 A 
ATOM      6  N   UNL     1       4.363   4.285  18.619  0.00  0.00    +0.000 NA
ATOM      7  CA  UNL     1       3.792   3.477  19.573  0.00  0.00    +0.000 A 
ATOM      8  C   UNL     1       2.679   3.894  20.312  0.00  0.00    +0.000 A 
ATOM      9  N   UNL     1       2.168   5.159  20.188  0.00  0.00    +0.000 NA
ATOM     10  C   UNL     1       2.739   5.956  19.260  0.00  0.00    +0.000 A 
ATOM     11  C   UNL     1       2.245   7.240  19.074  0.00  0.00    +0.000 A 
ENDROOT
BRANCH   7  12
ATOM     12  C   UNL     1       4.451   2.130  19.676  0.00  0.00    +0.000 C 
ATOM     13  O   UNL     1       5.152   1.816  20.603  0.00  0.00    +0.000 OA
BRANCH  12  14
ATOM     14  OXT UNL     1       4.138   1.225  18.702  0.00  0.00    +0.000 OA
ATOM     15  HXT UNL     1       4.498   1.360  17.801  0.00  0.00    +0.000 HD
ENDBRANCH  12  14
ENDBRANCH   7  12
BRANCH   8  16
ATOM     16  C   UNL     1       1.933   3.055  21.316  0.00  0.00    +0.000 C 
ATOM     17  O   UNL     1       2.423   2.672  22.342  0.00  0.00    +0.000 OA
BRANCH  16  18
ATOM     18  O   UNL     1       0.616   2.801  21.045  0.00  0.00    +0.000 OA
ATOM     19  H   UNL     1       0.182   3.264  20.301  0.00  0.00    +0.000 HD
ENDBRANCH  16  18
ENDBRANCH   8  16
TORSDOF 4
ENDMDL
MODEL 5
REMARK VINA RESULT:      -7.2      0.913      1.123
REMARK  Name = 
REMARK  5 active torsions:
REMARK  status: ('A' for Active; 'I' for Inactive)
REMARK    1  A    between atoms: C_1  and  C_2
REMARK    2  A    between atoms: CA_7  and  C_8
REMARK    3  A    between atoms: C_8  and  OXT_10
REMARK    4  A    between atoms: C_11  and  C_12
REMARK    5  A    between atoms: C_12  and  O_14
REMARK                            x       y       z     vdW  Elec       q    Type
REMARK                         _______ _______ _______ _____ _____    ______ ____
ROOT
ATOM      1  C   UNL     1       0.896   3.734  20.673  0.00  0.00    +0.000 C 
ATOM      2  C   UNL     1       1.872   3.794  19.534  0.00  0.00    +0.000 A 
ATOM      3  C   UNL     1       1.566   3.247  18.290  0.00  0.00    +0.000 A 
ATOM      4  C   UNL     1       2.475   3.361  17.236  0.00  0.00    +0.000 A 
ATOM      5  C   UNL     1       3.711   3.974  17.403  0.00  0.00    +0.000 A 
ATOM      6  N   UNL     1       4.562   4.064  16.359  0.00  0.00    +0.000 NA
ATOM      7  CA  UNL     1       5.804   4.594  16.618  0.00  0.00    +0.000 A 
ATOM      8  C   UNL     1       6.169   5.005  17.905  0.00  0.00    +0.000 A 
ATOM      9  N   UNL     1       5.276   4.989  18.944  0.00  0.00    +0.000 NA
ATOM     10  C   UNL     1       4.052   4.481  18.684  0.00  0.00    +0.000 A 
ATOM     11  C   UNL     1       3.114   4.418  19.706  0.00  0.00    +0.000 A 
ENDROOT
BRANCH   7  12
ATOM     12  C   UNL     1       6.698   4.621  15.409  0.00  0.00    +0.000 C 
ATOM     13  O   UNL     1       7.559   5.446  15.254  0.00  0.00    +0.000 OA
BRANCH  12  14
ATOM     14  OXT UNL     1       6.550   3.593  14.523  0.00  0.00    +0.000 OA
ATOM     15  HXT UNL     1       7.349   3.215  14.102  0.00  0.00    +0.000 HD
ENDBRANCH  12  14
ENDBRANCH   7  12
BRANCH   8  16
ATOM     16  C   UNL     1       7.527   5.517  18.307  0.00  0.00    +0.000 C 
ATOM     17  O   UNL     1       8.351   4.833  18.849  0.00  0.00    +0.000 OA
BRANCH  16  18
ATOM     18  O   UNL     1       7.826   6.805  17.955  0.00  0.00    +0.000 OA
ATOM     19  H   UNL     1       8.727   7.018  17.641  0.00  0.00    +0.000 HD
ENDBRANCH  16  18
ENDBRANCH   8  16
TORSDOF 4
ENDMDL
MODEL 6
REMARK VINA RESULT:      -7.1      1.420      1.761
REMARK  Name = 
REMARK  5 active torsions:
REMARK  status: ('A' for Active; 'I' for Inactive)
REMARK    1  A    between atoms: C_1  and  C_2
REMARK    2  A    between atoms: CA_7  and  C_8
REMARK    3  A    between atoms: C_8  and  OXT_10
REMARK    4  A    between atoms: C_11  and  C_12
REMARK    5  A    between atoms: C_12  and  O_14
REMARK                            x       y       z     vdW  Elec       q    Type
REMARK                         _______ _______ _______ _____ _____    ______ ____
ROOT
ATOM      1  C   UNL     1       1.440   2.528  21.407  0.00  0.00    +0.000 C 
ATOM      2  C   UNL     1       2.100   3.345  20.335  0.00  0.00    +0.000 A 
ATOM      3  C   UNL     1       1.356   3.939  19.317  0.00  0.00    +0.000 A 
ATOM      4  C   UNL     1       1.993   4.734  18.362  0.00  0.00    +0.000 A 
ATOM      5  C   UNL     1       3.370   4.918  18.368  0.00  0.00    +0.000 A 
ATOM      6  N   UNL     1       3.948   5.695  17.426  0.00  0.00    +0.000 NA
ATOM      7  CA  UNL     1       5.321   5.755  17.433  0.00  0.00    +0.000 A 
ATOM      8  C   UNL     1       6.080   5.035  18.363  0.00  0.00    +0.000 A 
ATOM      9  N   UNL     1       5.489   4.315  19.368  0.00  0.00    +0.000 NA
ATOM     10  C   UNL     1       4.140   4.268  19.368  0.00  0.00    +0.000 A 
ATOM     11  C   UNL     1       3.488   3.533  20.349  0.00  0.00    +0.000 A 
ENDROOT
BRANCH   7  12
ATOM     12  C   UNL     1       5.879   6.609  16.329  0.00  0.00    +0.000 C 
ATOM     13  O   UNL     1       5.416   6.625  15.219  0.00  0.00    +0.000 OA
BRANCH  12  14
ATOM     14  OXT UNL     1       6.896   7.455  16.672  0.00  0.00    +0.000 OA
ATOM     15  HXT UNL     1       7.791   7.084  16.808  0.00  0.00    +0.000 HD
ENDBRANCH  12  14
ENDBRANCH   7  12
BRANCH   8  16
ATOM     16  C   UNL     1       7.584   4.969  18.400  0.00  0.00    +0.000 C 
ATOM     17  O   UNL     1       8.220   4.174  17.763  0.00  0.00    +0.000 OA
BRANCH  16  18
ATOM     18  O   UNL     1       8.221   5.921  19.146  0.00  0.00    +0.000 OA
ATOM     19  H   UNL     1       8.915   6.472  18.729  0.00  0.00    +0.000 HD
ENDBRANCH  16  18
ENDBRANCH   8  16
TORSDOF 4
ENDMDL
MODEL 7
REMARK VINA RESULT:      -7.0      2.777      5.440
REMARK  Name = 
REMARK  5 active torsions:
REMARK  status: ('A' for Active; 'I' for Inactive)
REMARK    1  A    between atoms: C_1  and  C_2
REMARK    2  A    between atoms: CA_7  and  C_8
REMARK    3  A    between atoms: C_8  and  OXT_10
REMARK    4  A    between atoms: C_11  and  C_12
REMARK    5  A    between atoms: C_12  and  O_14
REMARK                            x       y       z     vdW  Elec       q    Type
REMARK                         _______ _______ _______ _____ _____    ______ ____
ROOT
ATOM      1  C   UNL     1       4.964   3.022  11.468  0.00  0.00    +0.000 C 
ATOM      2  C   UNL     1       5.652   3.663  12.638  0.00  0.00    +0.000 A 
ATOM      3  C   UNL     1       6.893   4.282  12.497  0.00  0.00    +0.000 A 
ATOM      4  C   UNL     1       7.485   4.912  13.594  0.00  0.00    +0.000 A 
ATOM      5  C   UNL     1       6.889   4.902  14.848  0.00  0.00    +0.000 A 
ATOM      6  N   UNL     1       7.495   5.523  15.884  0.00  0.00    +0.000 NA
ATOM      7  CA  UNL     1       6.901   5.392  17.116  0.00  0.00    +0.000 A 
ATOM      8  C   UNL     1       5.733   4.639  17.288  0.00  0.00    +0.000 A 
ATOM      9  N   UNL     1       5.076   4.081  16.223  0.00  0.00    +0.000 NA
ATOM     10  C   UNL     1       5.654   4.223  15.011  0.00  0.00    +0.000 A 
ATOM     11  C   UNL     1       5.045   3.656  13.900  0.00  0.00    +0.000 A 
ENDROOT
BRANCH   7  12
ATOM     12  C   UNL     1       7.661   6.081  18.215  0.00  0.00    +0.000 C 
ATOM     13  O   UNL     1       7.862   7.267  18.224  0.00  0.00    +0.000 OA
BRANCH  12  14
ATOM     14  OXT UNL     1       8.041   5.301  19.271  0.00  0.00    +0.000 OA
ATOM     15  HXT UNL     1       8.694   5.656  19.908  0.00  0.00    +0.000 HD
ENDBRANCH  12  14
ENDBRANCH   7  12
BRANCH   8  16
ATOM     16  C   UNL     1       5.054   4.367  18.605  0.00  0.00    +0.000 C 
ATOM     17  O   UNL     1       4.078   4.960  18.973  0.00  0.00    +0.000 OA
BRANCH  16  18
ATOM     18  O   UNL     1       5.559   3.340  19.354  0.00  0.00    +0.000 OA
ATOM     19  H   UNL     1       5.219   2.433  19.213  0.00  0.00    +0.000 HD
ENDBRANCH  16  18
ENDBRANCH   8  16
TORSDOF 4
ENDMDL
MODEL 8
REMARK VINA RESULT:      -7.0      1.239      3.065
REMARK  Name = 
REMARK  5 active torsions:
REMARK  status: ('A' for Active; 'I' for Inactive)
REMARK    1  A    between atoms: C_1  and  C_2
REMARK    2  A    between atoms: CA_7  and  C_8
REMARK    3  A    between atoms: C_8  and  OXT_10
REMARK    4  A    between atoms: C_11  and  C_12
REMARK    5  A    between atoms: C_12  and  O_14
REMARK                            x       y       z     vdW  Elec       q    Type
REMARK                         _______ _______ _______ _____ _____    ______ ____
ROOT
ATOM      1  C   UNL     1       0.454   2.725  18.670  0.00  0.00    +0.000 C 
ATOM      2  C   UNL     1       1.764   3.413  18.916  0.00  0.00    +0.000 A 
ATOM      3  C   UNL     1       2.050   4.006  20.145  0.00  0.00    +0.000 A 
ATOM      4  C   UNL     1       3.297   4.596  20.360  0.00  0.00    +0.000 A 
ATOM      5  C   UNL     1       4.259   4.650  19.359  0.00  0.00    +0.000 A 
ATOM      6  N   UNL     1       5.454   5.230  19.608  0.00  0.00    +0.000 NA
ATOM      7  CA  UNL     1       6.322   5.336  18.547  0.00  0.00    +0.000 A 
ATOM      8  C   UNL     1       5.975   4.876  17.271  0.00  0.00    +0.000 A 
ATOM      9  N   UNL     1       4.798   4.214  17.041  0.00  0.00    +0.000 NA
ATOM     10  C   UNL     1       3.953   4.099  18.088  0.00  0.00    +0.000 A 
ATOM     11  C   UNL     1       2.734   3.459  17.907  0.00  0.00    +0.000 A 
ENDROOT
BRANCH   7  12
ATOM     12  C   UNL     1       7.608   6.027  18.904  0.00  0.00    +0.000 C 
ATOM     13  O   UNL     1       7.958   7.058  18.392  0.00  0.00    +0.000 OA
BRANCH  12  14
ATOM     14  OXT UNL     1       8.331   5.474  19.922  0.00  0.00    +0.000 OA
ATOM     15  HXT UNL     1       7.894   4.829  20.514  0.00  0.00    +0.000 HD
ENDBRANCH  12  14
ENDBRANCH   7  12
BRANCH   8  16
ATOM     16  C   UNL     1       6.819   5.021  16.031  0.00  0.00    +0.000 C 
ATOM     17  O   UNL     1       7.874   4.468  15.890  0.00  0.00    +0.000 OA
BRANCH  16  18
ATOM     18  O   UNL     1       6.290   5.766  15.013  0.00  0.00    +0.000 OA
ATOM     19  H   UNL     1       6.218   5.373  14.120  0.00  0.00    +0.000 HD
ENDBRANCH  16  18
ENDBRANCH   8  16
TORSDOF 4
ENDMDL
MODEL 9
REMARK VINA RESULT:      -7.0      2.771      5.401
REMARK  Name = 
REMARK  5 active torsions:
REMARK  status: ('A' for Active; 'I' for Inactive)
REMARK    1  A    between atoms: C_1  and  C_2
REMARK    2  A    between atoms: CA_7  and  C_8
REMARK    3  A    between atoms: C_8  and  OXT_10
REMARK    4  A    between atoms: C_11  and  C_12
REMARK    5  A    between atoms: C_12  and  O_14
REMARK                            x       y       z     vdW  Elec       q    Type
REMARK                         _______ _______ _______ _____ _____    ______ ____
ROOT
ATOM      1  C   UNL     1       5.280   3.262  11.958  0.00  0.00    +0.000 C 
ATOM      2  C   UNL     1       5.889   3.830  13.207  0.00  0.00    +0.000 A 
ATOM      3  C   UNL     1       7.114   4.492  13.178  0.00  0.00    +0.000 A 
ATOM      4  C   UNL     1       7.631   5.053  14.348  0.00  0.00    +0.000 A 
ATOM      5  C   UNL     1       6.974   4.931  15.566  0.00  0.00    +0.000 A 
ATOM      6  N   UNL     1       7.508   5.488  16.675  0.00  0.00    +0.000 NA
ATOM      7  CA  UNL     1       6.857   5.247  17.861  0.00  0.00    +0.000 A 
ATOM      8  C   UNL     1       5.706   4.452  17.915  0.00  0.00    +0.000 A 
ATOM      9  N   UNL     1       5.121   3.958  16.779  0.00  0.00    +0.000 NA
ATOM     10  C   UNL     1       5.754   4.208  15.613  0.00  0.00    +0.000 A 
ATOM     11  C   UNL     1       5.219   3.711  14.432  0.00  0.00    +0.000 A 
ENDROOT
BRANCH   7  12
ATOM     12  C   UNL     1       7.539   5.871  19.046  0.00  0.00    +0.000 C 
ATOM     13  O   UNL     1       7.526   5.375  20.142  0.00  0.00    +0.000 OA
BRANCH  12  14
ATOM     14  OXT UNL     1       8.270   6.999  18.800  0.00  0.00    +0.000 OA
ATOM     15  HXT UNL     1       7.800   7.849  18.680  0.00  0.00    +0.000 HD
ENDBRANCH  12  14
ENDBRANCH   7  12
BRANCH   8  16
ATOM     16  C   UNL     1       4.971   4.061  19.171  0.00  0.00    +0.000 C 
ATOM     17  O   UNL     1       4.155   4.766  19.697  0.00  0.00    +0.000 OA
BRANCH  16  18
ATOM     18  O   UNL     1       5.219   2.810  19.662  0.00  0.00    +0.000 OA
ATOM     19  H   UNL     1       6.086   2.390  19.489  0.00  0.00    +0.000 HD
ENDBRANCH  16  18
ENDBRANCH   8  16
TORSDOF 4
ENDMDL
