MODEL 1
REMARK VINA RESULT:      -9.0      0.000      0.000
REMARK  Name = 
REMARK  14 active torsions:
REMARK  status: ('A' for Active; 'I' for Inactive)
REMARK    1  A    between atoms: C_1  and  O_2
REMARK    2  A    between atoms: O_2  and  C_3
REMARK    3  A    between atoms: C_5  and  C_6
REMARK    4  A    between atoms: C_6  and  N_7
REMARK    5  A    between atoms: N_7  and  C_8
REMARK    6  A    between atoms: C_8  and  C_9
REMARK    7  A    between atoms: C_9  and  C_10
REMARK    8  A    between atoms: C_16  and  C_18
REMARK    9  A    between atoms: C_18  and  N_19
REMARK   10  A    between atoms: C_18  and  C_20
REMARK   11  A    between atoms: C_20  and  C_21
REMARK   12  A    between atoms: C_29  and  O_30
REMARK   13  A    between atoms: O_30  and  C_31
REMARK   14  A    between atoms: C_31  and  C_32
REMARK                            x       y       z     vdW  Elec       q    Type
REMARK                         _______ _______ _______ _____ _____    ______ ____
ROOT
ATOM      1  N   UNL     1       4.398   5.796  17.776  0.00  0.00    +0.000 N 
ATOM      2  C   UNL     1       5.670   6.341  17.432  0.00  0.00    +0.000 C 
ATOM      3  O   UNL     1       6.014   7.464  17.818  0.00  0.00    +0.000 OA
ENDROOT
BRANCH   1   4
ATOM      4  C   UNL     1       3.798   6.356  19.013  0.00  0.00    +0.000 C 
BRANCH   4   7
ATOM      5  C   UNL     1       1.109   8.952  20.031  0.00  0.00    +0.000 A 
ATOM      6  C   UNL     1       2.073   7.938  20.101  0.00  0.00    +0.000 A 
ATOM      7  C   UNL     1       2.623   7.330  18.958  0.00  0.00    +0.000 A 
ATOM      8  C   UNL     1       2.196   7.819  17.721  0.00  0.00    +0.000 A 
ATOM      9  C   UNL     1       1.393   8.965  17.649  0.00  0.00    +0.000 A 
ATOM     10  C   UNL     1       0.883   9.568  18.805  0.00  0.00    +0.000 A 
BRANCH   5  12
ATOM     11  C   UNL     1      -0.393   8.349  21.764  0.00  0.00    +0.000 C 
ATOM     12  O   UNL     1       0.531   9.301  21.224  0.00  0.00    +0.000 OA
ENDBRANCH   5  12
BRANCH  10  13
ATOM     13  O   UNL     1       0.237  10.776  18.839  0.00  0.00    +0.000 OA
BRANCH  13  14
ATOM     14  C   UNL     1      -1.111  10.747  19.278  0.00  0.00    +0.000 C 
BRANCH  14  15
ATOM     15  C   UNL     1      -2.047  10.739  18.095  0.00  0.00    +0.000 A 
ATOM     16  C   UNL     1      -1.866   9.871  17.009  0.00  0.00    +0.000 A 
ATOM     17  C   UNL     1      -2.775   9.872  15.950  0.00  0.00    +0.000 A 
ATOM     18  C   UNL     1      -3.879  10.735  15.979  0.00  0.00    +0.000 A 
ATOM     19  C   UNL     1      -4.065  11.590  17.063  0.00  0.00    +0.000 A 
ATOM     20  C   UNL     1      -3.156  11.588  18.115  0.00  0.00    +0.000 A 
ENDBRANCH  14  15
ENDBRANCH  13  14
ENDBRANCH  10  13
ENDBRANCH   4   7
ENDBRANCH   1   4
BRANCH   1  21
ATOM     21  C   UNL     1       4.081   4.417  17.334  0.00  0.00    +0.000 C 
BRANCH  21  22
ATOM     22  C   UNL     1       2.711   3.865  17.677  0.00  0.00    +0.000 C 
BRANCH  22  23
ATOM     23  C   UNL     1       2.449   3.443  19.099  0.00  0.00    +0.000 A 
ATOM     24  C   UNL     1       1.175   3.656  19.620  0.00  0.00    +0.000 A 
ATOM     25  C   UNL     1       0.902   3.235  20.917  0.00  0.00    +0.000 A 
ATOM     26  C   UNL     1       1.900   2.620  21.651  0.00  0.00    +0.000 A 
ATOM     27  C   UNL     1       3.142   2.455  21.059  0.00  0.00    +0.000 A 
ATOM     28  N   UNL     1       3.443   2.855  19.803  0.00  0.00    +0.000 NA
ENDBRANCH  22  23
ENDBRANCH  21  22
ENDBRANCH   1  21
BRANCH   2  29
ATOM     29  C   UNL     1       6.602   5.522  16.469  0.00  0.00    +0.000 C 
BRANCH  29  30
ATOM     30  N   UNL     1       7.618   4.811  17.288  0.00  0.00    +0.000 NA
ATOM     31  H   UNL     1       7.849   3.937  16.811  0.00  0.00    +0.000 HD
ATOM     32  H   UNL     1       7.219   4.536  18.182  0.00  0.00    +0.000 HD
ENDBRANCH  29  30
BRANCH  29  33
ATOM     33  C   UNL     1       5.866   4.445  15.639  0.00  0.00    +0.000 C 
BRANCH  33  34
ATOM     34  C   UNL     1       6.272   4.328  14.185  0.00  0.00    +0.000 A 
ATOM     35  C   UNL     1       7.349   5.061  13.664  0.00  0.00    +0.000 A 
ATOM     36  C   UNL     1       7.742   4.893  12.332  0.00  0.00    +0.000 A 
ATOM     37  C   UNL     1       7.061   3.998  11.507  0.00  0.00    +0.000 A 
ATOM     38  C   UNL     1       5.991   3.266  12.015  0.00  0.00    +0.000 A 
ATOM     39  C   UNL     1       5.601   3.430  13.345  0.00  0.00    +0.000 A 
ENDBRANCH  33  34
ENDBRANCH  29  33
ENDBRANCH   2  29
TORSDOF 13
ENDMDL
MODEL 2
REMARK VINA RESULT:      -8.8      1.073      1.717
REMARK  Name = 
REMARK  14 active torsions:
REMARK  status: ('A' for Active; 'I' for Inactive)
REMARK    1  A    between atoms: C_1  and  O_2
REMARK    2  A    between atoms: O_2  and  C_3
REMARK    3  A    between atoms: C_5  and  C_6
REMARK    4  A    between atoms: C_6  and  N_7
REMARK    5  A    between atoms: N_7  and  C_8
REMARK    6  A    between atoms: C_8  and  C_9
REMARK    7  A    between atoms: C_9  and  C_10
REMARK    8  A    between atoms: C_16  and  C_18
REMARK    9  A    between atoms: C_18  and  N_19
REMARK   10  A    between atoms: C_18  and  C_20
REMARK   11  A    between atoms: C_20  and  C_21
REMARK   12  A    between atoms: C_29  and  O_30
REMARK   13  A    between atoms: O_30  and  C_31
REMARK   14  A    between atoms: C_31  and  C_32
REMARK                            x       y       z     vdW  Elec       q    Type
REMARK                         _______ _______ _______ _____ _____    ______ ____
ROOT
ATOM      1  N   UNL     1       4.664   5.244  17.035  0.00  0.00    +0.000 N 
ATOM      2  C   UNL     1       5.774   5.657  16.240  0.00  0.00    +0.000 C 
ATOM      3  O   UNL     1       6.246   6.796  16.336  0.00  0.00    +0.000 OA
ENDROOT
BRANCH   1   4
ATOM      4  C   UNL     1       4.497   5.997  18.302  0.00  0.00    +0.000 C 
BRANCH   4   7
ATOM      5  C   UNL     1       1.626   7.921  20.053  0.00  0.00    +0.000 A 
ATOM      6  C   UNL     1       2.633   6.984  19.793  0.00  0.00    +0.000 A 
ATOM      7  C   UNL     1       3.280   6.887  18.546  0.00  0.00    +0.000 A 
ATOM      8  C   UNL     1       2.903   7.814  17.572  0.00  0.00    +0.000 A 
ATOM      9  C   UNL     1       2.050   8.878  17.895  0.00  0.00    +0.000 A 
ATOM     10  C   UNL     1       1.442   8.965  19.153  0.00  0.00    +0.000 A 
BRANCH   5  12
ATOM     11  C   UNL     1      -0.145   8.642  21.457  0.00  0.00    +0.000 C 
ATOM     12  O   UNL     1       0.962   7.758  21.241  0.00  0.00    +0.000 OA
ENDBRANCH   5  12
BRANCH  10  13
ATOM     13  O   UNL     1       0.737  10.047  19.610  0.00  0.00    +0.000 OA
BRANCH  13  14
ATOM     14  C   UNL     1       0.358  11.000  18.630  0.00  0.00    +0.000 C 
BRANCH  14  15
ATOM     15  C   UNL     1      -1.118  10.897  18.340  0.00  0.00    +0.000 A 
ATOM     16  C   UNL     1      -2.056  11.746  18.946  0.00  0.00    +0.000 A 
ATOM     17  C   UNL     1      -3.410  11.639  18.625  0.00  0.00    +0.000 A 
ATOM     18  C   UNL     1      -3.831  10.689  17.684  0.00  0.00    +0.000 A 
ATOM     19  C   UNL     1      -2.898   9.853  17.075  0.00  0.00    +0.000 A 
ATOM     20  C   UNL     1      -1.551   9.960  17.399  0.00  0.00    +0.000 A 
ENDBRANCH  14  15
ENDBRANCH  13  14
ENDBRANCH  10  13
ENDBRANCH   4   7
ENDBRANCH   1   4
BRANCH   1  21
ATOM     21  C   UNL     1       4.194   3.844  16.914  0.00  0.00    +0.000 C 
BRANCH  21  22
ATOM     22  C   UNL     1       2.764   3.543  17.320  0.00  0.00    +0.000 C 
BRANCH  22  23
ATOM     23  C   UNL     1       2.470   3.328  18.781  0.00  0.00    +0.000 A 
ATOM     24  C   UNL     1       1.197   3.651  19.246  0.00  0.00    +0.000 A 
ATOM     25  C   UNL     1       0.892   3.418  20.583  0.00  0.00    +0.000 A 
ATOM     26  C   UNL     1       1.859   2.877  21.411  0.00  0.00    +0.000 A 
ATOM     27  C   UNL     1       3.102   2.593  20.869  0.00  0.00    +0.000 A 
ATOM     28  N   UNL     1       3.434   2.809  19.575  0.00  0.00    +0.000 NA
ENDBRANCH  22  23
ENDBRANCH  21  22
ENDBRANCH   1  21
BRANCH   2  29
ATOM     29  C   UNL     1       6.337   4.661  15.162  0.00  0.00    +0.000 C 
BRANCH  29  30
ATOM     30  N   UNL     1       6.216   3.277  15.691  0.00  0.00    +0.000 NA
ATOM     31  H   UNL     1       5.602   2.755  15.063  0.00  0.00    +0.000 HD
ATOM     32  H   UNL     1       5.743   3.285  16.591  0.00  0.00    +0.000 HD
ENDBRANCH  29  30
BRANCH  29  33
ATOM     33  C   UNL     1       5.579   4.691  13.815  0.00  0.00    +0.000 C 
BRANCH  33  34
ATOM     34  C   UNL     1       5.976   3.639  12.802  0.00  0.00    +0.000 A 
ATOM     35  C   UNL     1       5.039   2.735  12.278  0.00  0.00    +0.000 A 
ATOM     36  C   UNL     1       5.417   1.809  11.300  0.00  0.00    +0.000 A 
ATOM     37  C   UNL     1       6.734   1.773  10.840  0.00  0.00    +0.000 A 
ATOM     38  C   UNL     1       7.671   2.665  11.354  0.00  0.00    +0.000 A 
ATOM     39  C   UNL     1       7.293   3.592  12.327  0.00  0.00    +0.000 A 
ENDBRANCH  33  34
ENDBRANCH  29  33
ENDBRANCH   2  29
TORSDOF 13
ENDMDL
MODEL 3
REMARK VINA RESULT:      -8.8      1.154      1.481
REMARK  Name = 
REMARK  14 active torsions:
REMARK  status: ('A' for Active; 'I' for Inactive)
REMARK    1  A    between atoms: C_1  and  O_2
REMARK    2  A    between atoms: O_2  and  C_3
REMARK    3  A    between atoms: C_5  and  C_6
REMARK    4  A    between atoms: C_6  and  N_7
REMARK    5  A    between atoms: N_7  and  C_8
REMARK    6  A    between atoms: C_8  and  C_9
REMARK    7  A    between atoms: C_9  and  C_10
REMARK    8  A    between atoms: C_16  and  C_18
REMARK    9  A    between atoms: C_18  and  N_19
REMARK   10  A    between atoms: C_18  and  C_20
REMARK   11  A    between atoms: C_20  and  C_21
REMARK   12  A    between atoms: C_29  and  O_30
REMARK   13  A    between atoms: O_30  and  C_31
REMARK   14  A    between atoms: C_31  and  C_32
REMARK                            x       y       z     vdW  Elec       q    Type
REMARK                         _______ _______ _______ _____ _____    ______ ____
ROOT
ATOM      1  N   UNL     1       4.522   5.198  17.042  0.00  0.00    +0.000 N 
ATOM      2  C   UNL     1       5.562   5.674  16.190  0.00  0.00    +0.000 C 
ATOM      3  O   UNL     1       5.934   6.853  16.225  0.00  0.00    +0.000 OA
ENDROOT
BRANCH   1   4
ATOM      4  C   UNL     1       4.334   5.984  18.286  0.00  0.00    +0.000 C 
BRANCH   4   7
ATOM      5  C   UNL     1       1.546   8.143  19.891  0.00  0.00    +0.000 A 
ATOM      6  C   UNL     1       2.526   7.160  19.706  0.00  0.00    +0.000 A 
ATOM      7  C   UNL     1       3.143   6.923  18.463  0.00  0.00    +0.000 A 
ATOM      8  C   UNL     1       2.765   7.756  17.408  0.00  0.00    +0.000 A 
ATOM      9  C   UNL     1       1.942   8.867  17.639  0.00  0.00    +0.000 A 
ATOM     10  C   UNL     1       1.366   9.095  18.894  0.00  0.00    +0.000 A 
BRANCH   5  12
ATOM     11  C   UNL     1       1.518   8.888  22.142  0.00  0.00    +0.000 C 
ATOM     12  O   UNL     1       0.905   8.117  21.102  0.00  0.00    +0.000 OA
ENDBRANCH   5  12
BRANCH  10  13
ATOM     13  O   UNL     1       0.694  10.235  19.253  0.00  0.00    +0.000 OA
BRANCH  13  14
ATOM     14  C   UNL     1      -0.660  10.062  19.637  0.00  0.00    +0.000 C 
BRANCH  14  15
ATOM     15  C   UNL     1      -1.579  10.424  18.497  0.00  0.00    +0.000 A 
ATOM     16  C   UNL     1      -1.522   9.768  17.258  0.00  0.00    +0.000 A 
ATOM     17  C   UNL     1      -2.414  10.111  16.241  0.00  0.00    +0.000 A 
ATOM     18  C   UNL     1      -3.376  11.106  16.463  0.00  0.00    +0.000 A 
ATOM     19  C   UNL     1      -3.439  11.750  17.695  0.00  0.00    +0.000 A 
ATOM     20  C   UNL     1      -2.548  11.408  18.706  0.00  0.00    +0.000 A 
ENDBRANCH  14  15
ENDBRANCH  13  14
ENDBRANCH  10  13
ENDBRANCH   4   7
ENDBRANCH   1   4
BRANCH   1  21
ATOM     21  C   UNL     1       4.175   3.758  16.991  0.00  0.00    +0.000 C 
BRANCH  21  22
ATOM     22  C   UNL     1       2.745   3.367  17.310  0.00  0.00    +0.000 C 
BRANCH  22  23
ATOM     23  C   UNL     1       2.327   3.317  18.756  0.00  0.00    +0.000 A 
ATOM     24  C   UNL     1       3.196   2.723  19.668  0.00  0.00    +0.000 A 
ATOM     25  C   UNL     1       2.847   2.706  21.014  0.00  0.00    +0.000 A 
ATOM     26  C   UNL     1       1.650   3.275  21.407  0.00  0.00    +0.000 A 
ATOM     27  C   UNL     1       0.840   3.838  20.434  0.00  0.00    +0.000 A 
ATOM     28  N   UNL     1       1.146   3.869  19.117  0.00  0.00    +0.000 NA
ENDBRANCH  22  23
ENDBRANCH  21  22
ENDBRANCH   1  21
BRANCH   2  29
ATOM     29  C   UNL     1       6.173   4.689  15.129  0.00  0.00    +0.000 C 
BRANCH  29  30
ATOM     30  N   UNL     1       6.131   3.312  15.686  0.00  0.00    +0.000 NA
ATOM     31  H   UNL     1       5.330   2.831  15.270  0.00  0.00    +0.000 HD
ATOM     32  H   UNL     1       5.943   3.342  16.684  0.00  0.00    +0.000 HD
ENDBRANCH  29  30
BRANCH  29  33
ATOM     33  C   UNL     1       5.408   4.651  13.786  0.00  0.00    +0.000 C 
BRANCH  33  34
ATOM     34  C   UNL     1       5.927   3.678  12.749  0.00  0.00    +0.000 A 
ATOM     35  C   UNL     1       7.258   3.719  12.307  0.00  0.00    +0.000 A 
ATOM     36  C   UNL     1       7.730   2.773  11.390  0.00  0.00    +0.000 A 
ATOM     37  C   UNL     1       6.877   1.782  10.903  0.00  0.00    +0.000 A 
ATOM     38  C   UNL     1       5.555   1.733  11.335  0.00  0.00    +0.000 A 
ATOM     39  C   UNL     1       5.085   2.674  12.253  0.00  0.00    +0.000 A 
ENDBRANCH  33  34
ENDBRANCH  29  33
ENDBRANCH   2  29
TORSDOF 13
ENDMDL
MODEL 4
REMARK VINA RESULT:      -8.7      2.086      2.674
REMARK  Name = 
REMARK  14 active torsions:
REMARK  status: ('A' for Active; 'I' for Inactive)
REMARK    1  A    between atoms: C_1  and  O_2
REMARK    2  A    between atoms: O_2  and  C_3
REMARK    3  A    between atoms: C_5  and  C_6
REMARK    4  A    between atoms: C_6  and  N_7
REMARK    5  A    between atoms: N_7  and  C_8
REMARK    6  A    between atoms: C_8  and  C_9
REMARK    7  A    between atoms: C_9  and  C_10
REMARK    8  A    between atoms: C_16  and  C_18
REMARK    9  A    between atoms: C_18  and  N_19
REMARK   10  A    between atoms: C_18  and  C_20
REMARK   11  A    between atoms: C_20  and  C_21
REMARK   12  A    between atoms: C_29  and  O_30
REMARK   13  A    between atoms: O_30  and  C_31
REMARK   14  A    between atoms: C_31  and  C_32
REMARK                            x       y       z     vdW  Elec       q    Type
REMARK                         _______ _______ _______ _____ _____    ______ ____
ROOT
ATOM      1  N   UNL     1       4.888   5.300  18.011  0.00  0.00    +0.000 N 
ATOM      2  C   UNL     1       6.109   5.878  17.551  0.00  0.00    +0.000 C 
ATOM      3  O   UNL     1       6.377   7.066  17.763  0.00  0.00    +0.000 OA
ENDROOT
BRANCH   1   4
ATOM      4  C   UNL     1       4.279   5.988  19.176  0.00  0.00    +0.000 C 
BRANCH   4   7
ATOM      5  C   UNL     1       1.350   8.404  19.951  0.00  0.00    +0.000 A 
ATOM      6  C   UNL     1       2.325   7.407  20.090  0.00  0.00    +0.000 A 
ATOM      7  C   UNL     1       3.096   6.939  19.010  0.00  0.00    +0.000 A 
ATOM      8  C   UNL     1       2.879   7.554  17.774  0.00  0.00    +0.000 A 
ATOM      9  C   UNL     1       2.058   8.685  17.676  0.00  0.00    +0.000 A 
ATOM     10  C   UNL     1       1.325   9.147  18.776  0.00  0.00    +0.000 A 
BRANCH   5  12
ATOM     11  C   UNL     1       1.232   9.055  22.229  0.00  0.00    +0.000 C 
ATOM     12  O   UNL     1       0.554   8.607  21.049  0.00  0.00    +0.000 OA
ENDBRANCH   5  12
BRANCH  10  13
ATOM     13  O   UNL     1       0.637  10.331  18.818  0.00  0.00    +0.000 OA
BRANCH  13  14
ATOM     14  C   UNL     1       1.426  11.509  18.782  0.00  0.00    +0.000 C 
BRANCH  14  15
ATOM     15  C   UNL     1       0.763  12.609  19.573  0.00  0.00    +0.000 A 
ATOM     16  C   UNL     1       0.588  12.524  20.962  0.00  0.00    +0.000 A 
ATOM     17  C   UNL     1       0.000  13.580  21.661  0.00  0.00    +0.000 A 
ATOM     18  C   UNL     1      -0.404  14.732  20.973  0.00  0.00    +0.000 A 
ATOM     19  C   UNL     1      -0.220  14.821  19.595  0.00  0.00    +0.000 A 
ATOM     20  C   UNL     1       0.363  13.767  18.902  0.00  0.00    +0.000 A 
ENDBRANCH  14  15
ENDBRANCH  13  14
ENDBRANCH  10  13
ENDBRANCH   4   7
ENDBRANCH   1   4
BRANCH   1  21
ATOM     21  C   UNL     1       4.664   3.854  17.779  0.00  0.00    +0.000 C 
BRANCH  21  22
ATOM     22  C   UNL     1       3.231   3.358  17.760  0.00  0.00    +0.000 C 
BRANCH  22  23
ATOM     23  C   UNL     1       2.527   3.166  19.078  0.00  0.00    +0.000 A 
ATOM     24  C   UNL     1       3.278   2.716  20.161  0.00  0.00    +0.000 A 
ATOM     25  C   UNL     1       2.656   2.574  21.396  0.00  0.00    +0.000 A 
ATOM     26  C   UNL     1       1.312   2.879  21.513  0.00  0.00    +0.000 A 
ATOM     27  C   UNL     1       0.637   3.312  20.383  0.00  0.00    +0.000 A 
ATOM     28  N   UNL     1       1.210   3.459  19.167  0.00  0.00    +0.000 NA
ENDBRANCH  22  23
ENDBRANCH  21  22
ENDBRANCH   1  21
BRANCH   2  29
ATOM     29  C   UNL     1       7.076   4.996  16.681  0.00  0.00    +0.000 C 
BRANCH  29  30
ATOM     30  N   UNL     1       7.912   4.174  17.595  0.00  0.00    +0.000 NA
ATOM     31  H   UNL     1       8.879   4.495  17.507  0.00  0.00    +0.000 HD
ATOM     32  H   UNL     1       7.918   3.205  17.289  0.00  0.00    +0.000 HD
ENDBRANCH  29  30
BRANCH  29  33
ATOM     33  C   UNL     1       6.354   4.013  15.732  0.00  0.00    +0.000 C 
BRANCH  33  34
ATOM     34  C   UNL     1       6.676   4.148  14.259  0.00  0.00    +0.000 A 
ATOM     35  C   UNL     1       6.053   3.341  13.295  0.00  0.00    +0.000 A 
ATOM     36  C   UNL     1       6.324   3.523  11.935  0.00  0.00    +0.000 A 
ATOM     37  C   UNL     1       7.224   4.507  11.525  0.00  0.00    +0.000 A 
ATOM     38  C   UNL     1       7.848   5.312  12.474  0.00  0.00    +0.000 A 
ATOM     39  C   UNL     1       7.574   5.134  13.830  0.00  0.00    +0.000 A 
ENDBRANCH  33  34
ENDBRANCH  29  33
ENDBRANCH   2  29
TORSDOF 13
ENDMDL
MODEL 5
REMARK VINA RESULT:      -8.7      1.195      1.886
REMARK  Name = 
REMARK  14 active torsions:
REMARK  status: ('A' for Active; 'I' for Inactive)
REMARK    1  A    between atoms: C_1  and  O_2
REMARK    2  A    between atoms: O_2  and  C_3
REMARK    3  A    between atoms: C_5  and  C_6
REMARK    4  A    between atoms: C_6  and  N_7
REMARK    5  A    between atoms: N_7  and  C_8
REMARK    6  A    between atoms: C_8  and  C_9
REMARK    7  A    between atoms: C_9  and  C_10
REMARK    8  A    between atoms: C_16  and  C_18
REMARK    9  A    between atoms: C_18  and  N_19
REMARK   10  A    between atoms: C_18  and  C_20
REMARK   11  A    between atoms: C_20  and  C_21
REMARK   12  A    between atoms: C_29  and  O_30
REMARK   13  A    between atoms: O_30  and  C_31
REMARK   14  A    between atoms: C_31  and  C_32
REMARK                            x       y       z     vdW  Elec       q    Type
REMARK                         _______ _______ _______ _____ _____    ______ ____
ROOT
ATOM      1  N   UNL     1       4.246   5.414  17.851  0.00  0.00    +0.000 N 
ATOM      2  C   UNL     1       5.577   5.883  17.645  0.00  0.00    +0.000 C 
ATOM      3  O   UNL     1       5.985   6.917  18.186  0.00  0.00    +0.000 OA
ENDROOT
BRANCH   1   4
ATOM      4  C   UNL     1       3.618   5.871  19.115  0.00  0.00    +0.000 C 
BRANCH   4   7
ATOM      5  C   UNL     1       1.288   8.717  20.334  0.00  0.00    +0.000 A 
ATOM      6  C   UNL     1       2.088   7.568  20.320  0.00  0.00    +0.000 A 
ATOM      7  C   UNL     1       2.602   7.011  19.133  0.00  0.00    +0.000 A 
ATOM      8  C   UNL     1       2.314   7.691  17.947  0.00  0.00    +0.000 A 
ATOM      9  C   UNL     1       1.692   8.946  17.980  0.00  0.00    +0.000 A 
ATOM     10  C   UNL     1       1.217   9.490  19.180  0.00  0.00    +0.000 A 
BRANCH   5  12
ATOM     11  C   UNL     1      -0.632   8.538  21.715  0.00  0.00    +0.000 C 
ATOM     12  O   UNL     1       0.707   9.016  21.539  0.00  0.00    +0.000 OA
ENDBRANCH   5  12
BRANCH  10  13
ATOM     13  O   UNL     1       0.754  10.770  19.331  0.00  0.00    +0.000 OA
BRANCH  13  14
ATOM     14  C   UNL     1      -0.395  11.108  18.571  0.00  0.00    +0.000 C 
BRANCH  14  15
ATOM     15  C   UNL     1      -1.464  11.685  19.465  0.00  0.00    +0.000 A 
ATOM     16  C   UNL     1      -1.187  12.127  20.767  0.00  0.00    +0.000 A 
ATOM     17  C   UNL     1      -2.199  12.686  21.550  0.00  0.00    +0.000 A 
ATOM     18  C   UNL     1      -3.493  12.816  21.027  0.00  0.00    +0.000 A 
ATOM     19  C   UNL     1      -3.766  12.387  19.731  0.00  0.00    +0.000 A 
ATOM     20  C   UNL     1      -2.757  11.828  18.955  0.00  0.00    +0.000 A 
ENDBRANCH  14  15
ENDBRANCH  13  14
ENDBRANCH  10  13
ENDBRANCH   4   7
ENDBRANCH   1   4
BRANCH   1  21
ATOM     21  C   UNL     1       3.846   4.132  17.224  0.00  0.00    +0.000 C 
BRANCH  21  22
ATOM     22  C   UNL     1       3.835   2.893  18.098  0.00  0.00    +0.000 C 
BRANCH  22  23
ATOM     23  C   UNL     1       2.879   2.851  19.261  0.00  0.00    +0.000 A 
ATOM     24  C   UNL     1       3.410   2.670  20.536  0.00  0.00    +0.000 A 
ATOM     25  C   UNL     1       2.547   2.672  21.627  0.00  0.00    +0.000 A 
ATOM     26  C   UNL     1       1.193   2.850  21.416  0.00  0.00    +0.000 A 
ATOM     27  C   UNL     1       0.748   3.015  20.114  0.00  0.00    +0.000 A 
ATOM     28  N   UNL     1       1.557   3.015  19.030  0.00  0.00    +0.000 NA
ENDBRANCH  22  23
ENDBRANCH  21  22
ENDBRANCH   1  21
BRANCH   2  29
ATOM     29  C   UNL     1       6.498   5.107  16.636  0.00  0.00    +0.000 C 
BRANCH  29  30
ATOM     30  N   UNL     1       7.346   4.159  17.405  0.00  0.00    +0.000 NA
ATOM     31  H   UNL     1       7.082   3.210  17.132  0.00  0.00    +0.000 HD
ATOM     32  H   UNL     1       7.136   4.226  18.398  0.00  0.00    +0.000 HD
ENDBRANCH  29  30
BRANCH  29  33
ATOM     33  C   UNL     1       5.727   4.268  15.591  0.00  0.00    +0.000 C 
BRANCH  33  34
ATOM     34  C   UNL     1       6.261   4.309  14.175  0.00  0.00    +0.000 A 
ATOM     35  C   UNL     1       7.320   5.156  13.816  0.00  0.00    +0.000 A 
ATOM     36  C   UNL     1       7.835   5.135  12.515  0.00  0.00    +0.000 A 
ATOM     37  C   UNL     1       7.294   4.273  11.561  0.00  0.00    +0.000 A 
ATOM     38  C   UNL     1       6.243   3.428  11.908  0.00  0.00    +0.000 A 
ATOM     39  C   UNL     1       5.732   3.447  13.206  0.00  0.00    +0.000 A 
ENDBRANCH  33  34
ENDBRANCH  29  33
ENDBRANCH   2  29
TORSDOF 13
ENDMDL
MODEL 6
REMARK VINA RESULT:      -8.7      3.115      9.862
REMARK  Name = 
REMARK  14 active torsions:
REMARK  status: ('A' for Active; 'I' for Inactive)
REMARK    1  A    between atoms: C_1  and  O_2
REMARK    2  A    between atoms: O_2  and  C_3
REMARK    3  A    between atoms: C_5  and  C_6
REMARK    4  A    between atoms: C_6  and  N_7
REMARK    5  A    between atoms: N_7  and  C_8
REMARK    6  A    between atoms: C_8  and  C_9
REMARK    7  A    between atoms: C_9  and  C_10
REMARK    8  A    between atoms: C_16  and  C_18
REMARK    9  A    between atoms: C_18  and  N_19
REMARK   10  A    between atoms: C_18  and  C_20
REMARK   11  A    between atoms: C_20  and  C_21
REMARK   12  A    between atoms: C_29  and  O_30
REMARK   13  A    between atoms: O_30  and  C_31
REMARK   14  A    between atoms: C_31  and  C_32
REMARK                            x       y       z     vdW  Elec       q    Type
REMARK                         _______ _______ _______ _____ _____    ______ ____
ROOT
ATOM      1  N   UNL     1       1.125   9.090  18.883  0.00  0.00    +0.000 N 
ATOM      2  C   UNL     1       1.005   8.801  20.274  0.00  0.00    +0.000 C 
ATOM      3  O   UNL     1       1.795   8.038  20.843  0.00  0.00    +0.000 OA
ENDROOT
BRANCH   1   4
ATOM      4  C   UNL     1       2.490   8.910  18.329  0.00  0.00    +0.000 C 
BRANCH   4   7
ATOM      5  C   UNL     1       4.801   5.944  17.390  0.00  0.00    +0.000 A 
ATOM      6  C   UNL     1       4.344   7.240  17.663  0.00  0.00    +0.000 A 
ATOM      7  C   UNL     1       2.983   7.544  17.855  0.00  0.00    +0.000 A 
ATOM      8  C   UNL     1       2.090   6.472  17.809  0.00  0.00    +0.000 A 
ATOM      9  C   UNL     1       2.563   5.154  17.742  0.00  0.00    +0.000 A 
ATOM     10  C   UNL     1       3.927   4.880  17.581  0.00  0.00    +0.000 A 
BRANCH   5  12
ATOM     11  C   UNL     1       7.060   5.952  18.110  0.00  0.00    +0.000 C 
ATOM     12  O   UNL     1       6.121   5.847  17.034  0.00  0.00    +0.000 OA
ENDBRANCH   5  12
BRANCH  10  13
ATOM     13  O   UNL     1       4.493   3.636  17.676  0.00  0.00    +0.000 OA
BRANCH  13  14
ATOM     14  C   UNL     1       3.588   2.547  17.758  0.00  0.00    +0.000 C 
BRANCH  14  15
ATOM     15  C   UNL     1       2.846   2.580  19.071  0.00  0.00    +0.000 A 
ATOM     16  C   UNL     1       3.515   2.626  20.303  0.00  0.00    +0.000 A 
ATOM     17  C   UNL     1       2.790   2.689  21.494  0.00  0.00    +0.000 A 
ATOM     18  C   UNL     1       1.389   2.720  21.456  0.00  0.00    +0.000 A 
ATOM     19  C   UNL     1       0.725   2.686  20.233  0.00  0.00    +0.000 A 
ATOM     20  C   UNL     1       1.450   2.620  19.049  0.00  0.00    +0.000 A 
ENDBRANCH  14  15
ENDBRANCH  13  14
ENDBRANCH  10  13
ENDBRANCH   4   7
ENDBRANCH   1   4
BRANCH   1  21
ATOM     21  C   UNL     1       0.184  10.065  18.283  0.00  0.00    +0.000 C 
BRANCH  21  22
ATOM     22  C   UNL     1      -0.888   9.529  17.354  0.00  0.00    +0.000 C 
BRANCH  22  23
ATOM     23  C   UNL     1      -2.182  10.291  17.245  0.00  0.00    +0.000 A 
ATOM     24  C   UNL     1      -2.841  10.289  16.018  0.00  0.00    +0.000 A 
ATOM     25  C   UNL     1      -4.059  10.951  15.909  0.00  0.00    +0.000 A 
ATOM     26  C   UNL     1      -4.579  11.592  17.018  0.00  0.00    +0.000 A 
ATOM     27  C   UNL     1      -3.855  11.552  18.199  0.00  0.00    +0.000 A 
ATOM     28  N   UNL     1      -2.667  10.921  18.339  0.00  0.00    +0.000 NA
ENDBRANCH  22  23
ENDBRANCH  21  22
ENDBRANCH   1  21
BRANCH   2  29
ATOM     29  C   UNL     1      -0.214   9.401  21.063  0.00  0.00    +0.000 C 
BRANCH  29  30
ATOM     30  N   UNL     1      -0.673   8.395  22.056  0.00  0.00    +0.000 NA
ATOM     31  H   UNL     1      -1.251   8.879  22.748  0.00  0.00    +0.000 HD
ATOM     32  H   UNL     1       0.120   8.025  22.574  0.00  0.00    +0.000 HD
ENDBRANCH  29  30
BRANCH  29  33
ATOM     33  C   UNL     1       0.114  10.689  21.852  0.00  0.00    +0.000 C 
BRANCH  33  34
ATOM     34  C   UNL     1      -1.028  11.664  22.045  0.00  0.00    +0.000 A 
ATOM     35  C   UNL     1      -1.842  11.623  23.187  0.00  0.00    +0.000 A 
ATOM     36  C   UNL     1      -2.855  12.570  23.370  0.00  0.00    +0.000 A 
ATOM     37  C   UNL     1      -3.068  13.563  22.414  0.00  0.00    +0.000 A 
ATOM     38  C   UNL     1      -2.265  13.613  21.278  0.00  0.00    +0.000 A 
ATOM     39  C   UNL     1      -1.252  12.670  21.097  0.00  0.00    +0.000 A 
ENDBRANCH  33  34
ENDBRANCH  29  33
ENDBRANCH   2  29
TORSDOF 13
ENDMDL
MODEL 7
REMARK VINA RESULT:      -8.7      1.933      3.001
REMARK  Name = 
REMARK  14 active torsions:
REMARK  status: ('A' for Active; 'I' for Inactive)
REMARK    1  A    between atoms: C_1  and  O_2
REMARK    2  A    between atoms: O_2  and  C_3
REMARK    3  A    between atoms: C_5  and  C_6
REMARK    4  A    between atoms: C_6  and  N_7
REMARK    5  A    between atoms: N_7  and  C_8
REMARK    6  A    between atoms: C_8  and  C_9
REMARK    7  A    between atoms: C_9  and  C_10
REMARK    8  A    between atoms: C_16  and  C_18
REMARK    9  A    between atoms: C_18  and  N_19
REMARK   10  A    between atoms: C_18  and  C_20
REMARK   11  A    between atoms: C_20  and  C_21
REMARK   12  A    between atoms: C_29  and  O_30
REMARK   13  A    between atoms: O_30  and  C_31
REMARK   14  A    between atoms: C_31  and  C_32
REMARK                            x       y       z     vdW  Elec       q    Type
REMARK                         _______ _______ _______ _____ _____    ______ ____
ROOT
ATOM      1  N   UNL     1       4.463   5.694  17.846  0.00  0.00    +0.000 N 
ATOM      2  C   UNL     1       5.782   6.138  17.533  0.00  0.00    +0.000 C 
ATOM      3  O   UNL     1       6.223   7.206  17.975  0.00  0.00    +0.000 OA
ENDROOT
BRANCH   1   4
ATOM      4  C   UNL     1       3.908   6.246  19.106  0.00  0.00    +0.000 C 
BRANCH   4   7
ATOM      5  C   UNL     1       1.022   8.559  20.264  0.00  0.00    +0.000 A 
ATOM      6  C   UNL     1       1.971   7.529  20.235  0.00  0.00    +0.000 A 
ATOM      7  C   UNL     1       2.750   7.242  19.098  0.00  0.00    +0.000 A 
ATOM      8  C   UNL     1       2.570   8.073  17.989  0.00  0.00    +0.000 A 
ATOM      9  C   UNL     1       1.776   9.224  18.086  0.00  0.00    +0.000 A 
ATOM     10  C   UNL     1       1.035   9.501  19.241  0.00  0.00    +0.000 A 
BRANCH   5  12
ATOM     11  C   UNL     1       0.756   9.240  22.520  0.00  0.00    +0.000 C 
ATOM     12  O   UNL     1       0.212   8.583  21.369  0.00  0.00    +0.000 OA
ENDBRANCH   5  12
BRANCH  10  13
ATOM     13  O   UNL     1       0.373  10.675  19.486  0.00  0.00    +0.000 OA
BRANCH  13  14
ATOM     14  C   UNL     1       0.349  11.608  18.417  0.00  0.00    +0.000 C 
BRANCH  14  15
ATOM     15  C   UNL     1       1.205  12.805  18.746  0.00  0.00    +0.000 A 
ATOM     16  C   UNL     1       0.796  13.782  19.666  0.00  0.00    +0.000 A 
ATOM     17  C   UNL     1       1.634  14.857  19.967  0.00  0.00    +0.000 A 
ATOM     18  C   UNL     1       2.892  14.953  19.356  0.00  0.00    +0.000 A 
ATOM     19  C   UNL     1       3.302  13.978  18.450  0.00  0.00    +0.000 A 
ATOM     20  C   UNL     1       2.464  12.910  18.151  0.00  0.00    +0.000 A 
ENDBRANCH  14  15
ENDBRANCH  13  14
ENDBRANCH  10  13
ENDBRANCH   4   7
ENDBRANCH   1   4
BRANCH   1  21
ATOM     21  C   UNL     1       4.026   4.373  17.337  0.00  0.00    +0.000 C 
BRANCH  21  22
ATOM     22  C   UNL     1       4.089   3.195  18.289  0.00  0.00    +0.000 C 
BRANCH  22  23
ATOM     23  C   UNL     1       3.023   3.078  19.347  0.00  0.00    +0.000 A 
ATOM     24  C   UNL     1       3.410   2.670  20.622  0.00  0.00    +0.000 A 
ATOM     25  C   UNL     1       2.448   2.598  21.623  0.00  0.00    +0.000 A 
ATOM     26  C   UNL     1       1.139   2.929  21.326  0.00  0.00    +0.000 A 
ATOM     27  C   UNL     1       0.838   3.316  20.029  0.00  0.00    +0.000 A 
ATOM     28  N   UNL     1       1.747   3.394  19.031  0.00  0.00    +0.000 NA
ENDBRANCH  22  23
ENDBRANCH  21  22
ENDBRANCH   1  21
BRANCH   2  29
ATOM     29  C   UNL     1       6.644   5.285  16.534  0.00  0.00    +0.000 C 
BRANCH  29  30
ATOM     30  N   UNL     1       7.490   4.350  17.322  0.00  0.00    +0.000 NA
ATOM     31  H   UNL     1       7.489   4.670  18.293  0.00  0.00    +0.000 HD
ATOM     32  H   UNL     1       8.457   4.409  17.016  0.00  0.00    +0.000 HD
ENDBRANCH  29  30
BRANCH  29  33
ATOM     33  C   UNL     1       5.812   4.420  15.559  0.00  0.00    +0.000 C 
BRANCH  33  34
ATOM     34  C   UNL     1       6.335   4.320  14.142  0.00  0.00    +0.000 A 
ATOM     35  C   UNL     1       5.771   3.433  13.214  0.00  0.00    +0.000 A 
ATOM     36  C   UNL     1       6.233   3.399  11.893  0.00  0.00    +0.000 A 
ATOM     37  C   UNL     1       7.265   4.246  11.490  0.00  0.00    +0.000 A 
ATOM     38  C   UNL     1       7.832   5.130  12.404  0.00  0.00    +0.000 A 
ATOM     39  C   UNL     1       7.368   5.166  13.720  0.00  0.00    +0.000 A 
ENDBRANCH  33  34
ENDBRANCH  29  33
ENDBRANCH   2  29
TORSDOF 13
ENDMDL
MODEL 8
REMARK VINA RESULT:      -8.6      1.918      8.742
REMARK  Name = 
REMARK  14 active torsions:
REMARK  status: ('A' for Active; 'I' for Inactive)
REMARK    1  A    between atoms: C_1  and  O_2
REMARK    2  A    between atoms: O_2  and  C_3
REMARK    3  A    between atoms: C_5  and  C_6
REMARK    4  A    between atoms: C_6  and  N_7
REMARK    5  A    between atoms: N_7  and  C_8
REMARK    6  A    between atoms: C_8  and  C_9
REMARK    7  A    between atoms: C_9  and  C_10
REMARK    8  A    between atoms: C_16  and  C_18
REMARK    9  A    between atoms: C_18  and  N_19
REMARK   10  A    between atoms: C_18  and  C_20
REMARK   11  A    between atoms: C_20  and  C_21
REMARK   12  A    between atoms: C_29  and  O_30
REMARK   13  A    between atoms: O_30  and  C_31
REMARK   14  A    between atoms: C_31  and  C_32
REMARK                            x       y       z     vdW  Elec       q    Type
REMARK                         _______ _______ _______ _____ _____    ______ ____
ROOT
ATOM      1  N   UNL     1       1.770   8.134  19.272  0.00  0.00    +0.000 N 
ATOM      2  C   UNL     1       1.354   9.485  19.077  0.00  0.00    +0.000 C 
ATOM      3  O   UNL     1       1.770  10.153  18.124  0.00  0.00    +0.000 OA
ENDROOT
BRANCH   1   4
ATOM      4  C   UNL     1       2.225   7.443  18.040  0.00  0.00    +0.000 C 
BRANCH   4   7
ATOM      5  C   UNL     1       5.452   5.302  18.150  0.00  0.00    +0.000 A 
ATOM      6  C   UNL     1       4.177   5.801  18.443  0.00  0.00    +0.000 A 
ATOM      7  C   UNL     1       3.672   6.984  17.872  0.00  0.00    +0.000 A 
ATOM      8  C   UNL     1       4.492   7.632  16.946  0.00  0.00    +0.000 A 
ATOM      9  C   UNL     1       5.675   7.028  16.500  0.00  0.00    +0.000 A 
ATOM     10  C   UNL     1       6.139   5.834  17.065  0.00  0.00    +0.000 A 
BRANCH   5  12
ATOM     11  C   UNL     1       4.837   3.376  19.390  0.00  0.00    +0.000 C 
ATOM     12  O   UNL     1       5.870   4.256  18.932  0.00  0.00    +0.000 OA
ENDBRANCH   5  12
BRANCH  10  13
ATOM     13  O   UNL     1       7.183   5.091  16.580  0.00  0.00    +0.000 OA
BRANCH  13  14
ATOM     14  C   UNL     1       6.831   3.933  15.841  0.00  0.00    +0.000 C 
BRANCH  14  15
ATOM     15  C   UNL     1       6.916   4.209  14.361  0.00  0.00    +0.000 A 
ATOM     16  C   UNL     1       7.783   5.177  13.833  0.00  0.00    +0.000 A 
ATOM     17  C   UNL     1       7.855   5.378  12.454  0.00  0.00    +0.000 A 
ATOM     18  C   UNL     1       7.067   4.600  11.594  0.00  0.00    +0.000 A 
ATOM     19  C   UNL     1       6.214   3.631  12.117  0.00  0.00    +0.000 A 
ATOM     20  C   UNL     1       6.142   3.436  13.492  0.00  0.00    +0.000 A 
ENDBRANCH  14  15
ENDBRANCH  13  14
ENDBRANCH  10  13
ENDBRANCH   4   7
ENDBRANCH   1   4
BRANCH   1  21
ATOM     21  C   UNL     1       1.180   7.372  20.398  0.00  0.00    +0.000 C 
BRANCH  21  22
ATOM     22  C   UNL     1       2.065   6.367  21.109  0.00  0.00    +0.000 C 
BRANCH  22  23
ATOM     23  C   UNL     1       1.794   4.901  20.891  0.00  0.00    +0.000 A 
ATOM     24  C   UNL     1       1.119   4.527  19.732  0.00  0.00    +0.000 A 
ATOM     25  C   UNL     1       0.897   3.175  19.492  0.00  0.00    +0.000 A 
ATOM     26  C   UNL     1       1.351   2.244  20.409  0.00  0.00    +0.000 A 
ATOM     27  C   UNL     1       2.006   2.704  21.540  0.00  0.00    +0.000 A 
ATOM     28  N   UNL     1       2.236   4.010  21.807  0.00  0.00    +0.000 NA
ENDBRANCH  22  23
ENDBRANCH  21  22
ENDBRANCH   1  21
BRANCH   2  29
ATOM     29  C   UNL     1       0.422  10.146  20.155  0.00  0.00    +0.000 C 
BRANCH  29  30
ATOM     30  N   UNL     1       1.263  10.582  21.300  0.00  0.00    +0.000 NA
ATOM     31  H   UNL     1       0.766  11.332  21.786  0.00  0.00    +0.000 HD
ATOM     32  H   UNL     1       2.126  11.000  20.964  0.00  0.00    +0.000 HD
ENDBRANCH  29  30
BRANCH  29  33
ATOM     33  C   UNL     1      -0.334  11.399  19.655  0.00  0.00    +0.000 C 
BRANCH  33  34
ATOM     34  C   UNL     1      -1.637  11.146  18.927  0.00  0.00    +0.000 A 
ATOM     35  C   UNL     1      -1.783  10.071  18.036  0.00  0.00    +0.000 A 
ATOM     36  C   UNL     1      -3.013   9.824  17.419  0.00  0.00    +0.000 A 
ATOM     37  C   UNL     1      -4.107  10.649  17.680  0.00  0.00    +0.000 A 
ATOM     38  C   UNL     1      -3.973  11.718  18.561  0.00  0.00    +0.000 A 
ATOM     39  C   UNL     1      -2.746  11.962  19.181  0.00  0.00    +0.000 A 
ENDBRANCH  33  34
ENDBRANCH  29  33
ENDBRANCH   2  29
TORSDOF 13
ENDMDL
MODEL 9
REMARK VINA RESULT:      -8.6      3.500     10.001
REMARK  Name = 
REMARK  14 active torsions:
REMARK  status: ('A' for Active; 'I' for Inactive)
REMARK    1  A    between atoms: C_1  and  O_2
REMARK    2  A    between atoms: O_2  and  C_3
REMARK    3  A    between atoms: C_5  and  C_6
REMARK    4  A    between atoms: C_6  and  N_7
REMARK    5  A    between atoms: N_7  and  C_8
REMARK    6  A    between atoms: C_8  and  C_9
REMARK    7  A    between atoms: C_9  and  C_10
REMARK    8  A    between atoms: C_16  and  C_18
REMARK    9  A    between atoms: C_18  and  N_19
REMARK   10  A    between atoms: C_18  and  C_20
REMARK   11  A    between atoms: C_20  and  C_21
REMARK   12  A    between atoms: C_29  and  O_30
REMARK   13  A    between atoms: O_30  and  C_31
REMARK   14  A    between atoms: C_31  and  C_32
REMARK                            x       y       z     vdW  Elec       q    Type
REMARK                         _______ _______ _______ _____ _____    ______ ____
ROOT
ATOM      1  N   UNL     1       0.660   9.797  20.613  0.00  0.00    +0.000 N 
ATOM      2  C   UNL     1       0.202  10.467  19.440  0.00  0.00    +0.000 C 
ATOM      3  O   UNL     1       0.127   9.883  18.353  0.00  0.00    +0.000 OA
ENDROOT
BRANCH   1   4
ATOM      4  C   UNL     1       0.490   8.323  20.588  0.00  0.00    +0.000 C 
BRANCH   4   7
ATOM      5  C   UNL     1       2.702   5.198  19.993  0.00  0.00    +0.000 A 
ATOM      6  C   UNL     1       1.793   6.094  20.571  0.00  0.00    +0.000 A 
ATOM      7  C   UNL     1       1.599   7.401  20.087  0.00  0.00    +0.000 A 
ATOM      8  C   UNL     1       2.332   7.765  18.955  0.00  0.00    +0.000 A 
ATOM      9  C   UNL     1       3.083   6.809  18.257  0.00  0.00    +0.000 A 
ATOM     10  C   UNL     1       3.234   5.506  18.746  0.00  0.00    +0.000 A 
BRANCH   5  12
ATOM     11  C   UNL     1       1.825   3.115  20.709  0.00  0.00    +0.000 C 
ATOM     12  O   UNL     1       2.917   4.041  20.696  0.00  0.00    +0.000 OA
ENDBRANCH   5  12
BRANCH  10  13
ATOM     13  O   UNL     1       3.803   4.470  18.053  0.00  0.00    +0.000 OA
BRANCH  13  14
ATOM     14  C   UNL     1       4.718   4.833  17.032  0.00  0.00    +0.000 C 
BRANCH  14  15
ATOM     15  C   UNL     1       5.904   5.553  17.623  0.00  0.00    +0.000 A 
ATOM     16  C   UNL     1       6.596   5.057  18.737  0.00  0.00    +0.000 A 
ATOM     17  C   UNL     1       7.710   5.737  19.232  0.00  0.00    +0.000 A 
ATOM     18  C   UNL     1       8.144   6.913  18.605  0.00  0.00    +0.000 A 
ATOM     19  C   UNL     1       7.463   7.401  17.492  0.00  0.00    +0.000 A 
ATOM     20  C   UNL     1       6.353   6.722  17.004  0.00  0.00    +0.000 A 
ENDBRANCH  14  15
ENDBRANCH  13  14
ENDBRANCH  10  13
ENDBRANCH   4   7
ENDBRANCH   1   4
BRANCH   1  21
ATOM     21  C   UNL     1       0.660  10.542  21.894  0.00  0.00    +0.000 C 
BRANCH  21  22
ATOM     22  C   UNL     1      -0.610  10.520  22.721  0.00  0.00    +0.000 C 
BRANCH  22  23
ATOM     23  C   UNL     1      -1.266  11.835  23.053  0.00  0.00    +0.000 A 
ATOM     24  C   UNL     1      -2.622  11.827  23.372  0.00  0.00    +0.000 A 
ATOM     25  C   UNL     1      -3.236  13.024  23.723  0.00  0.00    +0.000 A 
ATOM     26  C   UNL     1      -2.485  14.185  23.745  0.00  0.00    +0.000 A 
ATOM     27  C   UNL     1      -1.144  14.106  23.406  0.00  0.00    +0.000 A 
ATOM     28  N   UNL     1      -0.516  12.960  23.057  0.00  0.00    +0.000 NA
ENDBRANCH  22  23
ENDBRANCH  21  22
ENDBRANCH   1  21
BRANCH   2  29
ATOM     29  C   UNL     1      -0.122  12.002  19.531  0.00  0.00    +0.000 C 
BRANCH  29  30
ATOM     30  N   UNL     1       1.127  12.764  19.268  0.00  0.00    +0.000 NA
ATOM     31  H   UNL     1       0.863  13.684  18.910  0.00  0.00    +0.000 HD
ATOM     32  H   UNL     1       1.657  12.323  18.521  0.00  0.00    +0.000 HD
ENDBRANCH  29  30
BRANCH  29  33
ATOM     33  C   UNL     1      -1.167  12.491  18.501  0.00  0.00    +0.000 C 
BRANCH  33  34
ATOM     34  C   UNL     1      -2.617  12.220  18.840  0.00  0.00    +0.000 A 
ATOM     35  C   UNL     1      -3.233  12.815  19.952  0.00  0.00    +0.000 A 
ATOM     36  C   UNL     1      -4.590  12.595  20.213  0.00  0.00    +0.000 A 
ATOM     37  C   UNL     1      -5.342  11.777  19.371  0.00  0.00    +0.000 A 
ATOM     38  C   UNL     1      -4.740  11.182  18.265  0.00  0.00    +0.000 A 
ATOM     39  C   UNL     1      -3.387  11.404  18.003  0.00  0.00    +0.000 A 
ENDBRANCH  33  34
ENDBRANCH  29  33
ENDBRANCH   2  29
TORSDOF 13
ENDMDL
