MODEL 1
REMARK VINA RESULT:      -7.0      0.000      0.000
REMARK  Name = 
REMARK  3 active torsions:
REMARK  status: ('A' for Active; 'I' for Inactive)
REMARK    1  A    between atoms: C_1  and  N_2
REMARK    2  A    between atoms: N_5  and  C_6
REMARK    3  A    between atoms: C_9  and  C_10
REMARK                            x       y       z     vdW  Elec       q    Type
REMARK                         _______ _______ _______ _____ _____    ______ ____
ROOT
ATOM      1  C   UNL     1       2.402   6.586  19.546  0.00  0.00    +0.000 C 
ATOM      2  N   UNL     1       2.928   5.456  18.837  0.00  0.00    +0.000 N 
ATOM      3  C   UNL     1       2.585   4.109  19.083  0.00  0.00    +0.000 A 
ATOM      4  O   UNL     1       1.798   3.695  19.920  0.00  0.00    +0.000 OA
ATOM      5  N   UNL     1       3.332   3.342  18.165  0.00  0.00    +0.000 N 
ATOM      6  C   UNL     1       3.285   1.913  18.046  0.00  0.00    +0.000 C 
ATOM      7  C   UNL     1       4.110   4.200  17.378  0.00  0.00    +0.000 A 
ATOM      8  C   UNL     1       4.989   3.916  16.353  0.00  0.00    +0.000 A 
ATOM      9  C   UNL     1       5.637   4.997  15.728  0.00  0.00    +0.000 A 
ATOM     10  C   UNL     1       5.378   6.323  16.157  0.00  0.00    +0.000 A 
ATOM     11  C   UNL     1       4.480   6.588  17.202  0.00  0.00    +0.000 A 
ATOM     12  C   UNL     1       3.860   5.508  17.793  0.00  0.00    +0.000 A 
ENDROOT
BRANCH   9  13
ATOM     13  C   UNL     1       6.582   4.673  14.619  0.00  0.00    +0.000 C 
ATOM     14  N   UNL     1       6.305   3.614  13.800  0.00  0.00    +0.000 N 
ATOM     15  O   UNL     1       7.596   5.337  14.432  0.00  0.00    +0.000 OA
ATOM     16  H   UNL     1       5.505   3.008  13.868  0.00  0.00    +0.000 HD
ATOM     17  H   UNL     1       6.974   3.429  13.063  0.00  0.00    +0.000 HD
ENDBRANCH   9  13
TORSDOF 1
ENDMDL
MODEL 2
REMARK VINA RESULT:      -6.7      1.970      4.930
REMARK  Name = 
REMARK  3 active torsions:
REMARK  status: ('A' for Active; 'I' for Inactive)
REMARK    1  A    between atoms: C_1  and  N_2
REMARK    2  A    between atoms: N_5  and  C_6
REMARK    3  A    between atoms: C_9  and  C_10
REMARK                            x       y       z     vdW  Elec       q    Type
REMARK                         _______ _______ _______ _____ _____    ______ ____
ROOT
ATOM      1  C   UNL     1       7.584   6.454  18.281  0.00  0.00    +0.000 C 
ATOM      2  N   UNL     1       6.685   5.687  17.469  0.00  0.00    +0.000 N 
ATOM      3  C   UNL     1       6.825   5.470  16.081  0.00  0.00    +0.000 A 
ATOM      4  O   UNL     1       7.718   5.888  15.361  0.00  0.00    +0.000 OA
ATOM      5  N   UNL     1       5.727   4.671  15.698  0.00  0.00    +0.000 N 
ATOM      6  C   UNL     1       5.473   4.192  14.370  0.00  0.00    +0.000 C 
ATOM      7  C   UNL     1       4.938   4.407  16.824  0.00  0.00    +0.000 A 
ATOM      8  C   UNL     1       3.777   3.672  16.944  0.00  0.00    +0.000 A 
ATOM      9  C   UNL     1       3.196   3.572  18.222  0.00  0.00    +0.000 A 
ATOM     10  C   UNL     1       3.804   4.213  19.330  0.00  0.00    +0.000 A 
ATOM     11  C   UNL     1       4.985   4.956  19.183  0.00  0.00    +0.000 A 
ATOM     12  C   UNL     1       5.530   5.035  17.919  0.00  0.00    +0.000 A 
ENDROOT
BRANCH   9  13
ATOM     13  C   UNL     1       1.941   2.770  18.336  0.00  0.00    +0.000 C 
ATOM     14  N   UNL     1       2.021   1.467  18.739  0.00  0.00    +0.000 N 
ATOM     15  O   UNL     1       0.848   3.260  18.075  0.00  0.00    +0.000 OA
ATOM     16  H   UNL     1       2.865   0.972  18.975  0.00  0.00    +0.000 HD
ATOM     17  H   UNL     1       1.147   0.961  18.801  0.00  0.00    +0.000 HD
ENDBRANCH   9  13
TORSDOF 1
ENDMDL
MODEL 3
REMARK VINA RESULT:      -6.6      2.146      5.408
REMARK  Name = 
REMARK  3 active torsions:
REMARK  status: ('A' for Active; 'I' for Inactive)
REMARK    1  A    between atoms: C_1  and  N_2
REMARK    2  A    between atoms: N_5  and  C_6
REMARK    3  A    between atoms: C_9  and  C_10
REMARK                            x       y       z     vdW  Elec       q    Type
REMARK                         _______ _______ _______ _____ _____    ______ ____
ROOT
ATOM      1  C   UNL     1       5.873   3.634  15.025  0.00  0.00    +0.000 C 
ATOM      2  N   UNL     1       5.782   4.102  16.377  0.00  0.00    +0.000 N 
ATOM      3  C   UNL     1       6.865   4.576  17.149  0.00  0.00    +0.000 A 
ATOM      4  O   UNL     1       8.031   4.666  16.798  0.00  0.00    +0.000 OA
ATOM      5  N   UNL     1       6.325   4.926  18.405  0.00  0.00    +0.000 N 
ATOM      6  C   UNL     1       7.068   5.471  19.504  0.00  0.00    +0.000 C 
ATOM      7  C   UNL     1       4.948   4.673  18.399  0.00  0.00    +0.000 A 
ATOM      8  C   UNL     1       4.004   4.858  19.387  0.00  0.00    +0.000 A 
ATOM      9  C   UNL     1       2.672   4.515  19.092  0.00  0.00    +0.000 A 
ATOM     10  C   UNL     1       2.338   3.999  17.815  0.00  0.00    +0.000 A 
ATOM     11  C   UNL     1       3.316   3.817  16.825  0.00  0.00    +0.000 A 
ATOM     12  C   UNL     1       4.612   4.163  17.144  0.00  0.00    +0.000 A 
ENDROOT
BRANCH   9  13
ATOM     13  C   UNL     1       1.662   4.726  20.171  0.00  0.00    +0.000 C 
ATOM     14  N   UNL     1       0.700   3.777  20.374  0.00  0.00    +0.000 N 
ATOM     15  O   UNL     1       1.682   5.731  20.874  0.00  0.00    +0.000 OA
ATOM     16  H   UNL     1       0.595   2.921  19.855  0.00  0.00    +0.000 HD
ATOM     17  H   UNL     1       0.035   3.962  21.115  0.00  0.00    +0.000 HD
ENDBRANCH   9  13
TORSDOF 1
ENDMDL
MODEL 4
REMARK VINA RESULT:      -6.6      1.180      1.180
REMARK  Name = 
REMARK  3 active torsions:
REMARK  status: ('A' for Active; 'I' for Inactive)
REMARK    1  A    between atoms: C_1  and  N_2
REMARK    2  A    between atoms: N_5  and  C_6
REMARK    3  A    between atoms: C_9  and  C_10
REMARK                            x       y       z     vdW  Elec       q    Type
REMARK                         _______ _______ _______ _____ _____    ______ ____
ROOT
ATOM      1  C   UNL     1       2.246   7.187  19.830  0.00  0.00    +0.000 C 
ATOM      2  N   UNL     1       2.906   6.007  19.353  0.00  0.00    +0.000 N 
ATOM      3  C   UNL     1       2.813   4.728  19.944  0.00  0.00    +0.000 A 
ATOM      4  O   UNL     1       2.168   4.424  20.935  0.00  0.00    +0.000 OA
ATOM      5  N   UNL     1       3.614   3.875  19.156  0.00  0.00    +0.000 N 
ATOM      6  C   UNL     1       3.802   2.471  19.382  0.00  0.00    +0.000 C 
ATOM      7  C   UNL     1       4.180   4.614  18.110  0.00  0.00    +0.000 A 
ATOM      8  C   UNL     1       5.022   4.217  17.093  0.00  0.00    +0.000 A 
ATOM      9  C   UNL     1       5.433   5.191  16.165  0.00  0.00    +0.000 A 
ATOM     10  C   UNL     1       4.983   6.529  16.295  0.00  0.00    +0.000 A 
ATOM     11  C   UNL     1       4.128   6.911  17.340  0.00  0.00    +0.000 A 
ATOM     12  C   UNL     1       3.741   5.933  18.232  0.00  0.00    +0.000 A 
ENDROOT
BRANCH   9  13
ATOM     13  C   UNL     1       6.341   4.744  15.067  0.00  0.00    +0.000 C 
ATOM     14  N   UNL     1       7.597   5.277  14.986  0.00  0.00    +0.000 N 
ATOM     15  O   UNL     1       5.980   3.911  14.243  0.00  0.00    +0.000 OA
ATOM     16  H   UNL     1       7.989   5.963  15.609  0.00  0.00    +0.000 HD
ATOM     17  H   UNL     1       8.177   4.945  14.226  0.00  0.00    +0.000 HD
ENDBRANCH   9  13
TORSDOF 1
ENDMDL
MODEL 5
REMARK VINA RESULT:      -6.6      1.971      5.402
REMARK  Name = 
REMARK  3 active torsions:
REMARK  status: ('A' for Active; 'I' for Inactive)
REMARK    1  A    between atoms: C_1  and  N_2
REMARK    2  A    between atoms: N_5  and  C_6
REMARK    3  A    between atoms: C_9  and  C_10
REMARK                            x       y       z     vdW  Elec       q    Type
REMARK                         _______ _______ _______ _____ _____    ______ ____
ROOT
ATOM      1  C   UNL     1       6.772   4.411  16.186  0.00  0.00    +0.000 C 
ATOM      2  N   UNL     1       5.571   4.955  16.749  0.00  0.00    +0.000 N 
ATOM      3  C   UNL     1       5.270   6.331  16.850  0.00  0.00    +0.000 A 
ATOM      4  O   UNL     1       5.967   7.262  16.481  0.00  0.00    +0.000 OA
ATOM      5  N   UNL     1       4.001   6.409  17.462  0.00  0.00    +0.000 N 
ATOM      6  C   UNL     1       3.292   7.622  17.750  0.00  0.00    +0.000 C 
ATOM      7  C   UNL     1       3.539   5.114  17.726  0.00  0.00    +0.000 A 
ATOM      8  C   UNL     1       2.361   4.689  18.304  0.00  0.00    +0.000 A 
ATOM      9  C   UNL     1       2.161   3.303  18.439  0.00  0.00    +0.000 A 
ATOM     10  C   UNL     1       3.152   2.396  17.988  0.00  0.00    +0.000 A 
ATOM     11  C   UNL     1       4.343   2.851  17.404  0.00  0.00    +0.000 A 
ATOM     12  C   UNL     1       4.510   4.214  17.285  0.00  0.00    +0.000 A 
ENDROOT
BRANCH   9  13
ATOM     13  C   UNL     1       0.879   2.860  19.064  0.00  0.00    +0.000 C 
ATOM     14  N   UNL     1       0.540   3.343  20.297  0.00  0.00    +0.000 N 
ATOM     15  O   UNL     1       0.130   2.075  18.492  0.00  0.00    +0.000 OA
ATOM     16  H   UNL     1       1.081   3.987  20.848  0.00  0.00    +0.000 HD
ATOM     17  H   UNL     1      -0.337   3.015  20.682  0.00  0.00    +0.000 HD
ENDBRANCH   9  13
TORSDOF 1
ENDMDL
MODEL 6
REMARK VINA RESULT:      -6.5      2.210      5.517
REMARK  Name = 
REMARK  3 active torsions:
REMARK  status: ('A' for Active; 'I' for Inactive)
REMARK    1  A    between atoms: C_1  and  N_2
REMARK    2  A    between atoms: N_5  and  C_6
REMARK    3  A    between atoms: C_9  and  C_10
REMARK                            x       y       z     vdW  Elec       q    Type
REMARK                         _______ _______ _______ _____ _____    ______ ____
ROOT
ATOM      1  C   UNL     1       5.309   4.257  14.960  0.00  0.00    +0.000 C 
ATOM      2  N   UNL     1       5.413   4.402  16.383  0.00  0.00    +0.000 N 
ATOM      3  C   UNL     1       6.482   5.025  17.061  0.00  0.00    +0.000 A 
ATOM      4  O   UNL     1       7.472   5.534  16.559  0.00  0.00    +0.000 OA
ATOM      5  N   UNL     1       6.174   4.941  18.436  0.00  0.00    +0.000 N 
ATOM      6  C   UNL     1       6.982   5.463  19.500  0.00  0.00    +0.000 C 
ATOM      7  C   UNL     1       4.947   4.285  18.591  0.00  0.00    +0.000 A 
ATOM      8  C   UNL     1       4.241   3.977  19.735  0.00  0.00    +0.000 A 
ATOM      9  C   UNL     1       3.013   3.307  19.585  0.00  0.00    +0.000 A 
ATOM     10  C   UNL     1       2.541   2.972  18.292  0.00  0.00    +0.000 A 
ATOM     11  C   UNL     1       3.277   3.295  17.142  0.00  0.00    +0.000 A 
ATOM     12  C   UNL     1       4.476   3.952  17.321  0.00  0.00    +0.000 A 
ENDROOT
BRANCH   9  13
ATOM     13  C   UNL     1       2.259   2.984  20.833  0.00  0.00    +0.000 C 
ATOM     14  N   UNL     1       0.900   3.133  20.844  0.00  0.00    +0.000 N 
ATOM     15  O   UNL     1       2.836   2.591  21.841  0.00  0.00    +0.000 OA
ATOM     16  H   UNL     1       0.334   3.448  20.075  0.00  0.00    +0.000 HD
ATOM     17  H   UNL     1       0.431   2.904  21.712  0.00  0.00    +0.000 HD
ENDBRANCH   9  13
TORSDOF 1
ENDMDL
MODEL 7
REMARK VINA RESULT:      -6.3      1.860      5.561
REMARK  Name = 
REMARK  3 active torsions:
REMARK  status: ('A' for Active; 'I' for Inactive)
REMARK    1  A    between atoms: C_1  and  N_2
REMARK    2  A    between atoms: N_5  and  C_6
REMARK    3  A    between atoms: C_9  and  C_10
REMARK                            x       y       z     vdW  Elec       q    Type
REMARK                         _______ _______ _______ _____ _____    ______ ____
ROOT
ATOM      1  C   UNL     1       5.925   3.896  15.500  0.00  0.00    +0.000 C 
ATOM      2  N   UNL     1       5.076   4.615  16.405  0.00  0.00    +0.000 N 
ATOM      3  C   UNL     1       4.840   6.006  16.367  0.00  0.00    +0.000 A 
ATOM      4  O   UNL     1       5.307   6.808  15.574  0.00  0.00    +0.000 OA
ATOM      5  N   UNL     1       3.953   6.280  17.430  0.00  0.00    +0.000 N 
ATOM      6  C   UNL     1       3.428   7.574  17.759  0.00  0.00    +0.000 C 
ATOM      7  C   UNL     1       3.655   5.086  18.098  0.00  0.00    +0.000 A 
ATOM      8  C   UNL     1       2.839   4.854  19.185  0.00  0.00    +0.000 A 
ATOM      9  C   UNL     1       2.723   3.529  19.645  0.00  0.00    +0.000 A 
ATOM     10  C   UNL     1       3.432   2.488  18.995  0.00  0.00    +0.000 A 
ATOM     11  C   UNL     1       4.257   2.749  17.891  0.00  0.00    +0.000 A 
ATOM     12  C   UNL     1       4.350   4.056  17.463  0.00  0.00    +0.000 A 
ENDROOT
BRANCH   9  13
ATOM     13  C   UNL     1       1.833   3.294  20.820  0.00  0.00    +0.000 C 
ATOM     14  N   UNL     1       0.494   3.118  20.613  0.00  0.00    +0.000 N 
ATOM     15  O   UNL     1       2.282   3.257  21.961  0.00  0.00    +0.000 OA
ATOM     16  H   UNL     1       0.027   3.131  19.722  0.00  0.00    +0.000 HD
ATOM     17  H   UNL     1      -0.072   2.963  21.438  0.00  0.00    +0.000 HD
ENDBRANCH   9  13
TORSDOF 1
ENDMDL
MODEL 8
REMARK VINA RESULT:      -6.3      1.604      2.852
REMARK  Name = 
REMARK  3 active torsions:
REMARK  status: ('A' for Active; 'I' for Inactive)
REMARK    1  A    between atoms: C_1  and  N_2
REMARK    2  A    between atoms: N_5  and  C_6
REMARK    3  A    between atoms: C_9  and  C_10
REMARK                            x       y       z     vdW  Elec       q    Type
REMARK                         _______ _______ _______ _____ _____    ______ ____
ROOT
ATOM      1  C   UNL     1       1.696   2.076  18.873  0.00  0.00    +0.000 C 
ATOM      2  N   UNL     1       2.204   3.416  18.894  0.00  0.00    +0.000 N 
ATOM      3  C   UNL     1       1.664   4.480  19.649  0.00  0.00    +0.000 A 
ATOM      4  O   UNL     1       0.697   4.433  20.393  0.00  0.00    +0.000 OA
ATOM      5  N   UNL     1       2.468   5.605  19.371  0.00  0.00    +0.000 N 
ATOM      6  C   UNL     1       2.291   6.911  19.936  0.00  0.00    +0.000 C 
ATOM      7  C   UNL     1       3.475   5.237  18.470  0.00  0.00    +0.000 A 
ATOM      8  C   UNL     1       4.492   5.986  17.916  0.00  0.00    +0.000 A 
ATOM      9  C   UNL     1       5.375   5.339  17.032  0.00  0.00    +0.000 A 
ATOM     10  C   UNL     1       5.202   3.963  16.738  0.00  0.00    +0.000 A 
ATOM     11  C   UNL     1       4.160   3.221  17.313  0.00  0.00    +0.000 A 
ATOM     12  C   UNL     1       3.312   3.883  18.176  0.00  0.00    +0.000 A 
ENDROOT
BRANCH   9  13
ATOM     13  C   UNL     1       6.472   6.164  16.444  0.00  0.00    +0.000 C 
ATOM     14  N   UNL     1       7.308   5.596  15.524  0.00  0.00    +0.000 N 
ATOM     15  O   UNL     1       6.633   7.334  16.771  0.00  0.00    +0.000 OA
ATOM     16  H   UNL     1       7.262   4.648  15.189  0.00  0.00    +0.000 HD
ATOM     17  H   UNL     1       8.038   6.191  15.153  0.00  0.00    +0.000 HD
ENDBRANCH   9  13
TORSDOF 1
ENDMDL
MODEL 9
REMARK VINA RESULT:      -6.3      1.851      5.500
REMARK  Name = 
REMARK  3 active torsions:
REMARK  status: ('A' for Active; 'I' for Inactive)
REMARK    1  A    between atoms: C_1  and  N_2
REMARK    2  A    between atoms: N_5  and  C_6
REMARK    3  A    between atoms: C_9  and  C_10
REMARK                            x       y       z     vdW  Elec       q    Type
REMARK                         _______ _______ _______ _____ _____    ______ ____
ROOT
ATOM      1  C   UNL     1       5.487   4.099  14.352  0.00  0.00    +0.000 C 
ATOM      2  N   UNL     1       5.666   4.593  15.686  0.00  0.00    +0.000 N 
ATOM      3  C   UNL     1       6.752   5.382  16.123  0.00  0.00    +0.000 A 
ATOM      4  O   UNL     1       7.695   5.767  15.449  0.00  0.00    +0.000 OA
ATOM      5  N   UNL     1       6.525   5.636  17.492  0.00  0.00    +0.000 N 
ATOM      6  C   UNL     1       7.375   6.418  18.343  0.00  0.00    +0.000 C 
ATOM      7  C   UNL     1       5.330   5.019  17.880  0.00  0.00    +0.000 A 
ATOM      8  C   UNL     1       4.699   4.993  19.106  0.00  0.00    +0.000 A 
ATOM      9  C   UNL     1       3.485   4.286  19.203  0.00  0.00    +0.000 A 
ATOM     10  C   UNL     1       2.952   3.634  18.063  0.00  0.00    +0.000 A 
ATOM     11  C   UNL     1       3.612   3.674  16.826  0.00  0.00    +0.000 A 
ATOM     12  C   UNL     1       4.798   4.374  16.763  0.00  0.00    +0.000 A 
ENDROOT
BRANCH   9  13
ATOM     13  C   UNL     1       2.814   4.270  20.536  0.00  0.00    +0.000 C 
ATOM     14  N   UNL     1       2.392   5.451  21.080  0.00  0.00    +0.000 N 
ATOM     15  O   UNL     1       2.636   3.222  21.146  0.00  0.00    +0.000 OA
ATOM     16  H   UNL     1       2.490   6.362  20.664  0.00  0.00    +0.000 HD
ATOM     17  H   UNL     1       1.944   5.394  21.986  0.00  0.00    +0.000 HD
ENDBRANCH   9  13
TORSDOF 1
ENDMDL
