MODEL 1
REMARK VINA RESULT:      -8.4      0.000      0.000
REMARK  Name = 
REMARK  6 active torsions:
REMARK  status: ('A' for Active; 'I' for Inactive)
REMARK    1  A    between atoms: C_1  and  C_2
REMARK    2  A    between atoms: C_2  and  C_3
REMARK    3  A    between atoms: C_2  and  N_4
REMARK    4  A    between atoms: N_4  and  C_5
REMARK    5  A    between atoms: C_6  and  C_8
REMARK    6  A    between atoms: C_10  and  C_11
REMARK                            x       y       z     vdW  Elec       q    Type
REMARK                         _______ _______ _______ _____ _____    ______ ____
ROOT
ATOM      1  C   UNL     1       2.386   7.076  18.743  0.00  0.00    +0.000 A 
ATOM      2  N   UNL     1       3.424   6.651  18.001  0.00  0.00    +0.000 NA
ATOM      3  C   UNL     1       3.952   5.439  18.279  0.00  0.00    +0.000 A 
ATOM      4  C   UNL     1       3.419   4.624  19.310  0.00  0.00    +0.000 A 
ATOM      5  C   UNL     1       3.913   3.366  19.770  0.00  0.00    +0.000 A 
ATOM      6  C   UNL     1       3.228   2.613  20.725  0.00  0.00    +0.000 A 
ATOM      7  C   UNL     1       2.061   3.114  21.276  0.00  0.00    +0.000 A 
ATOM      8  C   UNL     1       1.608   4.374  20.888  0.00  0.00    +0.000 A 
ATOM      9  C   UNL     1       2.267   5.133  19.932  0.00  0.00    +0.000 A 
ATOM     10  N   UNL     1       1.759   6.332  19.662  0.00  0.00    +0.000 NA
ENDROOT
BRANCH   3  11
ATOM     11  C   UNL     1       5.071   5.037  17.370  0.00  0.00    +0.000 A 
ATOM     12  C   UNL     1       4.797   4.615  16.045  0.00  0.00    +0.000 A 
ATOM     13  C   UNL     1       5.800   4.204  15.159  0.00  0.00    +0.000 A 
ATOM     14  C   UNL     1       7.130   4.278  15.539  0.00  0.00    +0.000 A 
ATOM     15  C   UNL     1       7.449   4.741  16.811  0.00  0.00    +0.000 A 
ATOM     16  C   UNL     1       6.440   5.093  17.725  0.00  0.00    +0.000 A 
ATOM     17 CL   UNL     1       7.003   5.543  19.303  0.00  0.00    +0.000 Cl
ENDBRANCH   3  11
BRANCH   1  20
ATOM     18  N   UNL     1       1.300   9.232  19.594  0.00  0.00    +0.000 N 
ATOM     19  C   UNL     1       1.072   8.662  20.916  0.00  0.00    +0.000 C 
ATOM     20  C   UNL     1       1.920   8.514  18.537  0.00  0.00    +0.000 C 
ATOM     21  O   UNL     1       2.107   9.036  17.433  0.00  0.00    +0.000 OA
BRANCH  18  23
ATOM     22  C   UNL     1      -0.617  10.654  18.871  0.00  0.00    +0.000 C 
ATOM     23  C   UNL     1       0.840  10.616  19.345  0.00  0.00    +0.000 C 
ATOM     24  C   UNL     1       1.044  11.512  20.570  0.00  0.00    +0.000 C 
ENDBRANCH  18  23
ENDBRANCH   1  20
TORSDOF 3
ENDMDL
MODEL 2
REMARK VINA RESULT:      -8.2      1.172      1.512
REMARK  Name = 
REMARK  6 active torsions:
REMARK  status: ('A' for Active; 'I' for Inactive)
REMARK    1  A    between atoms: C_1  and  C_2
REMARK    2  A    between atoms: C_2  and  C_3
REMARK    3  A    between atoms: C_2  and  N_4
REMARK    4  A    between atoms: N_4  and  C_5
REMARK    5  A    between atoms: C_6  and  C_8
REMARK    6  A    between atoms: C_10  and  C_11
REMARK                            x       y       z     vdW  Elec       q    Type
REMARK                         _______ _______ _______ _____ _____    ______ ____
ROOT
ATOM      1  C   UNL     1       2.257   6.910  19.928  0.00  0.00    +0.000 A 
ATOM      2  N   UNL     1       3.238   6.780  19.018  0.00  0.00    +0.000 NA
ATOM      3  C   UNL     1       3.868   5.588  18.927  0.00  0.00    +0.000 A 
ATOM      4  C   UNL     1       3.497   4.496  19.751  0.00  0.00    +0.000 A 
ATOM      5  C   UNL     1       4.115   3.211  19.826  0.00  0.00    +0.000 A 
ATOM      6  C   UNL     1       3.581   2.184  20.607  0.00  0.00    +0.000 A 
ATOM      7  C   UNL     1       2.448   2.424  21.363  0.00  0.00    +0.000 A 
ATOM      8  C   UNL     1       1.877   3.696  21.355  0.00  0.00    +0.000 A 
ATOM      9  C   UNL     1       2.385   4.728  20.577  0.00  0.00    +0.000 A 
ATOM     10  N   UNL     1       1.777   5.906  20.671  0.00  0.00    +0.000 NA
ENDROOT
BRANCH   3  11
ATOM     11  C   UNL     1       4.912   5.529  17.855  0.00  0.00    +0.000 A 
ATOM     12  C   UNL     1       4.531   5.483  16.492  0.00  0.00    +0.000 A 
ATOM     13  C   UNL     1       5.460   5.401  15.448  0.00  0.00    +0.000 A 
ATOM     14  C   UNL     1       6.816   5.446  15.726  0.00  0.00    +0.000 A 
ATOM     15  C   UNL     1       7.236   5.549  17.048  0.00  0.00    +0.000 A 
ATOM     16  C   UNL     1       6.304   5.566  18.102  0.00  0.00    +0.000 A 
ATOM     17 CL   UNL     1       6.996   5.586  19.693  0.00  0.00    +0.000 Cl
ENDBRANCH   3  11
BRANCH   1  20
ATOM     18  N   UNL     1       1.453   9.172  19.040  0.00  0.00    +0.000 N 
ATOM     19  C   UNL     1       1.743   8.797  17.661  0.00  0.00    +0.000 C 
ATOM     20  C   UNL     1       1.681   8.307  20.142  0.00  0.00    +0.000 C 
ATOM     21  O   UNL     1       1.410   8.656  21.296  0.00  0.00    +0.000 OA
BRANCH  18  23
ATOM     22  C   UNL     1       1.716  11.603  18.551  0.00  0.00    +0.000 C 
ATOM     23  C   UNL     1       0.915  10.528  19.293  0.00  0.00    +0.000 C 
ATOM     24  C   UNL     1      -0.576  10.620  18.957  0.00  0.00    +0.000 C 
ENDBRANCH  18  23
ENDBRANCH   1  20
TORSDOF 3
ENDMDL
MODEL 3
REMARK VINA RESULT:      -7.9      1.750      4.379
REMARK  Name = 
REMARK  6 active torsions:
REMARK  status: ('A' for Active; 'I' for Inactive)
REMARK    1  A    between atoms: C_1  and  C_2
REMARK    2  A    between atoms: C_2  and  C_3
REMARK    3  A    between atoms: C_2  and  N_4
REMARK    4  A    between atoms: N_4  and  C_5
REMARK    5  A    between atoms: C_6  and  C_8
REMARK    6  A    between atoms: C_10  and  C_11
REMARK                            x       y       z     vdW  Elec       q    Type
REMARK                         _______ _______ _______ _____ _____    ______ ____
ROOT
ATOM      1  C   UNL     1       2.679   7.856  18.229  0.00  0.00    +0.000 A 
ATOM      2  N   UNL     1       2.263   6.812  18.968  0.00  0.00    +0.000 NA
ATOM      3  C   UNL     1       2.847   5.611  18.759  0.00  0.00    +0.000 A 
ATOM      4  C   UNL     1       3.882   5.453  17.804  0.00  0.00    +0.000 A 
ATOM      5  C   UNL     1       4.536   4.244  17.418  0.00  0.00    +0.000 A 
ATOM      6  C   UNL     1       5.620   4.243  16.538  0.00  0.00    +0.000 A 
ATOM      7  C   UNL     1       6.049   5.438  15.989  0.00  0.00    +0.000 A 
ATOM      8  C   UNL     1       5.373   6.617  16.301  0.00  0.00    +0.000 A 
ATOM      9  C   UNL     1       4.301   6.641  17.182  0.00  0.00    +0.000 A 
ATOM     10  N   UNL     1       3.716   7.818  17.383  0.00  0.00    +0.000 NA
ENDROOT
BRANCH   3  11
ATOM     11  C   UNL     1       2.348   4.525  19.661  0.00  0.00    +0.000 A 
ATOM     12  C   UNL     1       2.657   4.548  21.043  0.00  0.00    +0.000 A 
ATOM     13  C   UNL     1       2.241   3.547  21.929  0.00  0.00    +0.000 A 
ATOM     14  C   UNL     1       1.425   2.523  21.479  0.00  0.00    +0.000 A 
ATOM     15  C   UNL     1       1.048   2.491  20.140  0.00  0.00    +0.000 A 
ATOM     16  C   UNL     1       1.519   3.460  19.235  0.00  0.00    +0.000 A 
ATOM     17 CL   UNL     1       1.046   3.214  17.584  0.00  0.00    +0.000 Cl
ENDBRANCH   3  11
BRANCH   1  20
ATOM     18  N   UNL     1       1.197   9.475  19.546  0.00  0.00    +0.000 N 
ATOM     19  C   UNL     1       1.190   8.606  20.716  0.00  0.00    +0.000 C 
ATOM     20  C   UNL     1       1.891   9.156  18.348  0.00  0.00    +0.000 C 
ATOM     21  O   UNL     1       1.885   9.926  17.381  0.00  0.00    +0.000 OA
BRANCH  18  23
ATOM     22  C   UNL     1      -1.030  10.534  19.173  0.00  0.00    +0.000 C 
ATOM     23  C   UNL     1       0.425  10.736  19.611  0.00  0.00    +0.000 C 
ATOM     24  C   UNL     1       0.498  11.376  21.001  0.00  0.00    +0.000 C 
ENDBRANCH  18  23
ENDBRANCH   1  20
TORSDOF 3
ENDMDL
MODEL 4
REMARK VINA RESULT:      -7.9      1.574      2.060
REMARK  Name = 
REMARK  6 active torsions:
REMARK  status: ('A' for Active; 'I' for Inactive)
REMARK    1  A    between atoms: C_1  and  C_2
REMARK    2  A    between atoms: C_2  and  C_3
REMARK    3  A    between atoms: C_2  and  N_4
REMARK    4  A    between atoms: N_4  and  C_5
REMARK    5  A    between atoms: C_6  and  C_8
REMARK    6  A    between atoms: C_10  and  C_11
REMARK                            x       y       z     vdW  Elec       q    Type
REMARK                         _______ _______ _______ _____ _____    ______ ____
ROOT
ATOM      1  C   UNL     1       2.191   6.912  19.969  0.00  0.00    +0.000 A 
ATOM      2  N   UNL     1       3.149   6.754  19.039  0.00  0.00    +0.000 NA
ATOM      3  C   UNL     1       3.773   5.558  18.964  0.00  0.00    +0.000 A 
ATOM      4  C   UNL     1       3.419   4.489  19.825  0.00  0.00    +0.000 A 
ATOM      5  C   UNL     1       4.035   3.204  19.919  0.00  0.00    +0.000 A 
ATOM      6  C   UNL     1       3.518   2.200  20.739  0.00  0.00    +0.000 A 
ATOM      7  C   UNL     1       2.404   2.464  21.516  0.00  0.00    +0.000 A 
ATOM      8  C   UNL     1       1.836   3.737  21.488  0.00  0.00    +0.000 A 
ATOM      9  C   UNL     1       2.328   4.746  20.672  0.00  0.00    +0.000 A 
ATOM     10  N   UNL     1       1.725   5.929  20.749  0.00  0.00    +0.000 NA
ENDROOT
BRANCH   3  11
ATOM     11  C   UNL     1       4.791   5.467  17.869  0.00  0.00    +0.000 A 
ATOM     12  C   UNL     1       5.975   6.242  17.931  0.00  0.00    +0.000 A 
ATOM     13  C   UNL     1       6.948   6.219  16.925  0.00  0.00    +0.000 A 
ATOM     14  C   UNL     1       6.812   5.353  15.853  0.00  0.00    +0.000 A 
ATOM     15  C   UNL     1       5.693   4.531  15.780  0.00  0.00    +0.000 A 
ATOM     16  C   UNL     1       4.682   4.600  16.757  0.00  0.00    +0.000 A 
ATOM     17 CL   UNL     1       3.303   3.590  16.459  0.00  0.00    +0.000 Cl
ENDBRANCH   3  11
BRANCH   1  20
ATOM     18  N   UNL     1       1.423   9.172  19.045  0.00  0.00    +0.000 N 
ATOM     19  C   UNL     1       1.733   8.782  17.676  0.00  0.00    +0.000 C 
ATOM     20  C   UNL     1       1.624   8.315  20.160  0.00  0.00    +0.000 C 
ATOM     21  O   UNL     1       1.335   8.678  21.305  0.00  0.00    +0.000 OA
BRANCH  18  23
ATOM     22  C   UNL     1       1.730  11.598  18.557  0.00  0.00    +0.000 C 
ATOM     23  C   UNL     1       0.893  10.535  19.277  0.00  0.00    +0.000 C 
ATOM     24  C   UNL     1      -0.585  10.643  18.892  0.00  0.00    +0.000 C 
ENDBRANCH  18  23
ENDBRANCH   1  20
TORSDOF 3
ENDMDL
MODEL 5
REMARK VINA RESULT:      -7.8      1.159      1.650
REMARK  Name = 
REMARK  6 active torsions:
REMARK  status: ('A' for Active; 'I' for Inactive)
REMARK    1  A    between atoms: C_1  and  C_2
REMARK    2  A    between atoms: C_2  and  C_3
REMARK    3  A    between atoms: C_2  and  N_4
REMARK    4  A    between atoms: N_4  and  C_5
REMARK    5  A    between atoms: C_6  and  C_8
REMARK    6  A    between atoms: C_10  and  C_11
REMARK                            x       y       z     vdW  Elec       q    Type
REMARK                         _______ _______ _______ _____ _____    ______ ____
ROOT
ATOM      1  C   UNL     1       2.328   7.083  18.883  0.00  0.00    +0.000 A 
ATOM      2  N   UNL     1       3.588   6.748  18.556  0.00  0.00    +0.000 NA
ATOM      3  C   UNL     1       4.060   5.554  18.980  0.00  0.00    +0.000 A 
ATOM      4  C   UNL     1       3.248   4.668  19.732  0.00  0.00    +0.000 A 
ATOM      5  C   UNL     1       3.626   3.419  20.312  0.00  0.00    +0.000 A 
ATOM      6  C   UNL     1       2.695   2.590  20.940  0.00  0.00    +0.000 A 
ATOM      7  C   UNL     1       1.379   3.003  21.044  0.00  0.00    +0.000 A 
ATOM      8  C   UNL     1       1.012   4.252  20.545  0.00  0.00    +0.000 A 
ATOM      9  C   UNL     1       1.919   5.087  19.907  0.00  0.00    +0.000 A 
ATOM     10  N   UNL     1       1.463   6.266  19.498  0.00  0.00    +0.000 NA
ENDROOT
BRANCH   3  11
ATOM     11  C   UNL     1       5.455   5.254  18.527  0.00  0.00    +0.000 A 
ATOM     12  C   UNL     1       6.556   5.549  19.367  0.00  0.00    +0.000 A 
ATOM     13  C   UNL     1       7.883   5.314  18.987  0.00  0.00    +0.000 A 
ATOM     14  C   UNL     1       8.156   4.696  17.779  0.00  0.00    +0.000 A 
ATOM     15  C   UNL     1       7.102   4.335  16.946  0.00  0.00    +0.000 A 
ATOM     16  C   UNL     1       5.772   4.629  17.298  0.00  0.00    +0.000 A 
ATOM     17 CL   UNL     1       4.586   4.214  16.100  0.00  0.00    +0.000 Cl
ENDBRANCH   3  11
BRANCH   1  20
ATOM     18  N   UNL     1       1.247   9.308  19.540  0.00  0.00    +0.000 N 
ATOM     19  C   UNL     1       1.005   8.853  20.903  0.00  0.00    +0.000 C 
ATOM     20  C   UNL     1       1.872   8.501  18.553  0.00  0.00    +0.000 C 
ATOM     21  O   UNL     1       2.073   8.928  17.410  0.00  0.00    +0.000 OA
BRANCH  18  23
ATOM     22  C   UNL     1      -0.665  10.681  18.716  0.00  0.00    +0.000 C 
ATOM     23  C   UNL     1       0.798  10.670  19.172  0.00  0.00    +0.000 C 
ATOM     24  C   UNL     1       1.030  11.671  20.307  0.00  0.00    +0.000 C 
ENDBRANCH  18  23
ENDBRANCH   1  20
TORSDOF 3
ENDMDL
MODEL 6
REMARK VINA RESULT:      -7.7      1.650      2.209
REMARK  Name = 
REMARK  6 active torsions:
REMARK  status: ('A' for Active; 'I' for Inactive)
REMARK    1  A    between atoms: C_1  and  C_2
REMARK    2  A    between atoms: C_2  and  C_3
REMARK    3  A    between atoms: C_2  and  N_4
REMARK    4  A    between atoms: N_4  and  C_5
REMARK    5  A    between atoms: C_6  and  C_8
REMARK    6  A    between atoms: C_10  and  C_11
REMARK                            x       y       z     vdW  Elec       q    Type
REMARK                         _______ _______ _______ _____ _____    ______ ____
ROOT
ATOM      1  C   UNL     1       2.153   6.687  19.854  0.00  0.00    +0.000 A 
ATOM      2  N   UNL     1       3.401   6.514  19.385  0.00  0.00    +0.000 NA
ATOM      3  C   UNL     1       3.844   5.249  19.205  0.00  0.00    +0.000 A 
ATOM      4  C   UNL     1       3.016   4.134  19.482  0.00  0.00    +0.000 A 
ATOM      5  C   UNL     1       3.365   2.751  19.418  0.00  0.00    +0.000 A 
ATOM      6  C   UNL     1       2.418   1.744  19.614  0.00  0.00    +0.000 A 
ATOM      7  C   UNL     1       1.113   2.089  19.923  0.00  0.00    +0.000 A 
ATOM      8  C   UNL     1       0.776   3.435  20.060  0.00  0.00    +0.000 A 
ATOM      9  C   UNL     1       1.700   4.451  19.857  0.00  0.00    +0.000 A 
ATOM     10  N   UNL     1       1.273   5.696  20.044  0.00  0.00    +0.000 NA
ENDROOT
BRANCH   3  11
ATOM     11  C   UNL     1       5.227   5.163  18.636  0.00  0.00    +0.000 A 
ATOM     12  C   UNL     1       6.344   5.542  19.419  0.00  0.00    +0.000 A 
ATOM     13  C   UNL     1       7.657   5.507  18.932  0.00  0.00    +0.000 A 
ATOM     14  C   UNL     1       7.910   5.009  17.665  0.00  0.00    +0.000 A 
ATOM     15  C   UNL     1       6.848   4.571  16.882  0.00  0.00    +0.000 A 
ATOM     16  C   UNL     1       5.523   4.666  17.345  0.00  0.00    +0.000 A 
ATOM     17 CL   UNL     1       4.309   4.180  16.203  0.00  0.00    +0.000 Cl
ENDBRANCH   3  11
BRANCH   1  20
ATOM     18  N   UNL     1       1.470   9.067  19.208  0.00  0.00    +0.000 N 
ATOM     19  C   UNL     1       1.577   8.772  17.785  0.00  0.00    +0.000 C 
ATOM     20  C   UNL     1       1.733   8.107  20.220  0.00  0.00    +0.000 C 
ATOM     21  O   UNL     1       1.618   8.391  21.417  0.00  0.00    +0.000 OA
BRANCH  18  23
ATOM     22  C   UNL     1       1.677  11.491  18.659  0.00  0.00    +0.000 C 
ATOM     23  C   UNL     1       1.088  10.441  19.607  0.00  0.00    +0.000 C 
ATOM     24  C   UNL     1      -0.430  10.597  19.728  0.00  0.00    +0.000 C 
ENDBRANCH  18  23
ENDBRANCH   1  20
TORSDOF 3
ENDMDL
MODEL 7
REMARK VINA RESULT:      -7.6      1.731      4.118
REMARK  Name = 
REMARK  6 active torsions:
REMARK  status: ('A' for Active; 'I' for Inactive)
REMARK    1  A    between atoms: C_1  and  C_2
REMARK    2  A    between atoms: C_2  and  C_3
REMARK    3  A    between atoms: C_2  and  N_4
REMARK    4  A    between atoms: N_4  and  C_5
REMARK    5  A    between atoms: C_6  and  C_8
REMARK    6  A    between atoms: C_10  and  C_11
REMARK                            x       y       z     vdW  Elec       q    Type
REMARK                         _______ _______ _______ _____ _____    ______ ____
ROOT
ATOM      1  C   UNL     1       2.737   7.744  18.071  0.00  0.00    +0.000 A 
ATOM      2  N   UNL     1       2.160   6.613  18.510  0.00  0.00    +0.000 NA
ATOM      3  C   UNL     1       2.765   5.437  18.228  0.00  0.00    +0.000 A 
ATOM      4  C   UNL     1       3.984   5.394  17.506  0.00  0.00    +0.000 A 
ATOM      5  C   UNL     1       4.696   4.237  17.067  0.00  0.00    +0.000 A 
ATOM      6  C   UNL     1       5.948   4.333  16.454  0.00  0.00    +0.000 A 
ATOM      7  C   UNL     1       6.497   5.582  16.225  0.00  0.00    +0.000 A 
ATOM      8  C   UNL     1       5.779   6.722  16.584  0.00  0.00    +0.000 A 
ATOM      9  C   UNL     1       4.540   6.648  17.204  0.00  0.00    +0.000 A 
ATOM     10  N   UNL     1       3.934   7.800  17.474  0.00  0.00    +0.000 NA
ENDROOT
BRANCH   3  11
ATOM     11  C   UNL     1       2.071   4.240  18.799  0.00  0.00    +0.000 A 
ATOM     12  C   UNL     1       1.523   3.257  17.940  0.00  0.00    +0.000 A 
ATOM     13  C   UNL     1       0.841   2.131  18.416  0.00  0.00    +0.000 A 
ATOM     14  C   UNL     1       0.752   1.902  19.779  0.00  0.00    +0.000 A 
ATOM     15  C   UNL     1       1.327   2.812  20.660  0.00  0.00    +0.000 A 
ATOM     16  C   UNL     1       1.956   3.977  20.185  0.00  0.00    +0.000 A 
ATOM     17 CL   UNL     1       2.521   5.061  21.416  0.00  0.00    +0.000 Cl
ENDBRANCH   3  11
BRANCH   1  20
ATOM     18  N   UNL     1       1.299   9.337  19.466  0.00  0.00    +0.000 N 
ATOM     19  C   UNL     1       1.330   8.446  20.619  0.00  0.00    +0.000 C 
ATOM     20  C   UNL     1       1.953   9.042  18.240  0.00  0.00    +0.000 C 
ATOM     21  O   UNL     1       1.915   9.830  17.289  0.00  0.00    +0.000 OA
BRANCH  18  23
ATOM     22  C   UNL     1      -0.944  10.396  19.207  0.00  0.00    +0.000 C 
ATOM     23  C   UNL     1       0.529  10.596  19.580  0.00  0.00    +0.000 C 
ATOM     24  C   UNL     1       0.664  11.220  20.972  0.00  0.00    +0.000 C 
ENDBRANCH  18  23
ENDBRANCH   1  20
TORSDOF 3
ENDMDL
MODEL 8
REMARK VINA RESULT:      -7.5      1.554      2.005
REMARK  Name = 
REMARK  6 active torsions:
REMARK  status: ('A' for Active; 'I' for Inactive)
REMARK    1  A    between atoms: C_1  and  C_2
REMARK    2  A    between atoms: C_2  and  C_3
REMARK    3  A    between atoms: C_2  and  N_4
REMARK    4  A    between atoms: N_4  and  C_5
REMARK    5  A    between atoms: C_6  and  C_8
REMARK    6  A    between atoms: C_10  and  C_11
REMARK                            x       y       z     vdW  Elec       q    Type
REMARK                         _______ _______ _______ _____ _____    ______ ____
ROOT
ATOM      1  C   UNL     1       2.390   6.817  18.297  0.00  0.00    +0.000 A 
ATOM      2  N   UNL     1       3.715   6.593  18.286  0.00  0.00    +0.000 NA
ATOM      3  C   UNL     1       4.147   5.321  18.432  0.00  0.00    +0.000 A 
ATOM      4  C   UNL     1       3.234   4.246  18.574  0.00  0.00    +0.000 A 
ATOM      5  C   UNL     1       3.535   2.871  18.814  0.00  0.00    +0.000 A 
ATOM      6  C   UNL     1       2.539   1.893  18.826  0.00  0.00    +0.000 A 
ATOM      7  C   UNL     1       1.219   2.265  18.645  0.00  0.00    +0.000 A 
ATOM      8  C   UNL     1       0.904   3.613  18.482  0.00  0.00    +0.000 A 
ATOM      9  C   UNL     1       1.880   4.600  18.455  0.00  0.00    +0.000 A 
ATOM     10  N   UNL     1       1.460   5.855  18.323  0.00  0.00    +0.000 NA
ENDROOT
BRANCH   3  11
ATOM     11  C   UNL     1       5.635   5.169  18.360  0.00  0.00    +0.000 A 
ATOM     12  C   UNL     1       6.444   5.549  19.459  0.00  0.00    +0.000 A 
ATOM     13  C   UNL     1       7.840   5.455  19.440  0.00  0.00    +0.000 A 
ATOM     14  C   UNL     1       8.479   4.896  18.346  0.00  0.00    +0.000 A 
ATOM     15  C   UNL     1       7.721   4.456  17.266  0.00  0.00    +0.000 A 
ATOM     16  C   UNL     1       6.322   4.609  17.258  0.00  0.00    +0.000 A 
ATOM     17 CL   UNL     1       5.538   4.111  15.792  0.00  0.00    +0.000 Cl
ENDBRANCH   3  11
BRANCH   1  20
ATOM     18  N   UNL     1       1.407   8.852  19.499  0.00  0.00    +0.000 N 
ATOM     19  C   UNL     1       1.286   8.123  20.755  0.00  0.00    +0.000 C 
ATOM     20  C   UNL     1       1.925   8.271  18.312  0.00  0.00    +0.000 C 
ATOM     21  O   UNL     1       2.025   8.926  17.269  0.00  0.00    +0.000 OA
BRANCH  18  23
ATOM     22  C   UNL     1      -0.465  10.378  18.874  0.00  0.00    +0.000 C 
ATOM     23  C   UNL     1       0.944  10.258  19.464  0.00  0.00    +0.000 C 
ATOM     24  C   UNL     1       1.021  10.916  20.845  0.00  0.00    +0.000 C 
ENDBRANCH  18  23
ENDBRANCH   1  20
TORSDOF 3
ENDMDL
MODEL 9
REMARK VINA RESULT:      -7.5      1.152      1.436
REMARK  Name = 
REMARK  6 active torsions:
REMARK  status: ('A' for Active; 'I' for Inactive)
REMARK    1  A    between atoms: C_1  and  C_2
REMARK    2  A    between atoms: C_2  and  C_3
REMARK    3  A    between atoms: C_2  and  N_4
REMARK    4  A    between atoms: N_4  and  C_5
REMARK    5  A    between atoms: C_6  and  C_8
REMARK    6  A    between atoms: C_10  and  C_11
REMARK                            x       y       z     vdW  Elec       q    Type
REMARK                         _______ _______ _______ _____ _____    ______ ____
ROOT
ATOM      1  C   UNL     1       2.315   7.308  18.841  0.00  0.00    +0.000 A 
ATOM      2  N   UNL     1       3.312   6.894  18.040  0.00  0.00    +0.000 NA
ATOM      3  C   UNL     1       3.869   5.687  18.287  0.00  0.00    +0.000 A 
ATOM      4  C   UNL     1       3.405   4.868  19.347  0.00  0.00    +0.000 A 
ATOM      5  C   UNL     1       3.938   3.615  19.778  0.00  0.00    +0.000 A 
ATOM      6  C   UNL     1       3.318   2.856  20.772  0.00  0.00    +0.000 A 
ATOM      7  C   UNL     1       2.180   3.345  21.390  0.00  0.00    +0.000 A 
ATOM      8  C   UNL     1       1.691   4.600  21.029  0.00  0.00    +0.000 A 
ATOM      9  C   UNL     1       2.286   5.365  20.035  0.00  0.00    +0.000 A 
ATOM     10  N   UNL     1       1.751   6.558  19.796  0.00  0.00    +0.000 NA
ENDROOT
BRANCH   3  11
ATOM     11  C   UNL     1       4.937   5.296  17.314  0.00  0.00    +0.000 A 
ATOM     12  C   UNL     1       6.154   6.019  17.264  0.00  0.00    +0.000 A 
ATOM     13  C   UNL     1       7.178   5.717  16.359  0.00  0.00    +0.000 A 
ATOM     14  C   UNL     1       7.056   4.621  15.520  0.00  0.00    +0.000 A 
ATOM     15  C   UNL     1       5.902   3.848  15.575  0.00  0.00    +0.000 A 
ATOM     16  C   UNL     1       4.845   4.189  16.439  0.00  0.00    +0.000 A 
ATOM     17 CL   UNL     1       3.434   3.187  16.305  0.00  0.00    +0.000 Cl
ENDBRANCH   3  11
BRANCH   1  20
ATOM     18  N   UNL     1       1.229   9.442  19.745  0.00  0.00    +0.000 N 
ATOM     19  C   UNL     1       1.054   8.860  21.070  0.00  0.00    +0.000 C 
ATOM     20  C   UNL     1       1.823   8.741  18.662  0.00  0.00    +0.000 C 
ATOM     21  O   UNL     1       1.966   9.274  17.557  0.00  0.00    +0.000 OA
BRANCH  18  23
ATOM     22  C   UNL     1      -0.754  10.850  19.193  0.00  0.00    +0.000 C 
ATOM     23  C   UNL     1       0.742  10.822  19.523  0.00  0.00    +0.000 C 
ATOM     24  C   UNL     1       1.061  11.736  20.709  0.00  0.00    +0.000 C 
ENDBRANCH  18  23
ENDBRANCH   1  20
TORSDOF 3
ENDMDL
