MODEL 1
REMARK VINA RESULT:      -6.5      0.000      0.000
REMARK  Name = 
REMARK  9 active torsions:
REMARK  status: ('A' for Active; 'I' for Inactive)
REMARK    1  A    between atoms: C_1  and  O_2
REMARK    2  A    between atoms: O_2  and  C_3
REMARK    3  A    between atoms: C_6  and  N_7
REMARK    4  A    between atoms: C_8  and  C_10
REMARK    5  A    between atoms: C_10  and  C_11
REMARK    6  A    between atoms: C_10  and  N_19
REMARK    7  A    between atoms: C_14  and  O_15
REMARK    8  A    between atoms: O_15  and  C_16
REMARK    9  A    between atoms: C_22  and  C_23
REMARK                            x       y       z     vdW  Elec       q    Type
REMARK                         _______ _______ _______ _____ _____    ______ ____
ROOT
ATOM      1  C   UNL     1       8.363  15.727  20.282  0.00  0.00    +0.000 C 
ENDROOT
BRANCH   1   2
ATOM      2  N   UNL     1       8.341  14.736  21.485  0.00  0.00    +0.000 N 
ATOM      3  C   UNL     1       8.316  15.885  22.336  0.00  0.00    +0.000 A 
ATOM      4  O   UNL     1       9.336  16.491  22.694  0.00  0.00    +0.000 OA
ATOM      5  C   UNL     1       7.091  15.824  23.243  0.00  0.00    +0.000 A 
ATOM      6  N   UNL     1       7.460  15.437  24.413  0.00  0.00    +0.000 NA
ATOM      7  C   UNL     1       8.297  14.288  24.180  0.00  0.00    +0.000 A 
ATOM      8  C   UNL     1       8.439  13.553  25.365  0.00  0.00    +0.000 A 
ATOM      9  C   UNL     1       8.183  12.201  25.322  0.00  0.00    +0.000 A 
ATOM     10  C   UNL     1       7.908  11.638  24.069  0.00  0.00    +0.000 A 
ATOM     11  C   UNL     1       8.036  12.366  22.807  0.00  0.00    +0.000 A 
ATOM     12  C   UNL     1       8.321  13.752  22.779  0.00  0.00    +0.000 A 
BRANCH   5  13
ATOM     13  C   UNL     1       5.803  15.373  22.691  0.00  0.00    +0.000 A 
ATOM     14  C   UNL     1       5.372  14.108  22.313  0.00  0.00    +0.000 A 
ATOM     15  C   UNL     1       4.052  14.244  21.816  0.00  0.00    +0.000 A 
ATOM     16  C   UNL     1       3.790  15.591  21.804  0.00  0.00    +0.000 A 
ATOM     17  O   UNL     1       4.873  16.275  22.238  0.00  0.00    +0.000 OA
ENDBRANCH   5  13
ENDBRANCH   1   2
BRANCH   1  18
ATOM     18  C   UNL     1       7.078  15.854  19.314  0.00  0.00    +0.000 A 
ATOM     19  C   UNL     1       6.258  17.017  19.295  0.00  0.00    +0.000 A 
ATOM     20  C   UNL     1       4.992  17.053  18.678  0.00  0.00    +0.000 A 
ATOM     21  C   UNL     1       4.453  15.906  18.112  0.00  0.00    +0.000 A 
ATOM     22  C   UNL     1       5.206  14.734  18.159  0.00  0.00    +0.000 A 
ATOM     23  C   UNL     1       6.507  14.714  18.725  0.00  0.00    +0.000 A 
BRANCH  21  24
ATOM     24  O   UNL     1       3.177  16.023  17.628  0.00  0.00    +0.000 OA
ATOM     25  C   UNL     1       2.125  15.744  18.547  0.00  0.00    +0.000 C 
ENDBRANCH  21  24
ENDBRANCH   1  18
BRANCH   1  27
ATOM     26  N   UNL     1      10.233  14.776  18.515  0.00  0.00    +0.000 N 
ATOM     27  C   UNL     1       9.609  15.875  19.110  0.00  0.00    +0.000 C 
ATOM     28  O   UNL     1      10.161  16.966  18.895  0.00  0.00    +0.000 OA
ATOM     29  H   UNL     1      11.127  15.023  18.092  0.00  0.00    +0.000 HD
BRANCH  26  33
ATOM     30  C   UNL     1       9.449  10.631  18.951  0.00  0.00    +0.000 A 
ATOM     31  C   UNL     1       8.907  11.372  17.898  0.00  0.00    +0.000 A 
ATOM     32  C   UNL     1       9.171  12.738  17.745  0.00  0.00    +0.000 A 
ATOM     33  C   UNL     1       9.981  13.401  18.661  0.00  0.00    +0.000 A 
ATOM     34  C   UNL     1      10.588  12.648  19.686  0.00  0.00    +0.000 A 
ATOM     35  C   UNL     1      10.288  11.277  19.854  0.00  0.00    +0.000 A 
BRANCH  30  37
ATOM     36  C   UNL     1       8.176   8.858  17.973  0.00  0.00    +0.000 C 
ATOM     37  O   UNL     1       9.041   9.327  19.003  0.00  0.00    +0.000 OA
ENDBRANCH  30  37
ENDBRANCH  26  33
ENDBRANCH   1  27
TORSDOF 7
ENDMDL
MODEL 2
REMARK VINA RESULT:      -6.3      1.910      5.590
REMARK  Name = 
REMARK  9 active torsions:
REMARK  status: ('A' for Active; 'I' for Inactive)
REMARK    1  A    between atoms: C_1  and  O_2
REMARK    2  A    between atoms: O_2  and  C_3
REMARK    3  A    between atoms: C_6  and  N_7
REMARK    4  A    between atoms: C_8  and  C_10
REMARK    5  A    between atoms: C_10  and  C_11
REMARK    6  A    between atoms: C_10  and  N_19
REMARK    7  A    between atoms: C_14  and  O_15
REMARK    8  A    between atoms: O_15  and  C_16
REMARK    9  A    between atoms: C_22  and  C_23
REMARK                            x       y       z     vdW  Elec       q    Type
REMARK                         _______ _______ _______ _____ _____    ______ ____
ROOT
ATOM      1  C   UNL     1       7.785  16.172  20.561  0.00  0.00    +0.000 C 
ENDROOT
BRANCH   1   2
ATOM      2  N   UNL     1       8.409  14.966  19.795  0.00  0.00    +0.000 N 
ATOM      3  C   UNL     1       9.671  15.372  20.332  0.00  0.00    +0.000 A 
ATOM      4  O   UNL     1      10.389  16.235  19.806  0.00  0.00    +0.000 OA
ATOM      5  C   UNL     1      10.290  14.218  21.115  0.00  0.00    +0.000 A 
ATOM      6  N   UNL     1      11.203  13.670  20.393  0.00  0.00    +0.000 NA
ATOM      7  C   UNL     1      10.593  13.478  19.102  0.00  0.00    +0.000 A 
ATOM      8  C   UNL     1      11.336  12.550  18.358  0.00  0.00    +0.000 A 
ATOM      9  C   UNL     1      10.664  11.493  17.788  0.00  0.00    +0.000 A 
ATOM     10  C   UNL     1       9.268  11.482  17.900  0.00  0.00    +0.000 A 
ATOM     11  C   UNL     1       8.489  12.597  18.438  0.00  0.00    +0.000 A 
ATOM     12  C   UNL     1       9.117  13.725  19.017  0.00  0.00    +0.000 A 
BRANCH   5  13
ATOM     13  C   UNL     1       9.435  13.386  21.977  0.00  0.00    +0.000 A 
ATOM     14  C   UNL     1       8.942  13.614  23.255  0.00  0.00    +0.000 A 
ATOM     15  C   UNL     1       8.195  12.469  23.628  0.00  0.00    +0.000 A 
ATOM     16  C   UNL     1       8.368  11.559  22.616  0.00  0.00    +0.000 A 
ATOM     17  O   UNL     1       9.189  12.071  21.671  0.00  0.00    +0.000 OA
ENDBRANCH   5  13
ENDBRANCH   1   2
BRANCH   1  18
ATOM     18  C   UNL     1       6.732  15.916  21.756  0.00  0.00    +0.000 A 
ATOM     19  C   UNL     1       6.845  16.568  23.015  0.00  0.00    +0.000 A 
ATOM     20  C   UNL     1       6.120  16.167  24.155  0.00  0.00    +0.000 A 
ATOM     21  C   UNL     1       5.301  15.048  24.108  0.00  0.00    +0.000 A 
ATOM     22  C   UNL     1       5.207  14.352  22.904  0.00  0.00    +0.000 A 
ATOM     23  C   UNL     1       5.888  14.792  21.741  0.00  0.00    +0.000 A 
BRANCH  21  24
ATOM     24  O   UNL     1       4.719  14.685  25.294  0.00  0.00    +0.000 OA
ATOM     25  C   UNL     1       5.608  14.352  26.357  0.00  0.00    +0.000 C 
ENDBRANCH  21  24
ENDBRANCH   1  18
BRANCH   1  27
ATOM     26  N   UNL     1       5.871  17.526  19.137  0.00  0.00    +0.000 N 
ATOM     27  C   UNL     1       7.070  17.563  19.853  0.00  0.00    +0.000 C 
ATOM     28  O   UNL     1       7.697  18.631  19.764  0.00  0.00    +0.000 OA
ATOM     29  H   UNL     1       5.752  18.346  18.543  0.00  0.00    +0.000 HD
BRANCH  26  33
ATOM     30  C   UNL     1       3.220  14.295  18.416  0.00  0.00    +0.000 A 
ATOM     31  C   UNL     1       2.818  15.428  19.128  0.00  0.00    +0.000 A 
ATOM     32  C   UNL     1       3.687  16.500  19.360  0.00  0.00    +0.000 A 
ATOM     33  C   UNL     1       4.995  16.454  18.890  0.00  0.00    +0.000 A 
ATOM     34  C   UNL     1       5.389  15.348  18.112  0.00  0.00    +0.000 A 
ATOM     35  C   UNL     1       4.517  14.254  17.912  0.00  0.00    +0.000 A 
BRANCH  30  37
ATOM     36  C   UNL     1       1.809  12.731  19.549  0.00  0.00    +0.000 C 
ATOM     37  O   UNL     1       2.279  13.306  18.334  0.00  0.00    +0.000 OA
ENDBRANCH  30  37
ENDBRANCH  26  33
ENDBRANCH   1  27
TORSDOF 7
ENDMDL
MODEL 3
REMARK VINA RESULT:      -6.3      2.177      6.062
REMARK  Name = 
REMARK  9 active torsions:
REMARK  status: ('A' for Active; 'I' for Inactive)
REMARK    1  A    between atoms: C_1  and  O_2
REMARK    2  A    between atoms: O_2  and  C_3
REMARK    3  A    between atoms: C_6  and  N_7
REMARK    4  A    between atoms: C_8  and  C_10
REMARK    5  A    between atoms: C_10  and  C_11
REMARK    6  A    between atoms: C_10  and  N_19
REMARK    7  A    between atoms: C_14  and  O_15
REMARK    8  A    between atoms: O_15  and  C_16
REMARK    9  A    between atoms: C_22  and  C_23
REMARK                            x       y       z     vdW  Elec       q    Type
REMARK                         _______ _______ _______ _____ _____    ______ ____
ROOT
ATOM      1  C   UNL     1       8.682  15.887  22.186  0.00  0.00    +0.000 C 
ENDROOT
BRANCH   1   2
ATOM      2  N   UNL     1       7.158  16.088  21.931  0.00  0.00    +0.000 N 
ATOM      3  C   UNL     1       7.498  17.340  21.330  0.00  0.00    +0.000 A 
ATOM      4  O   UNL     1       7.653  18.387  21.977  0.00  0.00    +0.000 OA
ATOM      5  C   UNL     1       6.970  17.383  19.899  0.00  0.00    +0.000 A 
ATOM      6  N   UNL     1       5.898  18.094  19.874  0.00  0.00    +0.000 NA
ATOM      7  C   UNL     1       5.100  17.607  20.969  0.00  0.00    +0.000 A 
ATOM      8  C   UNL     1       3.770  18.021  20.810  0.00  0.00    +0.000 A 
ATOM      9  C   UNL     1       2.782  17.066  20.897  0.00  0.00    +0.000 A 
ATOM     10  C   UNL     1       3.171  15.768  21.250  0.00  0.00    +0.000 A 
ATOM     11  C   UNL     1       4.523  15.414  21.682  0.00  0.00    +0.000 A 
ATOM     12  C   UNL     1       5.580  16.355  21.640  0.00  0.00    +0.000 A 
BRANCH   5  13
ATOM     13  C   UNL     1       7.079  16.184  19.052  0.00  0.00    +0.000 A 
ATOM     14  C   UNL     1       8.183  15.598  18.448  0.00  0.00    +0.000 A 
ATOM     15  C   UNL     1       7.718  14.477  17.717  0.00  0.00    +0.000 A 
ATOM     16  C   UNL     1       6.350  14.504  17.814  0.00  0.00    +0.000 A 
ATOM     17  O   UNL     1       5.960  15.581  18.533  0.00  0.00    +0.000 OA
ENDBRANCH   5  13
ENDBRANCH   1   2
BRANCH   1  18
ATOM     18  C   UNL     1       9.446  14.609  21.564  0.00  0.00    +0.000 A 
ATOM     19  C   UNL     1      10.659  14.737  20.831  0.00  0.00    +0.000 A 
ATOM     20  C   UNL     1      11.197  13.694  20.050  0.00  0.00    +0.000 A 
ATOM     21  C   UNL     1      10.510  12.497  19.907  0.00  0.00    +0.000 A 
ATOM     22  C   UNL     1       9.291  12.356  20.570  0.00  0.00    +0.000 A 
ATOM     23  C   UNL     1       8.781  13.382  21.406  0.00  0.00    +0.000 A 
BRANCH  21  24
ATOM     24  O   UNL     1      11.068  11.588  19.049  0.00  0.00    +0.000 OA
ATOM     25  C   UNL     1      10.455  11.469  17.768  0.00  0.00    +0.000 C 
ENDBRANCH  21  24
ENDBRANCH   1  18
BRANCH   1  27
ATOM     26  N   UNL     1       9.082  15.230  24.820  0.00  0.00    +0.000 N 
ATOM     27  C   UNL     1       9.477  15.974  23.705  0.00  0.00    +0.000 C 
ATOM     28  O   UNL     1      10.310  16.864  23.943  0.00  0.00    +0.000 OA
ATOM     29  H   UNL     1       9.448  15.615  25.690  0.00  0.00    +0.000 HD
BRANCH  26  33
ATOM     30  C   UNL     1       6.035  12.304  25.202  0.00  0.00    +0.000 A 
ATOM     31  C   UNL     1       7.387  11.952  25.155  0.00  0.00    +0.000 A 
ATOM     32  C   UNL     1       8.396  12.916  25.038  0.00  0.00    +0.000 A 
ATOM     33  C   UNL     1       8.068  14.265  24.952  0.00  0.00    +0.000 A 
ATOM     34  C   UNL     1       6.714  14.634  25.068  0.00  0.00    +0.000 A 
ATOM     35  C   UNL     1       5.699  13.654  25.150  0.00  0.00    +0.000 A 
BRANCH  30  37
ATOM     36  C   UNL     1       4.875  10.680  26.520  0.00  0.00    +0.000 C 
ATOM     37  O   UNL     1       5.170  11.246  25.247  0.00  0.00    +0.000 OA
ENDBRANCH  30  37
ENDBRANCH  26  33
ENDBRANCH   1  27
TORSDOF 7
ENDMDL
MODEL 4
REMARK VINA RESULT:      -6.2      6.733     10.095
REMARK  Name = 
REMARK  9 active torsions:
REMARK  status: ('A' for Active; 'I' for Inactive)
REMARK    1  A    between atoms: C_1  and  O_2
REMARK    2  A    between atoms: O_2  and  C_3
REMARK    3  A    between atoms: C_6  and  N_7
REMARK    4  A    between atoms: C_8  and  C_10
REMARK    5  A    between atoms: C_10  and  C_11
REMARK    6  A    between atoms: C_10  and  N_19
REMARK    7  A    between atoms: C_14  and  O_15
REMARK    8  A    between atoms: O_15  and  C_16
REMARK    9  A    between atoms: C_22  and  C_23
REMARK                            x       y       z     vdW  Elec       q    Type
REMARK                         _______ _______ _______ _____ _____    ______ ____
ROOT
ATOM      1  C   UNL     1       0.301  13.590  20.283  0.00  0.00    +0.000 C 
ENDROOT
BRANCH   1   2
ATOM      2  N   UNL     1       0.857  12.222  19.781  0.00  0.00    +0.000 N 
ATOM      3  C   UNL     1       0.134  11.618  20.856  0.00  0.00    +0.000 A 
ATOM      4  O   UNL     1       0.582  11.517  22.008  0.00  0.00    +0.000 OA
ATOM      5  C   UNL     1      -0.826  10.568  20.303  0.00  0.00    +0.000 A 
ATOM      6  N   UNL     1      -0.318   9.401  20.491  0.00  0.00    +0.000 NA
ATOM      7  C   UNL     1       1.044   9.508  20.035  0.00  0.00    +0.000 A 
ATOM      8  C   UNL     1       1.577   8.229  19.823  0.00  0.00    +0.000 A 
ATOM      9  C   UNL     1       2.182   7.973  18.613  0.00  0.00    +0.000 A 
ATOM     10  C   UNL     1       2.320   9.046  17.724  0.00  0.00    +0.000 A 
ATOM     11  C   UNL     1       2.009  10.433  18.070  0.00  0.00    +0.000 A 
ATOM     12  C   UNL     1       1.408  10.767  19.307  0.00  0.00    +0.000 A 
BRANCH   5  13
ATOM     13  C   UNL     1      -1.578  10.854  19.070  0.00  0.00    +0.000 A 
ATOM     14  C   UNL     1      -2.584  11.777  18.815  0.00  0.00    +0.000 A 
ATOM     15  C   UNL     1      -2.979  11.606  17.465  0.00  0.00    +0.000 A 
ATOM     16  C   UNL     1      -2.283  10.518  17.002  0.00  0.00    +0.000 A 
ATOM     17  O   UNL     1      -1.515  10.007  17.991  0.00  0.00    +0.000 OA
ENDBRANCH   5  13
ENDBRANCH   1   2
BRANCH   1  18
ATOM     18  C   UNL     1       0.798  14.965  19.601  0.00  0.00    +0.000 A 
ATOM     19  C   UNL     1      -0.115  15.959  19.152  0.00  0.00    +0.000 A 
ATOM     20  C   UNL     1       0.264  17.028  18.316  0.00  0.00    +0.000 A 
ATOM     21  C   UNL     1       1.561  17.114  17.830  0.00  0.00    +0.000 A 
ATOM     22  C   UNL     1       2.471  16.127  18.206  0.00  0.00    +0.000 A 
ATOM     23  C   UNL     1       2.105  15.086  19.098  0.00  0.00    +0.000 A 
BRANCH  21  24
ATOM     24  O   UNL     1       1.800  18.133  16.947  0.00  0.00    +0.000 OA
ATOM     25  C   UNL     1       0.688  18.571  16.172  0.00  0.00    +0.000 C 
ENDBRANCH  21  24
ENDBRANCH   1  18
BRANCH   1  27
ATOM     26  N   UNL     1      -1.008  14.294  22.588  0.00  0.00    +0.000 N 
ATOM     27  C   UNL     1       0.203  14.108  21.916  0.00  0.00    +0.000 C 
ATOM     28  O   UNL     1       1.200  14.548  22.511  0.00  0.00    +0.000 OA
ATOM     29  H   UNL     1      -0.903  14.878  23.417  0.00  0.00    +0.000 HD
BRANCH  26  33
ATOM     30  C   UNL     1      -4.982  13.579  21.291  0.00  0.00    +0.000 A 
ATOM     31  C   UNL     1      -4.308  12.676  22.119  0.00  0.00    +0.000 A 
ATOM     32  C   UNL     1      -2.999  12.914  22.557  0.00  0.00    +0.000 A 
ATOM     33  C   UNL     1      -2.327  14.064  22.160  0.00  0.00    +0.000 A 
ATOM     34  C   UNL     1      -3.022  15.012  21.383  0.00  0.00    +0.000 A 
ATOM     35  C   UNL     1      -4.330  14.750  20.916  0.00  0.00    +0.000 A 
BRANCH  30  37
ATOM     36  C   UNL     1      -7.094  14.146  20.323  0.00  0.00    +0.000 C 
ATOM     37  O   UNL     1      -6.225  13.172  20.894  0.00  0.00    +0.000 OA
ENDBRANCH  30  37
ENDBRANCH  26  33
ENDBRANCH   1  27
TORSDOF 7
ENDMDL
MODEL 5
REMARK VINA RESULT:      -6.1      7.122     10.368
REMARK  Name = 
REMARK  9 active torsions:
REMARK  status: ('A' for Active; 'I' for Inactive)
REMARK    1  A    between atoms: C_1  and  O_2
REMARK    2  A    between atoms: O_2  and  C_3
REMARK    3  A    between atoms: C_6  and  N_7
REMARK    4  A    between atoms: C_8  and  C_10
REMARK    5  A    between atoms: C_10  and  C_11
REMARK    6  A    between atoms: C_10  and  N_19
REMARK    7  A    between atoms: C_14  and  O_15
REMARK    8  A    between atoms: O_15  and  C_16
REMARK    9  A    between atoms: C_22  and  C_23
REMARK                            x       y       z     vdW  Elec       q    Type
REMARK                         _______ _______ _______ _____ _____    ______ ____
ROOT
ATOM      1  C   UNL     1      -0.469  12.110  20.942  0.00  0.00    +0.000 C 
ENDROOT
BRANCH   1   2
ATOM      2  N   UNL     1      -1.890  12.321  21.548  0.00  0.00    +0.000 N 
ATOM      3  C   UNL     1      -1.264  12.308  22.833  0.00  0.00    +0.000 A 
ATOM      4  O   UNL     1      -1.017  11.267  23.460  0.00  0.00    +0.000 OA
ATOM      5  C   UNL     1      -1.586  13.602  23.574  0.00  0.00    +0.000 A 
ATOM      6  N   UNL     1      -2.507  13.366  24.441  0.00  0.00    +0.000 NA
ATOM      7  C   UNL     1      -3.513  12.623  23.725  0.00  0.00    +0.000 A 
ATOM      8  C   UNL     1      -4.720  12.647  24.439  0.00  0.00    +0.000 A 
ATOM      9  C   UNL     1      -5.860  13.024  23.766  0.00  0.00    +0.000 A 
ATOM     10  C   UNL     1      -5.750  13.248  22.388  0.00  0.00    +0.000 A 
ATOM     11  C   UNL     1      -4.547  12.952  21.611  0.00  0.00    +0.000 A 
ATOM     12  C   UNL     1      -3.347  12.537  22.238  0.00  0.00    +0.000 A 
BRANCH   5  13
ATOM     13  C   UNL     1      -1.577  14.878  22.839  0.00  0.00    +0.000 A 
ATOM     14  C   UNL     1      -2.597  15.553  22.182  0.00  0.00    +0.000 A 
ATOM     15  C   UNL     1      -2.031  16.722  21.616  0.00  0.00    +0.000 A 
ATOM     16  C   UNL     1      -0.683  16.642  21.853  0.00  0.00    +0.000 A 
ATOM     17  O   UNL     1      -0.396  15.491  22.502  0.00  0.00    +0.000 OA
ENDBRANCH   5  13
ENDBRANCH   1   2
BRANCH   1  18
ATOM     18  C   UNL     1       0.178  13.236  19.984  0.00  0.00    +0.000 A 
ATOM     19  C   UNL     1       1.502  13.720  20.175  0.00  0.00    +0.000 A 
ATOM     20  C   UNL     1       1.993  14.880  19.542  0.00  0.00    +0.000 A 
ATOM     21  C   UNL     1       1.160  15.652  18.745  0.00  0.00    +0.000 A 
ATOM     22  C   UNL     1      -0.160  15.236  18.578  0.00  0.00    +0.000 A 
ATOM     23  C   UNL     1      -0.636  14.035  19.164  0.00  0.00    +0.000 A 
BRANCH  21  24
ATOM     24  O   UNL     1       1.706  16.810  18.259  0.00  0.00    +0.000 OA
ATOM     25  C   UNL     1       1.417  17.999  18.988  0.00  0.00    +0.000 C 
ENDBRANCH  21  24
ENDBRANCH   1  18
BRANCH   1  27
ATOM     26  N   UNL     1      -0.557  10.142  19.034  0.00  0.00    +0.000 N 
ATOM     27  C   UNL     1       0.093  10.703  20.137  0.00  0.00    +0.000 C 
ATOM     28  O   UNL     1       0.985   9.994  20.630  0.00  0.00    +0.000 OA
ATOM     29  H   UNL     1      -0.281   9.174  18.875  0.00  0.00    +0.000 HD
BRANCH  26  33
ATOM     30  C   UNL     1      -3.993  11.460  16.926  0.00  0.00    +0.000 A 
ATOM     31  C   UNL     1      -3.891  11.588  18.314  0.00  0.00    +0.000 A 
ATOM     32  C   UNL     1      -2.754  11.163  19.012  0.00  0.00    +0.000 A 
ATOM     33  C   UNL     1      -1.691  10.582  18.330  0.00  0.00    +0.000 A 
ATOM     34  C   UNL     1      -1.756  10.512  16.924  0.00  0.00    +0.000 A 
ATOM     35  C   UNL     1      -2.920  10.911  16.230  0.00  0.00    +0.000 A 
BRANCH  30  37
ATOM     36  C   UNL     1      -6.103  12.537  17.260  0.00  0.00    +0.000 C 
ATOM     37  O   UNL     1      -5.192  11.857  16.401  0.00  0.00    +0.000 OA
ENDBRANCH  30  37
ENDBRANCH  26  33
ENDBRANCH   1  27
TORSDOF 7
ENDMDL
MODEL 6
REMARK VINA RESULT:      -6.1      0.700      1.144
REMARK  Name = 
REMARK  9 active torsions:
REMARK  status: ('A' for Active; 'I' for Inactive)
REMARK    1  A    between atoms: C_1  and  O_2
REMARK    2  A    between atoms: O_2  and  C_3
REMARK    3  A    between atoms: C_6  and  N_7
REMARK    4  A    between atoms: C_8  and  C_10
REMARK    5  A    between atoms: C_10  and  C_11
REMARK    6  A    between atoms: C_10  and  N_19
REMARK    7  A    between atoms: C_14  and  O_15
REMARK    8  A    between atoms: O_15  and  C_16
REMARK    9  A    between atoms: C_22  and  C_23
REMARK                            x       y       z     vdW  Elec       q    Type
REMARK                         _______ _______ _______ _____ _____    ______ ____
ROOT
ATOM      1  C   UNL     1       8.788  15.781  20.724  0.00  0.00    +0.000 C 
ENDROOT
BRANCH   1   2
ATOM      2  N   UNL     1       8.666  14.804  21.932  0.00  0.00    +0.000 N 
ATOM      3  C   UNL     1       8.611  15.963  22.769  0.00  0.00    +0.000 A 
ATOM      4  O   UNL     1       9.620  16.549  23.187  0.00  0.00    +0.000 OA
ATOM      5  C   UNL     1       7.329  15.938  23.595  0.00  0.00    +0.000 A 
ATOM      6  N   UNL     1       7.613  15.555  24.790  0.00  0.00    +0.000 NA
ATOM      7  C   UNL     1       8.437  14.386  24.622  0.00  0.00    +0.000 A 
ATOM      8  C   UNL     1       8.485  13.661  25.822  0.00  0.00    +0.000 A 
ATOM      9  C   UNL     1       8.201  12.314  25.774  0.00  0.00    +0.000 A 
ATOM     10  C   UNL     1       7.995  11.745  24.512  0.00  0.00    +0.000 A 
ATOM     11  C   UNL     1       8.221  12.456  23.253  0.00  0.00    +0.000 A 
ATOM     12  C   UNL     1       8.539  13.835  23.232  0.00  0.00    +0.000 A 
BRANCH   5  13
ATOM     13  C   UNL     1       6.070  15.510  22.965  0.00  0.00    +0.000 A 
ATOM     14  C   UNL     1       5.074  16.247  22.339  0.00  0.00    +0.000 A 
ATOM     15  C   UNL     1       4.064  15.336  21.939  0.00  0.00    +0.000 A 
ATOM     16  C   UNL     1       4.436  14.115  22.442  0.00  0.00    +0.000 A 
ATOM     17  O   UNL     1       5.589  14.236  23.140  0.00  0.00    +0.000 OA
ENDBRANCH   5  13
ENDBRANCH   1   2
BRANCH   1  18
ATOM     18  C   UNL     1       7.562  15.944  19.687  0.00  0.00    +0.000 A 
ATOM     19  C   UNL     1       6.906  17.189  19.480  0.00  0.00    +0.000 A 
ATOM     20  C   UNL     1       5.676  17.306  18.803  0.00  0.00    +0.000 A 
ATOM     21  C   UNL     1       5.007  16.173  18.362  0.00  0.00    +0.000 A 
ATOM     22  C   UNL     1       5.595  14.930  18.594  0.00  0.00    +0.000 A 
ATOM     23  C   UNL     1       6.863  14.818  19.220  0.00  0.00    +0.000 A 
BRANCH  21  24
ATOM     24  O   UNL     1       3.774  16.388  17.806  0.00  0.00    +0.000 OA
ATOM     25  C   UNL     1       2.746  16.814  18.695  0.00  0.00    +0.000 C 
ENDBRANCH  21  24
ENDBRANCH   1  18
BRANCH   1  27
ATOM     26  N   UNL     1      10.605  14.763  18.938  0.00  0.00    +0.000 N 
ATOM     27  C   UNL     1      10.100  15.873  19.621  0.00  0.00    +0.000 C 
ATOM     28  O   UNL     1      10.800  16.895  19.540  0.00  0.00    +0.000 OA
ATOM     29  H   UNL     1      11.543  14.928  18.576  0.00  0.00    +0.000 HD
BRANCH  26  33
ATOM     30  C   UNL     1       9.308  10.725  18.928  0.00  0.00    +0.000 A 
ATOM     31  C   UNL     1      10.068  11.248  19.978  0.00  0.00    +0.000 A 
ATOM     32  C   UNL     1      10.489  12.583  19.989  0.00  0.00    +0.000 A 
ATOM     33  C   UNL     1      10.168  13.427  18.932  0.00  0.00    +0.000 A 
ATOM     34  C   UNL     1       9.344  12.929  17.904  0.00  0.00    +0.000 A 
ATOM     35  C   UNL     1       8.952  11.571  17.881  0.00  0.00    +0.000 A 
BRANCH  30  37
ATOM     36  C   UNL     1       8.222   8.797  18.020  0.00  0.00    +0.000 C 
ATOM     37  O   UNL     1       9.034   9.390  19.029  0.00  0.00    +0.000 OA
ENDBRANCH  30  37
ENDBRANCH  26  33
ENDBRANCH   1  27
TORSDOF 7
ENDMDL
MODEL 7
REMARK VINA RESULT:      -6.1      5.408      8.985
REMARK  Name = 
REMARK  9 active torsions:
REMARK  status: ('A' for Active; 'I' for Inactive)
REMARK    1  A    between atoms: C_1  and  O_2
REMARK    2  A    between atoms: O_2  and  C_3
REMARK    3  A    between atoms: C_6  and  N_7
REMARK    4  A    between atoms: C_8  and  C_10
REMARK    5  A    between atoms: C_10  and  C_11
REMARK    6  A    between atoms: C_10  and  N_19
REMARK    7  A    between atoms: C_14  and  O_15
REMARK    8  A    between atoms: O_15  and  C_16
REMARK    9  A    between atoms: C_22  and  C_23
REMARK                            x       y       z     vdW  Elec       q    Type
REMARK                         _______ _______ _______ _____ _____    ______ ____
ROOT
ATOM      1  C   UNL     1       0.454  12.925  20.687  0.00  0.00    +0.000 C 
ENDROOT
BRANCH   1   2
ATOM      2  N   UNL     1       1.875  13.528  20.467  0.00  0.00    +0.000 N 
ATOM      3  C   UNL     1       1.561  13.573  19.073  0.00  0.00    +0.000 A 
ATOM      4  O   UNL     1       1.717  12.611  18.308  0.00  0.00    +0.000 OA
ATOM      5  C   UNL     1       1.705  15.004  18.562  0.00  0.00    +0.000 A 
ATOM      6  N   UNL     1       2.819  15.106  17.926  0.00  0.00    +0.000 NA
ATOM      7  C   UNL     1       3.800  14.500  18.789  0.00  0.00    +0.000 A 
ATOM      8  C   UNL     1       5.087  14.893  18.396  0.00  0.00    +0.000 A 
ATOM      9  C   UNL     1       5.929  15.402  19.359  0.00  0.00    +0.000 A 
ATOM     10  C   UNL     1       5.476  15.386  20.684  0.00  0.00    +0.000 A 
ATOM     11  C   UNL     1       4.245  14.722  21.113  0.00  0.00    +0.000 A 
ATOM     12  C   UNL     1       3.346  14.157  20.176  0.00  0.00    +0.000 A 
BRANCH   5  13
ATOM     13  C   UNL     1       1.226  16.121  19.391  0.00  0.00    +0.000 A 
ATOM     14  C   UNL     1      -0.060  16.598  19.614  0.00  0.00    +0.000 A 
ATOM     15  C   UNL     1       0.051  17.718  20.475  0.00  0.00    +0.000 A 
ATOM     16  C   UNL     1       1.395  17.939  20.638  0.00  0.00    +0.000 A 
ATOM     17  O   UNL     1       2.101  17.042  19.912  0.00  0.00    +0.000 OA
ENDBRANCH   5  13
ENDBRANCH   1   2
BRANCH   1  18
ATOM     18  C   UNL     1      -0.635  13.721  21.572  0.00  0.00    +0.000 A 
ATOM     19  C   UNL     1      -1.944  14.000  21.088  0.00  0.00    +0.000 A 
ATOM     20  C   UNL     1      -2.813  14.917  21.712  0.00  0.00    +0.000 A 
ATOM     21  C   UNL     1      -2.388  15.653  22.809  0.00  0.00    +0.000 A 
ATOM     22  C   UNL     1      -1.093  15.444  23.279  0.00  0.00    +0.000 A 
ATOM     23  C   UNL     1      -0.240  14.475  22.689  0.00  0.00    +0.000 A 
BRANCH  21  24
ATOM     24  O   UNL     1      -3.272  16.587  23.278  0.00  0.00    +0.000 OA
ATOM     25  C   UNL     1      -3.987  16.243  24.462  0.00  0.00    +0.000 C 
ENDBRANCH  21  24
ENDBRANCH   1  18
BRANCH   1  27
ATOM     26  N   UNL     1      -0.738  10.466  20.459  0.00  0.00    +0.000 N 
ATOM     27  C   UNL     1       0.097  11.321  21.182  0.00  0.00    +0.000 C 
ATOM     28  O   UNL     1       0.396  10.919  22.318  0.00  0.00    +0.000 OA
ATOM     29  H   UNL     1      -1.080   9.691  21.026  0.00  0.00    +0.000 HD
BRANCH  26  33
ATOM     30  C   UNL     1      -2.673  11.051  16.730  0.00  0.00    +0.000 A 
ATOM     31  C   UNL     1      -1.599  10.168  16.867  0.00  0.00    +0.000 A 
ATOM     32  C   UNL     1      -0.964   9.965  18.098  0.00  0.00    +0.000 A 
ATOM     33  C   UNL     1      -1.387  10.660  19.226  0.00  0.00    +0.000 A 
ATOM     34  C   UNL     1      -2.513  11.499  19.114  0.00  0.00    +0.000 A 
ATOM     35  C   UNL     1      -3.126  11.725  17.861  0.00  0.00    +0.000 A 
BRANCH  30  37
ATOM     36  C   UNL     1      -3.104  10.050  14.602  0.00  0.00    +0.000 C 
ATOM     37  O   UNL     1      -3.140  11.192  15.453  0.00  0.00    +0.000 OA
ENDBRANCH  30  37
ENDBRANCH  26  33
ENDBRANCH   1  27
TORSDOF 7
ENDMDL
MODEL 8
REMARK VINA RESULT:      -6.1      7.404     11.171
REMARK  Name = 
REMARK  9 active torsions:
REMARK  status: ('A' for Active; 'I' for Inactive)
REMARK    1  A    between atoms: C_1  and  O_2
REMARK    2  A    between atoms: O_2  and  C_3
REMARK    3  A    between atoms: C_6  and  N_7
REMARK    4  A    between atoms: C_8  and  C_10
REMARK    5  A    between atoms: C_10  and  C_11
REMARK    6  A    between atoms: C_10  and  N_19
REMARK    7  A    between atoms: C_14  and  O_15
REMARK    8  A    between atoms: O_15  and  C_16
REMARK    9  A    between atoms: C_22  and  C_23
REMARK                            x       y       z     vdW  Elec       q    Type
REMARK                         _______ _______ _______ _____ _____    ______ ____
ROOT
ATOM      1  C   UNL     1      -1.595  12.776  21.343  0.00  0.00    +0.000 C 
ENDROOT
BRANCH   1   2
ATOM      2  N   UNL     1      -3.110  12.659  20.992  0.00  0.00    +0.000 N 
ATOM      3  C   UNL     1      -3.373  12.881  22.379  0.00  0.00    +0.000 A 
ATOM      4  O   UNL     1      -3.375  11.976  23.226  0.00  0.00    +0.000 OA
ATOM      5  C   UNL     1      -4.283  14.096  22.540  0.00  0.00    +0.000 A 
ATOM      6  N   UNL     1      -5.482  13.688  22.767  0.00  0.00    +0.000 NA
ATOM      7  C   UNL     1      -5.728  12.676  21.773  0.00  0.00    +0.000 A 
ATOM      8  C   UNL     1      -7.106  12.439  21.664  0.00  0.00    +0.000 A 
ATOM      9  C   UNL     1      -7.671  12.476  20.410  0.00  0.00    +0.000 A 
ATOM     10  C   UNL     1      -6.806  12.637  19.320  0.00  0.00    +0.000 A 
ATOM     11  C   UNL     1      -5.348  12.606  19.428  0.00  0.00    +0.000 A 
ATOM     12  C   UNL     1      -4.703  12.544  20.687  0.00  0.00    +0.000 A 
BRANCH   5  13
ATOM     13  C   UNL     1      -4.056  15.286  21.705  0.00  0.00    +0.000 A 
ATOM     14  C   UNL     1      -3.080  16.271  21.779  0.00  0.00    +0.000 A 
ATOM     15  C   UNL     1      -3.346  17.205  20.747  0.00  0.00    +0.000 A 
ATOM     16  C   UNL     1      -4.530  16.810  20.176  0.00  0.00    +0.000 A 
ATOM     17  O   UNL     1      -5.006  15.716  20.813  0.00  0.00    +0.000 OA
ENDBRANCH   5  13
ENDBRANCH   1   2
BRANCH   1  18
ATOM     18  C   UNL     1      -0.767  14.097  20.929  0.00  0.00    +0.000 A 
ATOM     19  C   UNL     1      -0.695  14.554  19.584  0.00  0.00    +0.000 A 
ATOM     20  C   UNL     1       0.229  15.526  19.152  0.00  0.00    +0.000 A 
ATOM     21  C   UNL     1       1.175  16.036  20.030  0.00  0.00    +0.000 A 
ATOM     22  C   UNL     1       1.168  15.572  21.344  0.00  0.00    +0.000 A 
ATOM     23  C   UNL     1       0.198  14.640  21.795  0.00  0.00    +0.000 A 
BRANCH  21  24
ATOM     24  O   UNL     1       2.088  16.899  19.486  0.00  0.00    +0.000 OA
ATOM     25  C   UNL     1       1.974  17.141  18.087  0.00  0.00    +0.000 C 
ENDBRANCH  21  24
ENDBRANCH   1  18
BRANCH   1  27
ATOM     26  N   UNL     1      -0.404  10.744  19.937  0.00  0.00    +0.000 N 
ATOM     27  C   UNL     1      -0.391  11.589  21.050  0.00  0.00    +0.000 C 
ATOM     28  O   UNL     1       0.434  11.282  21.926  0.00  0.00    +0.000 OA
ATOM     29  H   UNL     1       0.185   9.924  20.069  0.00  0.00    +0.000 HD
BRANCH  26  33
ATOM     30  C   UNL     1      -3.073  10.628  16.643  0.00  0.00    +0.000 A 
ATOM     31  C   UNL     1      -2.097  11.622  16.760  0.00  0.00    +0.000 A 
ATOM     32  C   UNL     1      -1.208  11.657  17.841  0.00  0.00    +0.000 A 
ATOM     33  C   UNL     1      -1.288  10.698  18.845  0.00  0.00    +0.000 A 
ATOM     34  C   UNL     1      -2.222   9.654  18.700  0.00  0.00    +0.000 A 
ATOM     35  C   UNL     1      -3.139   9.644  17.625  0.00  0.00    +0.000 A 
BRANCH  30  37
ATOM     36  C   UNL     1      -3.514  10.176  14.336  0.00  0.00    +0.000 C 
ATOM     37  O   UNL     1      -3.908  10.770  15.570  0.00  0.00    +0.000 OA
ENDBRANCH  30  37
ENDBRANCH  26  33
ENDBRANCH   1  27
TORSDOF 7
ENDMDL
MODEL 9
REMARK VINA RESULT:      -6.0      6.135     10.641
REMARK  Name = 
REMARK  9 active torsions:
REMARK  status: ('A' for Active; 'I' for Inactive)
REMARK    1  A    between atoms: C_1  and  O_2
REMARK    2  A    between atoms: O_2  and  C_3
REMARK    3  A    between atoms: C_6  and  N_7
REMARK    4  A    between atoms: C_8  and  C_10
REMARK    5  A    between atoms: C_10  and  C_11
REMARK    6  A    between atoms: C_10  and  N_19
REMARK    7  A    between atoms: C_14  and  O_15
REMARK    8  A    between atoms: O_15  and  C_16
REMARK    9  A    between atoms: C_22  and  C_23
REMARK                            x       y       z     vdW  Elec       q    Type
REMARK                         _______ _______ _______ _____ _____    ______ ____
ROOT
ATOM      1  C   UNL     1      -0.618  12.717  21.652  0.00  0.00    +0.000 C 
ENDROOT
BRANCH   1   2
ATOM      2  N   UNL     1      -0.718  14.190  21.150  0.00  0.00    +0.000 N 
ATOM      3  C   UNL     1       0.253  14.518  22.147  0.00  0.00    +0.000 A 
ATOM      4  O   UNL     1      -0.037  14.770  23.325  0.00  0.00    +0.000 OA
ATOM      5  C   UNL     1       1.462  15.176  21.488  0.00  0.00    +0.000 A 
ATOM      6  N   UNL     1       1.397  16.447  21.676  0.00  0.00    +0.000 NA
ATOM      7  C   UNL     1       0.046  16.807  21.329  0.00  0.00    +0.000 A 
ATOM      8  C   UNL     1      -0.038  18.190  21.116  0.00  0.00    +0.000 A 
ATOM      9  C   UNL     1      -0.619  18.631  19.949  0.00  0.00    +0.000 A 
ATOM     10  C   UNL     1      -1.185  17.664  19.108  0.00  0.00    +0.000 A 
ATOM     11  C   UNL     1      -1.333  16.256  19.474  0.00  0.00    +0.000 A 
ATOM     12  C   UNL     1      -0.781  15.743  20.672  0.00  0.00    +0.000 A 
BRANCH   5  13
ATOM     13  C   UNL     1       1.969  14.646  20.211  0.00  0.00    +0.000 A 
ATOM     14  C   UNL     1       2.512  13.407  19.896  0.00  0.00    +0.000 A 
ATOM     15  C   UNL     1       2.865  13.440  18.524  0.00  0.00    +0.000 A 
ATOM     16  C   UNL     1       2.630  14.724  18.103  0.00  0.00    +0.000 A 
ATOM     17  O   UNL     1       2.184  15.473  19.137  0.00  0.00    +0.000 OA
ENDBRANCH   5  13
ENDBRANCH   1   2
BRANCH   1  18
ATOM     18  C   UNL     1      -0.363  11.519  20.602  0.00  0.00    +0.000 A 
ATOM     19  C   UNL     1       0.593  10.493  20.843  0.00  0.00    +0.000 A 
ATOM     20  C   UNL     1       1.032   9.603  19.843  0.00  0.00    +0.000 A 
ATOM     21  C   UNL     1       0.590   9.743  18.535  0.00  0.00    +0.000 A 
ATOM     22  C   UNL     1      -0.308  10.770  18.251  0.00  0.00    +0.000 A 
ATOM     23  C   UNL     1      -0.798  11.627  19.270  0.00  0.00    +0.000 A 
BRANCH  21  24
ATOM     24  O   UNL     1       1.153   8.891  17.622  0.00  0.00    +0.000 OA
ATOM     25  C   UNL     1       2.505   8.513  17.861  0.00  0.00    +0.000 C 
ENDBRANCH  21  24
ENDBRANCH   1  18
BRANCH   1  27
ATOM     26  N   UNL     1      -3.071  12.257  22.791  0.00  0.00    +0.000 N 
ATOM     27  C   UNL     1      -1.714  11.930  22.712  0.00  0.00    +0.000 C 
ATOM     28  O   UNL     1      -1.308  11.177  23.612  0.00  0.00    +0.000 OA
ATOM     29  H   UNL     1      -3.498  11.924  23.655  0.00  0.00    +0.000 HD
BRANCH  26  33
ATOM     30  C   UNL     1      -5.337  15.039  20.530  0.00  0.00    +0.000 A 
ATOM     31  C   UNL     1      -5.254  13.692  20.165  0.00  0.00    +0.000 A 
ATOM     32  C   UNL     1      -4.515  12.770  20.914  0.00  0.00    +0.000 A 
ATOM     33  C   UNL     1      -3.825  13.182  22.048  0.00  0.00    +0.000 A 
ATOM     34  C   UNL     1      -3.958  14.522  22.463  0.00  0.00    +0.000 A 
ATOM     35  C   UNL     1      -4.677  15.455  21.683  0.00  0.00    +0.000 A 
BRANCH  30  37
ATOM     36  C   UNL     1      -6.664  15.195  18.547  0.00  0.00    +0.000 C 
ATOM     37  O   UNL     1      -6.038  15.826  19.660  0.00  0.00    +0.000 OA
ENDBRANCH  30  37
ENDBRANCH  26  33
ENDBRANCH   1  27
TORSDOF 7
ENDMDL
