MODEL 1
REMARK VINA RESULT:      -8.0      0.000      0.000
REMARK  Name = 
REMARK  5 active torsions:
REMARK  status: ('A' for Active; 'I' for Inactive)
REMARK    1  A    between atoms: C_1  and  C_2
REMARK    2  A    between atoms: N_4  and  C_5
REMARK    3  A    between atoms: C_14  and  N_15
REMARK    4  A    between atoms: N_15  and  C_16
REMARK    5  A    between atoms: C_19  and  N_20
REMARK                            x       y       z     vdW  Elec       q    Type
REMARK                         _______ _______ _______ _____ _____    ______ ____
ROOT
ATOM      1  C   UNL     1       1.139  10.512  18.997  0.00  0.00    +0.000 C 
ATOM      2  C   UNL     1       0.518  10.558  20.351  0.00  0.00    +0.000 C 
ATOM      3  N   UNL     1      -0.281  11.516  20.741  0.00  0.00    +0.000 NA
ATOM      4  N   UNL     1      -0.598  11.241  22.073  0.00  0.00    +0.000 N 
ATOM      5  C   UNL     1      -0.006  10.070  22.574  0.00  0.00    +0.000 C 
ATOM      6  O   UNL     1      -0.047   9.534  23.665  0.00  0.00    +0.000 OA
ATOM      7  C   UNL     1       0.747   9.566  21.405  0.00  0.00    +0.000 C 
ATOM      8  C   UNL     1       1.438   8.423  21.441  0.00  0.00    +0.000 C 
ENDROOT
BRANCH   4   9
ATOM      9  C   UNL     1      -1.377  12.180  22.790  0.00  0.00    +0.000 A 
ATOM     10  C   UNL     1      -0.926  13.487  23.013  0.00  0.00    +0.000 A 
ATOM     11  C   UNL     1      -1.722  14.418  23.686  0.00  0.00    +0.000 A 
ATOM     12  C   UNL     1      -2.976  14.049  24.162  0.00  0.00    +0.000 A 
ATOM     13  C   UNL     1      -3.436  12.751  23.966  0.00  0.00    +0.000 A 
ATOM     14  C   UNL     1      -2.644  11.824  23.280  0.00  0.00    +0.000 A 
ENDBRANCH   4   9
BRANCH   8  15
ATOM     15  N   UNL     1       2.156   7.788  20.460  0.00  0.00    +0.000 N 
ATOM     16  H   UNL     1       2.899   8.309  20.008  0.00  0.00    +0.000 HD
BRANCH  15  17
ATOM     17  C   UNL     1       1.989   6.478  19.984  0.00  0.00    +0.000 A 
ATOM     18  C   UNL     1       2.309   6.210  18.643  0.00  0.00    +0.000 A 
ATOM     19  C   UNL     1       2.115   4.941  18.092  0.00  0.00    +0.000 A 
ATOM     20  C   UNL     1       1.594   3.918  18.890  0.00  0.00    +0.000 A 
ATOM     21  C   UNL     1       1.249   4.165  20.222  0.00  0.00    +0.000 A 
ATOM     22  C   UNL     1       1.435   5.446  20.755  0.00  0.00    +0.000 A 
BRANCH  20  23
ATOM     23  N   UNL     1       1.408   2.575  18.325  0.00  0.00    +0.000 N 
ATOM     24  O   UNL     1       0.303   2.036  18.478  0.00  0.00    +0.000 OA
ATOM     25  O   UNL     1       2.363   2.065  17.724  0.00  0.00    +0.000 OA
ENDBRANCH  20  23
ENDBRANCH  15  17
ENDBRANCH   8  15
TORSDOF 4
ENDMDL
MODEL 2
REMARK VINA RESULT:      -7.5      0.529      1.116
REMARK  Name = 
REMARK  5 active torsions:
REMARK  status: ('A' for Active; 'I' for Inactive)
REMARK    1  A    between atoms: C_1  and  C_2
REMARK    2  A    between atoms: N_4  and  C_5
REMARK    3  A    between atoms: C_14  and  N_15
REMARK    4  A    between atoms: N_15  and  C_16
REMARK    5  A    between atoms: C_19  and  N_20
REMARK                            x       y       z     vdW  Elec       q    Type
REMARK                         _______ _______ _______ _____ _____    ______ ____
ROOT
ATOM      1  C   UNL     1       0.692  10.207  18.612  0.00  0.00    +0.000 C 
ATOM      2  C   UNL     1       0.216  10.401  20.011  0.00  0.00    +0.000 C 
ATOM      3  N   UNL     1      -0.648  11.319  20.354  0.00  0.00    +0.000 NA
ATOM      4  N   UNL     1      -0.787  11.226  21.740  0.00  0.00    +0.000 N 
ATOM      5  C   UNL     1      -0.007  10.216  22.329  0.00  0.00    +0.000 C 
ATOM      6  O   UNL     1       0.133   9.858  23.482  0.00  0.00    +0.000 OA
ATOM      7  C   UNL     1       0.674   9.617  21.161  0.00  0.00    +0.000 C 
ATOM      8  C   UNL     1       1.499   8.572  21.277  0.00  0.00    +0.000 C 
ENDROOT
BRANCH   4   9
ATOM      9  C   UNL     1      -1.595  12.179  22.405  0.00  0.00    +0.000 A 
ATOM     10  C   UNL     1      -1.031  13.226  23.145  0.00  0.00    +0.000 A 
ATOM     11  C   UNL     1      -1.838  14.186  23.762  0.00  0.00    +0.000 A 
ATOM     12  C   UNL     1      -3.223  14.102  23.663  0.00  0.00    +0.000 A 
ATOM     13  C   UNL     1      -3.803  13.060  22.946  0.00  0.00    +0.000 A 
ATOM     14  C   UNL     1      -2.994  12.108  22.317  0.00  0.00    +0.000 A 
ENDBRANCH   4   9
BRANCH   8  15
ATOM     15  N   UNL     1       2.182   7.869  20.317  0.00  0.00    +0.000 N 
ATOM     16  H   UNL     1       2.938   8.341  19.836  0.00  0.00    +0.000 HD
BRANCH  15  17
ATOM     17  C   UNL     1       1.959   6.547  19.898  0.00  0.00    +0.000 A 
ATOM     18  C   UNL     1       1.466   5.625  20.834  0.00  0.00    +0.000 A 
ATOM     19  C   UNL     1       1.273   4.282  20.497  0.00  0.00    +0.000 A 
ATOM     20  C   UNL     1       1.575   3.850  19.202  0.00  0.00    +0.000 A 
ATOM     21  C   UNL     1       2.087   4.745  18.258  0.00  0.00    +0.000 A 
ATOM     22  C   UNL     1       2.288   6.083  18.616  0.00  0.00    +0.000 A 
BRANCH  20  23
ATOM     23  N   UNL     1       1.355   2.446  18.833  0.00  0.00    +0.000 N 
ATOM     24  O   UNL     1       0.211   2.115  18.491  0.00  0.00    +0.000 OA
ATOM     25  O   UNL     1       2.326   1.678  18.878  0.00  0.00    +0.000 OA
ENDBRANCH  20  23
ENDBRANCH  15  17
ENDBRANCH   8  15
TORSDOF 4
ENDMDL
MODEL 3
REMARK VINA RESULT:      -7.5      1.332      1.477
REMARK  Name = 
REMARK  5 active torsions:
REMARK  status: ('A' for Active; 'I' for Inactive)
REMARK    1  A    between atoms: C_1  and  C_2
REMARK    2  A    between atoms: N_4  and  C_5
REMARK    3  A    between atoms: C_14  and  N_15
REMARK    4  A    between atoms: N_15  and  C_16
REMARK    5  A    between atoms: C_19  and  N_20
REMARK                            x       y       z     vdW  Elec       q    Type
REMARK                         _______ _______ _______ _____ _____    ______ ____
ROOT
ATOM      1  C   UNL     1      -0.462  10.714  18.631  0.00  0.00    +0.000 C 
ATOM      2  C   UNL     1      -0.602  10.820  20.111  0.00  0.00    +0.000 C 
ATOM      3  N   UNL     1      -1.390  11.683  20.697  0.00  0.00    +0.000 NA
ATOM      4  N   UNL     1      -1.197  11.518  22.070  0.00  0.00    +0.000 N 
ATOM      5  C   UNL     1      -0.270  10.516  22.404  0.00  0.00    +0.000 C 
ATOM      6  O   UNL     1       0.148  10.110  23.470  0.00  0.00    +0.000 OA
ATOM      7  C   UNL     1       0.137  10.003  21.077  0.00  0.00    +0.000 C 
ATOM      8  C   UNL     1       0.998   8.990  20.939  0.00  0.00    +0.000 C 
ENDROOT
BRANCH   4   9
ATOM      9  C   UNL     1      -1.856  12.402  22.957  0.00  0.00    +0.000 A 
ATOM     10  C   UNL     1      -1.289  13.632  23.318  0.00  0.00    +0.000 A 
ATOM     11  C   UNL     1      -1.968  14.516  24.161  0.00  0.00    +0.000 A 
ATOM     12  C   UNL     1      -3.217  14.175  24.671  0.00  0.00    +0.000 A 
ATOM     13  C   UNL     1      -3.789  12.951  24.337  0.00  0.00    +0.000 A 
ATOM     14  C   UNL     1      -3.115  12.074  23.482  0.00  0.00    +0.000 A 
ENDBRANCH   4   9
BRANCH   8  15
ATOM     15  N   UNL     1       1.458   8.364  19.809  0.00  0.00    +0.000 N 
ATOM     16  H   UNL     1       1.330   8.838  18.922  0.00  0.00    +0.000 HD
BRANCH  15  17
ATOM     17  C   UNL     1       2.095   7.116  19.716  0.00  0.00    +0.000 A 
ATOM     18  C   UNL     1       2.983   6.898  18.651  0.00  0.00    +0.000 A 
ATOM     19  C   UNL     1       3.609   5.661  18.471  0.00  0.00    +0.000 A 
ATOM     20  C   UNL     1       3.346   4.622  19.368  0.00  0.00    +0.000 A 
ATOM     21  C   UNL     1       2.450   4.808  20.425  0.00  0.00    +0.000 A 
ATOM     22  C   UNL     1       1.820   6.048  20.584  0.00  0.00    +0.000 A 
BRANCH  20  23
ATOM     23  N   UNL     1       4.016   3.326  19.199  0.00  0.00    +0.000 N 
ATOM     24  O   UNL     1       3.409   2.443  18.577  0.00  0.00    +0.000 OA
ATOM     25  O   UNL     1       5.149   3.195  19.682  0.00  0.00    +0.000 OA
ENDBRANCH  20  23
ENDBRANCH  15  17
ENDBRANCH   8  15
TORSDOF 4
ENDMDL
MODEL 4
REMARK VINA RESULT:      -7.5      2.866      3.519
REMARK  Name = 
REMARK  5 active torsions:
REMARK  status: ('A' for Active; 'I' for Inactive)
REMARK    1  A    between atoms: C_1  and  C_2
REMARK    2  A    between atoms: N_4  and  C_5
REMARK    3  A    between atoms: C_14  and  N_15
REMARK    4  A    between atoms: N_15  and  C_16
REMARK    5  A    between atoms: C_19  and  N_20
REMARK                            x       y       z     vdW  Elec       q    Type
REMARK                         _______ _______ _______ _____ _____    ______ ____
ROOT
ATOM      1  C   UNL     1       1.030   9.173  17.760  0.00  0.00    +0.000 C 
ATOM      2  C   UNL     1       0.870   9.588  19.183  0.00  0.00    +0.000 C 
ATOM      3  N   UNL     1       0.344  10.729  19.543  0.00  0.00    +0.000 NA
ATOM      4  N   UNL     1       0.428  10.775  20.936  0.00  0.00    +0.000 N 
ATOM      5  C   UNL     1       1.011   9.636  21.514  0.00  0.00    +0.000 C 
ATOM      6  O   UNL     1       1.252   9.336  22.667  0.00  0.00    +0.000 OA
ATOM      7  C   UNL     1       1.303   8.793  20.335  0.00  0.00    +0.000 C 
ATOM      8  C   UNL     1       1.839   7.574  20.446  0.00  0.00    +0.000 C 
ENDROOT
BRANCH   4   9
ATOM      9  C   UNL     1       0.019  11.957  21.599  0.00  0.00    +0.000 A 
ATOM     10  C   UNL     1      -1.016  11.945  22.542  0.00  0.00    +0.000 A 
ATOM     11  C   UNL     1      -1.383  13.110  23.222  0.00  0.00    +0.000 A 
ATOM     12  C   UNL     1      -0.731  14.310  22.954  0.00  0.00    +0.000 A 
ATOM     13  C   UNL     1       0.289  14.346  22.008  0.00  0.00    +0.000 A 
ATOM     14  C   UNL     1       0.664  13.176  21.339  0.00  0.00    +0.000 A 
ENDBRANCH   4   9
BRANCH   8  15
ATOM     15  N   UNL     1       2.141   6.645  19.483  0.00  0.00    +0.000 N 
ATOM     16  H   UNL     1       1.380   6.095  19.104  0.00  0.00    +0.000 HD
BRANCH  15  17
ATOM     17  C   UNL     1       3.402   6.346  18.943  0.00  0.00    +0.000 A 
ATOM     18  C   UNL     1       3.770   6.952  17.731  0.00  0.00    +0.000 A 
ATOM     19  C   UNL     1       4.989   6.656  17.113  0.00  0.00    +0.000 A 
ATOM     20  C   UNL     1       5.858   5.741  17.714  0.00  0.00    +0.000 A 
ATOM     21  C   UNL     1       5.506   5.109  18.910  0.00  0.00    +0.000 A 
ATOM     22  C   UNL     1       4.275   5.405  19.509  0.00  0.00    +0.000 A 
BRANCH  20  23
ATOM     23  N   UNL     1       7.150   5.441  17.083  0.00  0.00    +0.000 N 
ATOM     24  O   UNL     1       7.903   4.649  17.666  0.00  0.00    +0.000 OA
ATOM     25  O   UNL     1       7.406   5.992  16.004  0.00  0.00    +0.000 OA
ENDBRANCH  20  23
ENDBRANCH  15  17
ENDBRANCH   8  15
TORSDOF 4
ENDMDL
MODEL 5
REMARK VINA RESULT:      -7.4      7.060     10.398
REMARK  Name = 
REMARK  5 active torsions:
REMARK  status: ('A' for Active; 'I' for Inactive)
REMARK    1  A    between atoms: C_1  and  C_2
REMARK    2  A    between atoms: N_4  and  C_5
REMARK    3  A    between atoms: C_14  and  N_15
REMARK    4  A    between atoms: N_15  and  C_16
REMARK    5  A    between atoms: C_19  and  N_20
REMARK                            x       y       z     vdW  Elec       q    Type
REMARK                         _______ _______ _______ _____ _____    ______ ____
ROOT
ATOM      1  C   UNL     1       8.203   5.526  19.417  0.00  0.00    +0.000 C 
ATOM      2  C   UNL     1       6.821   5.629  18.869  0.00  0.00    +0.000 C 
ATOM      3  N   UNL     1       5.879   4.762  19.129  0.00  0.00    +0.000 NA
ATOM      4  N   UNL     1       4.764   5.163  18.391  0.00  0.00    +0.000 N 
ATOM      5  C   UNL     1       4.965   6.328  17.634  0.00  0.00    +0.000 C 
ATOM      6  O   UNL     1       4.242   6.951  16.881  0.00  0.00    +0.000 OA
ATOM      7  C   UNL     1       6.363   6.685  17.962  0.00  0.00    +0.000 C 
ATOM      8  C   UNL     1       6.953   7.779  17.471  0.00  0.00    +0.000 C 
ENDROOT
BRANCH   4   9
ATOM      9  C   UNL     1       3.613   4.339  18.403  0.00  0.00    +0.000 A 
ATOM     10  C   UNL     1       3.547   3.165  17.641  0.00  0.00    +0.000 A 
ATOM     11  C   UNL     1       2.423   2.336  17.692  0.00  0.00    +0.000 A 
ATOM     12  C   UNL     1       1.339   2.680  18.493  0.00  0.00    +0.000 A 
ATOM     13  C   UNL     1       1.377   3.851  19.245  0.00  0.00    +0.000 A 
ATOM     14  C   UNL     1       2.509   4.671  19.203  0.00  0.00    +0.000 A 
ENDBRANCH   4   9
BRANCH   8  15
ATOM     15  N   UNL     1       8.209   8.284  17.689  0.00  0.00    +0.000 N 
ATOM     16  H   UNL     1       9.001   7.696  17.454  0.00  0.00    +0.000 HD
BRANCH  15  17
ATOM     17  C   UNL     1       8.552   9.540  18.214  0.00  0.00    +0.000 A 
ATOM     18  C   UNL     1       8.246  10.684  17.461  0.00  0.00    +0.000 A 
ATOM     19  C   UNL     1       8.607  11.961  17.902  0.00  0.00    +0.000 A 
ATOM     20  C   UNL     1       9.284  12.101  19.116  0.00  0.00    +0.000 A 
ATOM     21  C   UNL     1       9.618  10.975  19.875  0.00  0.00    +0.000 A 
ATOM     22  C   UNL     1       9.263   9.702  19.413  0.00  0.00    +0.000 A 
BRANCH  20  23
ATOM     23  N   UNL     1       9.648  13.440  19.598  0.00  0.00    +0.000 N 
ATOM     24  O   UNL     1       9.334  14.408  18.892  0.00  0.00    +0.000 OA
ATOM     25  O   UNL     1      10.240  13.521  20.682  0.00  0.00    +0.000 OA
ENDBRANCH  20  23
ENDBRANCH  15  17
ENDBRANCH   8  15
TORSDOF 4
ENDMDL
MODEL 6
REMARK VINA RESULT:      -7.4      2.850      3.355
REMARK  Name = 
REMARK  5 active torsions:
REMARK  status: ('A' for Active; 'I' for Inactive)
REMARK    1  A    between atoms: C_1  and  C_2
REMARK    2  A    between atoms: N_4  and  C_5
REMARK    3  A    between atoms: C_14  and  N_15
REMARK    4  A    between atoms: N_15  and  C_16
REMARK    5  A    between atoms: C_19  and  N_20
REMARK                            x       y       z     vdW  Elec       q    Type
REMARK                         _______ _______ _______ _____ _____    ______ ____
ROOT
ATOM      1  C   UNL     1       0.707   9.229  17.785  0.00  0.00    +0.000 C 
ATOM      2  C   UNL     1       0.664   9.637  19.218  0.00  0.00    +0.000 C 
ATOM      3  N   UNL     1       0.100  10.741  19.633  0.00  0.00    +0.000 NA
ATOM      4  N   UNL     1       0.321  10.798  21.010  0.00  0.00    +0.000 N 
ATOM      5  C   UNL     1       1.035   9.702  21.523  0.00  0.00    +0.000 C 
ATOM      6  O   UNL     1       1.411   9.422  22.645  0.00  0.00    +0.000 OA
ATOM      7  C   UNL     1       1.263   8.876  20.317  0.00  0.00    +0.000 C 
ATOM      8  C   UNL     1       1.888   7.696  20.370  0.00  0.00    +0.000 C 
ENDROOT
BRANCH   4   9
ATOM      9  C   UNL     1      -0.097  11.951  21.715  0.00  0.00    +0.000 A 
ATOM     10  C   UNL     1       0.477  13.206  21.470  0.00  0.00    +0.000 A 
ATOM     11  C   UNL     1       0.027  14.346  22.142  0.00  0.00    +0.000 A 
ATOM     12  C   UNL     1      -0.992  14.245  23.083  0.00  0.00    +0.000 A 
ATOM     13  C   UNL     1      -1.564  13.005  23.354  0.00  0.00    +0.000 A 
ATOM     14  C   UNL     1      -1.122  11.867  22.670  0.00  0.00    +0.000 A 
ENDBRANCH   4   9
BRANCH   8  15
ATOM     15  N   UNL     1       2.154   6.787  19.378  0.00  0.00    +0.000 N 
ATOM     16  H   UNL     1       1.369   6.292  18.971  0.00  0.00    +0.000 HD
BRANCH  15  17
ATOM     17  C   UNL     1       3.404   6.440  18.842  0.00  0.00    +0.000 A 
ATOM     18  C   UNL     1       3.835   7.094  17.677  0.00  0.00    +0.000 A 
ATOM     19  C   UNL     1       5.045   6.758  17.063  0.00  0.00    +0.000 A 
ATOM     20  C   UNL     1       5.842   5.753  17.620  0.00  0.00    +0.000 A 
ATOM     21  C   UNL     1       5.424   5.073  18.768  0.00  0.00    +0.000 A 
ATOM     22  C   UNL     1       4.203   5.411  19.363  0.00  0.00    +0.000 A 
BRANCH  20  23
ATOM     23  N   UNL     1       7.124   5.408  16.994  0.00  0.00    +0.000 N 
ATOM     24  O   UNL     1       7.396   5.944  15.910  0.00  0.00    +0.000 OA
ATOM     25  O   UNL     1       7.860   4.609  17.588  0.00  0.00    +0.000 OA
ENDBRANCH  20  23
ENDBRANCH  15  17
ENDBRANCH   8  15
TORSDOF 4
ENDMDL
MODEL 7
REMARK VINA RESULT:      -7.4      7.085     10.360
REMARK  Name = 
REMARK  5 active torsions:
REMARK  status: ('A' for Active; 'I' for Inactive)
REMARK    1  A    between atoms: C_1  and  C_2
REMARK    2  A    between atoms: N_4  and  C_5
REMARK    3  A    between atoms: C_14  and  N_15
REMARK    4  A    between atoms: N_15  and  C_16
REMARK    5  A    between atoms: C_19  and  N_20
REMARK                            x       y       z     vdW  Elec       q    Type
REMARK                         _______ _______ _______ _____ _____    ______ ____
ROOT
ATOM      1  C   UNL     1       8.200   5.546  19.491  0.00  0.00    +0.000 C 
ATOM      2  C   UNL     1       6.816   5.631  18.943  0.00  0.00    +0.000 C 
ATOM      3  N   UNL     1       5.878   4.767  19.228  0.00  0.00    +0.000 NA
ATOM      4  N   UNL     1       4.760   5.145  18.481  0.00  0.00    +0.000 N 
ATOM      5  C   UNL     1       4.956   6.292  17.694  0.00  0.00    +0.000 C 
ATOM      6  O   UNL     1       4.229   6.893  16.927  0.00  0.00    +0.000 OA
ATOM      7  C   UNL     1       6.354   6.661  18.010  0.00  0.00    +0.000 C 
ATOM      8  C   UNL     1       6.939   7.744  17.490  0.00  0.00    +0.000 C 
ENDROOT
BRANCH   4   9
ATOM      9  C   UNL     1       3.612   4.318  18.515  0.00  0.00    +0.000 A 
ATOM     10  C   UNL     1       2.587   4.527  19.448  0.00  0.00    +0.000 A 
ATOM     11  C   UNL     1       1.439   3.731  19.445  0.00  0.00    +0.000 A 
ATOM     12  C   UNL     1       1.307   2.700  18.521  0.00  0.00    +0.000 A 
ATOM     13  C   UNL     1       2.321   2.465  17.597  0.00  0.00    +0.000 A 
ATOM     14  C   UNL     1       3.463   3.272  17.592  0.00  0.00    +0.000 A 
ENDBRANCH   4   9
BRANCH   8  15
ATOM     15  N   UNL     1       8.194   8.259  17.693  0.00  0.00    +0.000 N 
ATOM     16  H   UNL     1       8.987   7.681  17.438  0.00  0.00    +0.000 HD
BRANCH  15  17
ATOM     17  C   UNL     1       8.533   9.512  18.229  0.00  0.00    +0.000 A 
ATOM     18  C   UNL     1       8.253  10.659  17.469  0.00  0.00    +0.000 A 
ATOM     19  C   UNL     1       8.613  11.932  17.920  0.00  0.00    +0.000 A 
ATOM     20  C   UNL     1       9.263  12.066  19.151  0.00  0.00    +0.000 A 
ATOM     21  C   UNL     1       9.571  10.937  19.916  0.00  0.00    +0.000 A 
ATOM     22  C   UNL     1       9.217   9.667  19.444  0.00  0.00    +0.000 A 
BRANCH  20  23
ATOM     23  N   UNL     1       9.625  13.401  19.642  0.00  0.00    +0.000 N 
ATOM     24  O   UNL     1       8.795  14.310  19.501  0.00  0.00    +0.000 OA
ATOM     25  O   UNL     1      10.735  13.539  20.175  0.00  0.00    +0.000 OA
ENDBRANCH  20  23
ENDBRANCH  15  17
ENDBRANCH   8  15
TORSDOF 4
ENDMDL
MODEL 8
REMARK VINA RESULT:      -7.4      1.534      2.163
REMARK  Name = 
REMARK  5 active torsions:
REMARK  status: ('A' for Active; 'I' for Inactive)
REMARK    1  A    between atoms: C_1  and  C_2
REMARK    2  A    between atoms: N_4  and  C_5
REMARK    3  A    between atoms: C_14  and  N_15
REMARK    4  A    between atoms: N_15  and  C_16
REMARK    5  A    between atoms: C_19  and  N_20
REMARK                            x       y       z     vdW  Elec       q    Type
REMARK                         _______ _______ _______ _____ _____    ______ ____
ROOT
ATOM      1  C   UNL     1       0.360   9.872  18.058  0.00  0.00    +0.000 C 
ATOM      2  C   UNL     1       0.203  10.104  19.522  0.00  0.00    +0.000 C 
ATOM      3  N   UNL     1      -0.537  11.059  20.021  0.00  0.00    +0.000 NA
ATOM      4  N   UNL     1      -0.377  10.991  21.407  0.00  0.00    +0.000 N 
ATOM      5  C   UNL     1       0.477   9.962  21.837  0.00  0.00    +0.000 C 
ATOM      6  O   UNL     1       0.850   9.616  22.941  0.00  0.00    +0.000 OA
ATOM      7  C   UNL     1       0.871   9.321  20.564  0.00  0.00    +0.000 C 
ATOM      8  C   UNL     1       1.667   8.248  20.524  0.00  0.00    +0.000 C 
ENDROOT
BRANCH   4   9
ATOM      9  C   UNL     1      -0.992  11.983  22.207  0.00  0.00    +0.000 A 
ATOM     10  C   UNL     1      -2.181  11.728  22.903  0.00  0.00    +0.000 A 
ATOM     11  C   UNL     1      -2.757  12.702  23.724  0.00  0.00    +0.000 A 
ATOM     12  C   UNL     1      -2.160  13.953  23.847  0.00  0.00    +0.000 A 
ATOM     13  C   UNL     1      -0.988  14.232  23.151  0.00  0.00    +0.000 A 
ATOM     14  C   UNL     1      -0.406  13.251  22.341  0.00  0.00    +0.000 A 
ENDBRANCH   4   9
BRANCH   8  15
ATOM     15  N   UNL     1       2.103   7.506  19.456  0.00  0.00    +0.000 N 
ATOM     16  H   UNL     1       2.051   7.928  18.536  0.00  0.00    +0.000 HD
BRANCH  15  17
ATOM     17  C   UNL     1       2.623   6.201  19.471  0.00  0.00    +0.000 A 
ATOM     18  C   UNL     1       1.996   5.243  20.282  0.00  0.00    +0.000 A 
ATOM     19  C   UNL     1       2.494   3.941  20.383  0.00  0.00    +0.000 A 
ATOM     20  C   UNL     1       3.637   3.586  19.662  0.00  0.00    +0.000 A 
ATOM     21  C   UNL     1       4.291   4.528  18.862  0.00  0.00    +0.000 A 
ATOM     22  C   UNL     1       3.789   5.832  18.783  0.00  0.00    +0.000 A 
BRANCH  20  23
ATOM     23  N   UNL     1       4.155   2.214  19.744  0.00  0.00    +0.000 N 
ATOM     24  O   UNL     1       4.955   1.956  20.654  0.00  0.00    +0.000 OA
ATOM     25  O   UNL     1       3.756   1.395  18.905  0.00  0.00    +0.000 OA
ENDBRANCH  20  23
ENDBRANCH  15  17
ENDBRANCH   8  15
TORSDOF 4
ENDMDL
MODEL 9
REMARK VINA RESULT:      -7.4      1.084      1.229
REMARK  Name = 
REMARK  5 active torsions:
REMARK  status: ('A' for Active; 'I' for Inactive)
REMARK    1  A    between atoms: C_1  and  C_2
REMARK    2  A    between atoms: N_4  and  C_5
REMARK    3  A    between atoms: C_14  and  N_15
REMARK    4  A    between atoms: N_15  and  C_16
REMARK    5  A    between atoms: C_19  and  N_20
REMARK                            x       y       z     vdW  Elec       q    Type
REMARK                         _______ _______ _______ _____ _____    ______ ____
ROOT
ATOM      1  C   UNL     1       1.307   9.969  18.440  0.00  0.00    +0.000 C 
ATOM      2  C   UNL     1       0.503  10.230  19.668  0.00  0.00    +0.000 C 
ATOM      3  N   UNL     1      -0.389  11.181  19.753  0.00  0.00    +0.000 NA
ATOM      4  N   UNL     1      -0.873  11.146  21.062  0.00  0.00    +0.000 N 
ATOM      5  C   UNL     1      -0.300  10.142  21.860  0.00  0.00    +0.000 C 
ATOM      6  O   UNL     1      -0.464   9.826  23.022  0.00  0.00    +0.000 OA
ATOM      7  C   UNL     1       0.633   9.481  20.921  0.00  0.00    +0.000 C 
ATOM      8  C   UNL     1       1.367   8.422  21.274  0.00  0.00    +0.000 C 
ENDROOT
BRANCH   4   9
ATOM      9  C   UNL     1      -1.790  12.143  21.471  0.00  0.00    +0.000 A 
ATOM     10  C   UNL     1      -2.776  12.631  20.602  0.00  0.00    +0.000 A 
ATOM     11  C   UNL     1      -3.702  13.586  21.029  0.00  0.00    +0.000 A 
ATOM     12  C   UNL     1      -3.646  14.081  22.328  0.00  0.00    +0.000 A 
ATOM     13  C   UNL     1      -2.665  13.621  23.202  0.00  0.00    +0.000 A 
ATOM     14  C   UNL     1      -1.747  12.656  22.777  0.00  0.00    +0.000 A 
ENDBRANCH   4   9
BRANCH   8  15
ATOM     15  N   UNL     1       2.245   7.666  20.540  0.00  0.00    +0.000 N 
ATOM     16  H   UNL     1       3.155   8.063  20.339  0.00  0.00    +0.000 HD
BRANCH  15  17
ATOM     17  C   UNL     1       2.040   6.382  20.011  0.00  0.00    +0.000 A 
ATOM     18  C   UNL     1       2.357   6.157  18.662  0.00  0.00    +0.000 A 
ATOM     19  C   UNL     1       2.127   4.917  18.060  0.00  0.00    +0.000 A 
ATOM     20  C   UNL     1       1.571   3.880  18.816  0.00  0.00    +0.000 A 
ATOM     21  C   UNL     1       1.228   4.085  20.155  0.00  0.00    +0.000 A 
ATOM     22  C   UNL     1       1.451   5.337  20.740  0.00  0.00    +0.000 A 
BRANCH  20  23
ATOM     23  N   UNL     1       1.346   2.567  18.197  0.00  0.00    +0.000 N 
ATOM     24  O   UNL     1       0.304   1.965  18.491  0.00  0.00    +0.000 OA
ATOM     25  O   UNL     1       2.208   2.143  17.415  0.00  0.00    +0.000 OA
ENDBRANCH  20  23
ENDBRANCH  15  17
ENDBRANCH   8  15
TORSDOF 4
ENDMDL
