MODEL 1
REMARK VINA RESULT:      -8.0      0.000      0.000
REMARK  Name = 
REMARK  7 active torsions:
REMARK  status: ('A' for Active; 'I' for Inactive)
REMARK    1  A    between atoms: C_1  and  C_2
REMARK    2  A    between atoms: C_2  and  C_3
REMARK    3  A    between atoms: C_3  and  O_4
REMARK    4  A    between atoms: O_4  and  C_5
REMARK    5  A    between atoms: C_8  and  C_9
REMARK    6  A    between atoms: C_11  and  O_12
REMARK    7  A    between atoms: O_12  and  C_13
REMARK                            x       y       z     vdW  Elec       q    Type
REMARK                         _______ _______ _______ _____ _____    ______ ____
ROOT
ATOM      1  C   UNL     1       1.788   7.086  20.388  0.00  0.00    +0.000 A 
ATOM      2  C   UNL     1       2.775   7.004  19.412  0.00  0.00    +0.000 A 
ATOM      3  C   UNL     1       3.156   5.785  18.911  0.00  0.00    +0.000 A 
ATOM      4  C   UNL     1       2.929   4.677  19.710  0.00  0.00    +0.000 A 
ATOM      5  C   UNL     1       3.696   3.502  19.536  0.00  0.00    +0.000 A 
ATOM      6  C   UNL     1       3.544   2.425  20.399  0.00  0.00    +0.000 A 
ATOM      7  C   UNL     1       2.561   2.488  21.376  0.00  0.00    +0.000 A 
ATOM      8  C   UNL     1       1.785   3.650  21.536  0.00  0.00    +0.000 A 
ATOM      9  C   UNL     1       1.990   4.791  20.751  0.00  0.00    +0.000 A 
ATOM     10  N   UNL     1       1.350   5.965  21.023  0.00  0.00    +0.000 NA
ENDROOT
BRANCH   1  14
ATOM     11  C   UNL     1       0.002  10.935  21.422  0.00  0.00    +0.000 A 
ATOM     12  C   UNL     1       0.194   9.934  22.359  0.00  0.00    +0.000 A 
ATOM     13  C   UNL     1       0.740   8.712  21.986  0.00  0.00    +0.000 A 
ATOM     14  C   UNL     1       1.158   8.411  20.681  0.00  0.00    +0.000 A 
ATOM     15  C   UNL     1       0.992   9.446  19.741  0.00  0.00    +0.000 A 
ATOM     16  C   UNL     1       0.421  10.691  20.111  0.00  0.00    +0.000 A 
BRANCH  11  17
ATOM     17  O   UNL     1      -0.583  12.148  21.708  0.00  0.00    +0.000 OA
BRANCH  17  18
ATOM     18  C   UNL     1      -1.366  12.155  22.912  0.00  0.00    +0.000 C 
BRANCH  18  20
ATOM     19  C   UNL     1      -3.614  12.368  23.970  0.00  0.00    +0.000 C 
ATOM     20  C   UNL     1      -2.838  12.448  22.660  0.00  0.00    +0.000 C 
ENDBRANCH  18  20
ENDBRANCH  17  18
ENDBRANCH  11  17
ENDBRANCH   1  14
BRANCH   3  21
ATOM     21  O   UNL     1       3.720   5.595  17.687  0.00  0.00    +0.000 OA
BRANCH  21  22
ATOM     22  C   UNL     1       4.856   6.371  17.286  0.00  0.00    +0.000 C 
ATOM     23  C   UNL     1       5.309   6.280  15.792  0.00  0.00    +0.000 C 
ATOM     24  N   UNL     1       6.766   5.964  15.654  0.00  0.00    +0.000 NA
ATOM     25  C   UNL     1       7.562   6.908  16.472  0.00  0.00    +0.000 C 
ATOM     26  C   UNL     1       7.182   6.839  17.960  0.00  0.00    +0.000 C 
ATOM     27  C   UNL     1       6.026   5.852  18.144  0.00  0.00    +0.000 C 
ATOM     28  C   UNL     1       6.482   4.472  17.620  0.00  0.00    +0.000 C 
ATOM     29  C   UNL     1       6.995   4.601  16.178  0.00  0.00    +0.000 C 
ENDBRANCH  21  22
ENDBRANCH   3  21
TORSDOF 6
ENDMDL
MODEL 2
REMARK VINA RESULT:      -8.0      0.865      1.103
REMARK  Name = 
REMARK  7 active torsions:
REMARK  status: ('A' for Active; 'I' for Inactive)
REMARK    1  A    between atoms: C_1  and  C_2
REMARK    2  A    between atoms: C_2  and  C_3
REMARK    3  A    between atoms: C_3  and  O_4
REMARK    4  A    between atoms: O_4  and  C_5
REMARK    5  A    between atoms: C_8  and  C_9
REMARK    6  A    between atoms: C_11  and  O_12
REMARK    7  A    between atoms: O_12  and  C_13
REMARK                            x       y       z     vdW  Elec       q    Type
REMARK                         _______ _______ _______ _____ _____    ______ ____
ROOT
ATOM      1  C   UNL     1       1.974   7.060  20.022  0.00  0.00    +0.000 A 
ATOM      2  C   UNL     1       2.896   6.836  19.005  0.00  0.00    +0.000 A 
ATOM      3  C   UNL     1       3.208   5.556  18.622  0.00  0.00    +0.000 A 
ATOM      4  C   UNL     1       2.998   4.551  19.550  0.00  0.00    +0.000 A 
ATOM      5  C   UNL     1       3.717   3.337  19.464  0.00  0.00    +0.000 A 
ATOM      6  C   UNL     1       3.586   2.367  20.448  0.00  0.00    +0.000 A 
ATOM      7  C   UNL     1       2.668   2.572  21.468  0.00  0.00    +0.000 A 
ATOM      8  C   UNL     1       1.939   3.772  21.543  0.00  0.00    +0.000 A 
ATOM      9  C   UNL     1       2.129   4.812  20.626  0.00  0.00    +0.000 A 
ATOM     10  N   UNL     1       1.542   6.032  20.802  0.00  0.00    +0.000 NA
ENDROOT
BRANCH   1  14
ATOM     11  C   UNL     1       0.364  11.058  20.727  0.00  0.00    +0.000 A 
ATOM     12  C   UNL     1       0.539  10.141  21.749  0.00  0.00    +0.000 A 
ATOM     13  C   UNL     1       1.028   8.868  21.482  0.00  0.00    +0.000 A 
ATOM     14  C   UNL     1       1.403   8.430  20.202  0.00  0.00    +0.000 A 
ATOM     15  C   UNL     1       1.255   9.381  19.173  0.00  0.00    +0.000 A 
ATOM     16  C   UNL     1       0.742  10.676  19.436  0.00  0.00    +0.000 A 
BRANCH  11  17
ATOM     17  O   UNL     1      -0.166  12.316  20.909  0.00  0.00    +0.000 OA
BRANCH  17  18
ATOM     18  C   UNL     1      -1.530  12.319  21.360  0.00  0.00    +0.000 C 
BRANCH  18  20
ATOM     19  C   UNL     1      -2.887  12.108  23.441  0.00  0.00    +0.000 C 
ATOM     20  C   UNL     1      -1.675  12.778  22.805  0.00  0.00    +0.000 C 
ENDBRANCH  18  20
ENDBRANCH  17  18
ENDBRANCH  11  17
ENDBRANCH   1  14
BRANCH   3  21
ATOM     21  O   UNL     1       3.689   5.214  17.396  0.00  0.00    +0.000 OA
BRANCH  21  22
ATOM     22  C   UNL     1       5.025   5.569  17.017  0.00  0.00    +0.000 C 
ATOM     23  C   UNL     1       5.227   6.278  15.638  0.00  0.00    +0.000 C 
ATOM     24  N   UNL     1       6.264   5.603  14.795  0.00  0.00    +0.000 NA
ATOM     25  C   UNL     1       7.510   5.434  15.578  0.00  0.00    +0.000 C 
ATOM     26  C   UNL     1       7.283   4.593  16.844  0.00  0.00    +0.000 C 
ATOM     27  C   UNL     1       5.798   4.239  16.958  0.00  0.00    +0.000 C 
ATOM     28  C   UNL     1       5.391   3.457  15.689  0.00  0.00    +0.000 C 
ATOM     29  C   UNL     1       5.766   4.260  14.435  0.00  0.00    +0.000 C 
ENDBRANCH  21  22
ENDBRANCH   3  21
TORSDOF 6
ENDMDL
MODEL 3
REMARK VINA RESULT:      -7.9      1.854      2.605
REMARK  Name = 
REMARK  7 active torsions:
REMARK  status: ('A' for Active; 'I' for Inactive)
REMARK    1  A    between atoms: C_1  and  C_2
REMARK    2  A    between atoms: C_2  and  C_3
REMARK    3  A    between atoms: C_3  and  O_4
REMARK    4  A    between atoms: O_4  and  C_5
REMARK    5  A    between atoms: C_8  and  C_9
REMARK    6  A    between atoms: C_11  and  O_12
REMARK    7  A    between atoms: O_12  and  C_13
REMARK                            x       y       z     vdW  Elec       q    Type
REMARK                         _______ _______ _______ _____ _____    ______ ____
ROOT
ATOM      1  C   UNL     1       2.237   6.725  19.461  0.00  0.00    +0.000 A 
ATOM      2  C   UNL     1       3.056   6.211  18.461  0.00  0.00    +0.000 A 
ATOM      3  C   UNL     1       3.204   4.854  18.315  0.00  0.00    +0.000 A 
ATOM      4  C   UNL     1       2.957   4.069  19.429  0.00  0.00    +0.000 A 
ATOM      5  C   UNL     1       3.536   2.786  19.541  0.00  0.00    +0.000 A 
ATOM      6  C   UNL     1       3.375   2.036  20.698  0.00  0.00    +0.000 A 
ATOM      7  C   UNL     1       2.559   2.532  21.704  0.00  0.00    +0.000 A 
ATOM      8  C   UNL     1       1.967   3.802  21.584  0.00  0.00    +0.000 A 
ATOM      9  C   UNL     1       2.199   4.625  20.476  0.00  0.00    +0.000 A 
ATOM     10  N   UNL     1       1.757   5.916  20.445  0.00  0.00    +0.000 NA
ENDROOT
BRANCH   1  14
ATOM     11  C   UNL     1       1.032  10.906  19.102  0.00  0.00    +0.000 A 
ATOM     12  C   UNL     1       1.654  10.226  18.070  0.00  0.00    +0.000 A 
ATOM     13  C   UNL     1       2.048   8.903  18.232  0.00  0.00    +0.000 A 
ATOM     14  C   UNL     1       1.828   8.162  19.403  0.00  0.00    +0.000 A 
ATOM     15  C   UNL     1       1.163   8.851  20.436  0.00  0.00    +0.000 A 
ATOM     16  C   UNL     1       0.771  10.205  20.284  0.00  0.00    +0.000 A 
BRANCH  11  17
ATOM     17  O   UNL     1       0.663  12.232  19.033  0.00  0.00    +0.000 OA
BRANCH  17  18
ATOM     18  C   UNL     1      -0.748  12.458  19.176  0.00  0.00    +0.000 C 
BRANCH  18  20
ATOM     19  C   UNL     1      -2.480  10.928  18.239  0.00  0.00    +0.000 C 
ATOM     20  C   UNL     1      -1.537  12.085  17.929  0.00  0.00    +0.000 C 
ENDBRANCH  18  20
ENDBRANCH  17  18
ENDBRANCH  11  17
ENDBRANCH   1  14
BRANCH   3  21
ATOM     21  O   UNL     1       3.558   4.237  17.155  0.00  0.00    +0.000 OA
BRANCH  21  22
ATOM     22  C   UNL     1       4.940   4.038  16.833  0.00  0.00    +0.000 C 
ATOM     23  C   UNL     1       6.007   4.577  17.841  0.00  0.00    +0.000 C 
ATOM     24  N   UNL     1       7.037   5.438  17.177  0.00  0.00    +0.000 NA
ATOM     25  C   UNL     1       7.609   4.723  16.013  0.00  0.00    +0.000 C 
ATOM     26  C   UNL     1       6.533   4.358  14.978  0.00  0.00    +0.000 C 
ATOM     27  C   UNL     1       5.159   4.783  15.503  0.00  0.00    +0.000 C 
ATOM     28  C   UNL     1       5.192   6.306  15.760  0.00  0.00    +0.000 C 
ATOM     29  C   UNL     1       6.369   6.659  16.681  0.00  0.00    +0.000 C 
ENDBRANCH  21  22
ENDBRANCH   3  21
TORSDOF 6
ENDMDL
MODEL 4
REMARK VINA RESULT:      -7.9      2.767      8.474
REMARK  Name = 
REMARK  7 active torsions:
REMARK  status: ('A' for Active; 'I' for Inactive)
REMARK    1  A    between atoms: C_1  and  C_2
REMARK    2  A    between atoms: C_2  and  C_3
REMARK    3  A    between atoms: C_3  and  O_4
REMARK    4  A    between atoms: O_4  and  C_5
REMARK    5  A    between atoms: C_8  and  C_9
REMARK    6  A    between atoms: C_11  and  O_12
REMARK    7  A    between atoms: O_12  and  C_13
REMARK                            x       y       z     vdW  Elec       q    Type
REMARK                         _______ _______ _______ _____ _____    ______ ____
ROOT
ATOM      1  C   UNL     1       3.559   6.777  17.627  0.00  0.00    +0.000 A 
ATOM      2  C   UNL     1       3.310   6.232  18.882  0.00  0.00    +0.000 A 
ATOM      3  C   UNL     1       2.285   6.714  19.657  0.00  0.00    +0.000 A 
ATOM      4  C   UNL     1       1.861   8.009  19.407  0.00  0.00    +0.000 A 
ATOM      5  C   UNL     1       1.205   8.752  20.414  0.00  0.00    +0.000 A 
ATOM      6  C   UNL     1       0.868  10.082  20.205  0.00  0.00    +0.000 A 
ATOM      7  C   UNL     1       1.105  10.641  18.957  0.00  0.00    +0.000 A 
ATOM      8  C   UNL     1       1.741   9.895  17.949  0.00  0.00    +0.000 A 
ATOM      9  C   UNL     1       2.189   8.586  18.167  0.00  0.00    +0.000 A 
ATOM     10  N   UNL     1       2.950   7.932  17.242  0.00  0.00    +0.000 NA
ENDROOT
BRANCH   1  14
ATOM     11  C   UNL     1       6.043   4.468  14.876  0.00  0.00    +0.000 A 
ATOM     12  C   UNL     1       5.341   3.876  15.912  0.00  0.00    +0.000 A 
ATOM     13  C   UNL     1       4.583   4.648  16.784  0.00  0.00    +0.000 A 
ATOM     14  C   UNL     1       4.444   6.040  16.673  0.00  0.00    +0.000 A 
ATOM     15  C   UNL     1       5.133   6.630  15.596  0.00  0.00    +0.000 A 
ATOM     16  C   UNL     1       5.921   5.852  14.711  0.00  0.00    +0.000 A 
BRANCH  11  17
ATOM     17  O   UNL     1       6.857   3.774  14.008  0.00  0.00    +0.000 OA
BRANCH  17  18
ATOM     18  C   UNL     1       6.499   3.920  12.624  0.00  0.00    +0.000 C 
BRANCH  18  20
ATOM     19  C   UNL     1       4.389   3.292  11.455  0.00  0.00    +0.000 C 
ATOM     20  C   UNL     1       5.660   2.760  12.105  0.00  0.00    +0.000 C 
ENDBRANCH  18  20
ENDBRANCH  17  18
ENDBRANCH  11  17
ENDBRANCH   1  14
BRANCH   3  21
ATOM     21  O   UNL     1       1.655   6.004  20.631  0.00  0.00    +0.000 OA
BRANCH  21  22
ATOM     22  C   UNL     1       2.226   4.786  21.124  0.00  0.00    +0.000 C 
ATOM     23  C   UNL     1       3.491   4.227  20.394  0.00  0.00    +0.000 C 
ATOM     24  N   UNL     1       3.335   2.791  19.998  0.00  0.00    +0.000 NA
ATOM     25  C   UNL     1       2.911   1.993  21.171  0.00  0.00    +0.000 C 
ATOM     26  C   UNL     1       1.578   2.490  21.753  0.00  0.00    +0.000 C 
ATOM     27  C   UNL     1       1.117   3.728  20.977  0.00  0.00    +0.000 C 
ATOM     28  C   UNL     1       0.966   3.336  19.490  0.00  0.00    +0.000 C 
ATOM     29  C   UNL     1       2.269   2.705  18.978  0.00  0.00    +0.000 C 
ENDBRANCH  21  22
ENDBRANCH   3  21
TORSDOF 6
ENDMDL
MODEL 5
REMARK VINA RESULT:      -7.8      1.572      2.251
REMARK  Name = 
REMARK  7 active torsions:
REMARK  status: ('A' for Active; 'I' for Inactive)
REMARK    1  A    between atoms: C_1  and  C_2
REMARK    2  A    between atoms: C_2  and  C_3
REMARK    3  A    between atoms: C_3  and  O_4
REMARK    4  A    between atoms: O_4  and  C_5
REMARK    5  A    between atoms: C_8  and  C_9
REMARK    6  A    between atoms: C_11  and  O_12
REMARK    7  A    between atoms: O_12  and  C_13
REMARK                            x       y       z     vdW  Elec       q    Type
REMARK                         _______ _______ _______ _____ _____    ______ ____
ROOT
ATOM      1  C   UNL     1       1.980   7.112  20.017  0.00  0.00    +0.000 A 
ATOM      2  C   UNL     1       2.904   6.875  19.004  0.00  0.00    +0.000 A 
ATOM      3  C   UNL     1       3.199   5.591  18.621  0.00  0.00    +0.000 A 
ATOM      4  C   UNL     1       2.969   4.588  19.548  0.00  0.00    +0.000 A 
ATOM      5  C   UNL     1       3.670   3.364  19.465  0.00  0.00    +0.000 A 
ATOM      6  C   UNL     1       3.519   2.395  20.447  0.00  0.00    +0.000 A 
ATOM      7  C   UNL     1       2.599   2.613  21.462  0.00  0.00    +0.000 A 
ATOM      8  C   UNL     1       1.887   3.824  21.534  0.00  0.00    +0.000 A 
ATOM      9  C   UNL     1       2.099   4.862  20.619  0.00  0.00    +0.000 A 
ATOM     10  N   UNL     1       1.529   6.090  20.793  0.00  0.00    +0.000 NA
ENDROOT
BRANCH   1  14
ATOM     11  C   UNL     1       0.318  11.136  20.354  0.00  0.00    +0.000 A 
ATOM     12  C   UNL     1       0.738  10.609  19.144  0.00  0.00    +0.000 A 
ATOM     13  C   UNL     1       1.288   9.335  19.081  0.00  0.00    +0.000 A 
ATOM     14  C   UNL     1       1.429   8.491  20.194  0.00  0.00    +0.000 A 
ATOM     15  C   UNL     1       0.967   9.021  21.414  0.00  0.00    +0.000 A 
ATOM     16  C   UNL     1       0.419  10.327  21.489  0.00  0.00    +0.000 A 
BRANCH  11  17
ATOM     17  O   UNL     1      -0.185  12.410  20.500  0.00  0.00    +0.000 OA
BRANCH  17  18
ATOM     18  C   UNL     1      -0.738  12.965  19.296  0.00  0.00    +0.000 C 
BRANCH  18  20
ATOM     19  C   UNL     1       1.245  14.394  18.802  0.00  0.00    +0.000 C 
ATOM     20  C   UNL     1      -0.263  14.386  19.026  0.00  0.00    +0.000 C 
ENDBRANCH  18  20
ENDBRANCH  17  18
ENDBRANCH  11  17
ENDBRANCH   1  14
BRANCH   3  21
ATOM     21  O   UNL     1       3.682   5.242  17.398  0.00  0.00    +0.000 OA
BRANCH  21  22
ATOM     22  C   UNL     1       5.019   5.592  17.021  0.00  0.00    +0.000 C 
ATOM     23  C   UNL     1       5.228   6.284  15.634  0.00  0.00    +0.000 C 
ATOM     24  N   UNL     1       6.268   5.599  14.803  0.00  0.00    +0.000 NA
ATOM     25  C   UNL     1       7.511   5.438  15.593  0.00  0.00    +0.000 C 
ATOM     26  C   UNL     1       7.278   4.613  16.869  0.00  0.00    +0.000 C 
ATOM     27  C   UNL     1       5.792   4.261  16.981  0.00  0.00    +0.000 C 
ATOM     28  C   UNL     1       5.389   3.465  15.719  0.00  0.00    +0.000 C 
ATOM     29  C   UNL     1       5.770   4.252  14.457  0.00  0.00    +0.000 C 
ENDBRANCH  21  22
ENDBRANCH   3  21
TORSDOF 6
ENDMDL
MODEL 6
REMARK VINA RESULT:      -7.8      0.799      1.354
REMARK  Name = 
REMARK  7 active torsions:
REMARK  status: ('A' for Active; 'I' for Inactive)
REMARK    1  A    between atoms: C_1  and  C_2
REMARK    2  A    between atoms: C_2  and  C_3
REMARK    3  A    between atoms: C_3  and  O_4
REMARK    4  A    between atoms: O_4  and  C_5
REMARK    5  A    between atoms: C_8  and  C_9
REMARK    6  A    between atoms: C_11  and  O_12
REMARK    7  A    between atoms: O_12  and  C_13
REMARK                            x       y       z     vdW  Elec       q    Type
REMARK                         _______ _______ _______ _____ _____    ______ ____
ROOT
ATOM      1  C   UNL     1       1.899   7.075  20.277  0.00  0.00    +0.000 A 
ATOM      2  C   UNL     1       2.803   6.931  19.229  0.00  0.00    +0.000 A 
ATOM      3  C   UNL     1       3.119   5.683  18.753  0.00  0.00    +0.000 A 
ATOM      4  C   UNL     1       2.938   4.615  19.615  0.00  0.00    +0.000 A 
ATOM      5  C   UNL     1       3.666   3.418  19.432  0.00  0.00    +0.000 A 
ATOM      6  C   UNL     1       3.565   2.381  20.350  0.00  0.00    +0.000 A 
ATOM      7  C   UNL     1       2.665   2.506  21.398  0.00  0.00    +0.000 A 
ATOM      8  C   UNL     1       1.926   3.690  21.569  0.00  0.00    +0.000 A 
ATOM      9  C   UNL     1       2.088   4.793  20.722  0.00  0.00    +0.000 A 
ATOM     10  N   UNL     1       1.493   5.991  20.993  0.00  0.00    +0.000 NA
ENDROOT
BRANCH   1  14
ATOM     11  C   UNL     1       0.138  11.017  20.928  0.00  0.00    +0.000 A 
ATOM     12  C   UNL     1       0.481  10.561  19.667  0.00  0.00    +0.000 A 
ATOM     13  C   UNL     1       1.065   9.311  19.502  0.00  0.00    +0.000 A 
ATOM     14  C   UNL     1       1.319   8.423  20.560  0.00  0.00    +0.000 A 
ATOM     15  C   UNL     1       0.936   8.882  21.836  0.00  0.00    +0.000 A 
ATOM     16  C   UNL     1       0.353  10.162  22.013  0.00  0.00    +0.000 A 
BRANCH  11  17
ATOM     17  O   UNL     1      -0.393  12.265  21.172  0.00  0.00    +0.000 OA
BRANCH  17  18
ATOM     18  C   UNL     1      -0.916  12.431  22.499  0.00  0.00    +0.000 C 
BRANCH  18  20
ATOM     19  C   UNL     1      -3.094  13.274  21.626  0.00  0.00    +0.000 C 
ATOM     20  C   UNL     1      -2.429  12.274  22.564  0.00  0.00    +0.000 C 
ENDBRANCH  18  20
ENDBRANCH  17  18
ENDBRANCH  11  17
ENDBRANCH   1  14
BRANCH   3  21
ATOM     21  O   UNL     1       3.580   5.431  17.498  0.00  0.00    +0.000 OA
BRANCH  21  22
ATOM     22  C   UNL     1       4.932   5.748  17.145  0.00  0.00    +0.000 C 
ATOM     23  C   UNL     1       5.181   6.440  15.765  0.00  0.00    +0.000 C 
ATOM     24  N   UNL     1       6.218   5.731  14.949  0.00  0.00    +0.000 NA
ATOM     25  C   UNL     1       7.443   5.536  15.759  0.00  0.00    +0.000 C 
ATOM     26  C   UNL     1       7.167   4.712  17.027  0.00  0.00    +0.000 C 
ATOM     27  C   UNL     1       5.671   4.397  17.112  0.00  0.00    +0.000 C 
ATOM     28  C   UNL     1       5.270   3.616  15.840  0.00  0.00    +0.000 C 
ATOM     29  C   UNL     1       5.692   4.398  14.588  0.00  0.00    +0.000 C 
ENDBRANCH  21  22
ENDBRANCH   3  21
TORSDOF 6
ENDMDL
MODEL 7
REMARK VINA RESULT:      -7.8      3.013      8.532
REMARK  Name = 
REMARK  7 active torsions:
REMARK  status: ('A' for Active; 'I' for Inactive)
REMARK    1  A    between atoms: C_1  and  C_2
REMARK    2  A    between atoms: C_2  and  C_3
REMARK    3  A    between atoms: C_3  and  O_4
REMARK    4  A    between atoms: O_4  and  C_5
REMARK    5  A    between atoms: C_8  and  C_9
REMARK    6  A    between atoms: C_11  and  O_12
REMARK    7  A    between atoms: O_12  and  C_13
REMARK                            x       y       z     vdW  Elec       q    Type
REMARK                         _______ _______ _______ _____ _____    ______ ____
ROOT
ATOM      1  C   UNL     1       1.677   8.539  19.555  0.00  0.00    +0.000 A 
ATOM      2  C   UNL     1       1.332   9.688  18.850  0.00  0.00    +0.000 A 
ATOM      3  C   UNL     1       0.887  10.803  19.514  0.00  0.00    +0.000 A 
ATOM      4  C   UNL     1       0.328  10.609  20.766  0.00  0.00    +0.000 A 
ATOM      5  C   UNL     1      -0.577  11.555  21.298  0.00  0.00    +0.000 A 
ATOM      6  C   UNL     1      -1.218  11.318  22.507  0.00  0.00    +0.000 A 
ATOM      7  C   UNL     1      -0.883  10.180  23.226  0.00  0.00    +0.000 A 
ATOM      8  C   UNL     1       0.032   9.248  22.705  0.00  0.00    +0.000 A 
ATOM      9  C   UNL     1       0.612   9.408  21.440  0.00  0.00    +0.000 A 
ATOM     10  N   UNL     1       1.366   8.420  20.875  0.00  0.00    +0.000 NA
ENDROOT
BRANCH   1  14
ATOM     11  C   UNL     1       4.083   5.541  17.484  0.00  0.00    +0.000 A 
ATOM     12  C   UNL     1       4.063   6.869  17.095  0.00  0.00    +0.000 A 
ATOM     13  C   UNL     1       3.262   7.789  17.762  0.00  0.00    +0.000 A 
ATOM     14  C   UNL     1       2.460   7.467  18.868  0.00  0.00    +0.000 A 
ATOM     15  C   UNL     1       2.513   6.121  19.279  0.00  0.00    +0.000 A 
ATOM     16  C   UNL     1       3.316   5.174  18.594  0.00  0.00    +0.000 A 
BRANCH  11  17
ATOM     17  O   UNL     1       4.809   4.565  16.837  0.00  0.00    +0.000 OA
BRANCH  17  18
ATOM     18  C   UNL     1       6.186   4.907  16.615  0.00  0.00    +0.000 C 
BRANCH  18  20
ATOM     19  C   UNL     1       7.567   6.097  18.316  0.00  0.00    +0.000 C 
ATOM     20  C   UNL     1       7.046   4.740  17.860  0.00  0.00    +0.000 C 
ENDBRANCH  18  20
ENDBRANCH  17  18
ENDBRANCH  11  17
ENDBRANCH   1  14
BRANCH   3  21
ATOM     21  O   UNL     1       0.974  12.073  19.034  0.00  0.00    +0.000 OA
BRANCH  21  22
ATOM     22  C   UNL     1       2.194  12.814  19.160  0.00  0.00    +0.000 C 
ATOM     23  C   UNL     1       2.556  13.385  20.570  0.00  0.00    +0.000 C 
ATOM     24  N   UNL     1       2.872  14.849  20.530  0.00  0.00    +0.000 NA
ATOM     25  C   UNL     1       3.894  15.110  19.489  0.00  0.00    +0.000 C 
ATOM     26  C   UNL     1       3.418  14.671  18.095  0.00  0.00    +0.000 C 
ATOM     27  C   UNL     1       2.038  14.017  18.212  0.00  0.00    +0.000 C 
ATOM     28  C   UNL     1       1.069  15.047  18.835  0.00  0.00    +0.000 C 
ATOM     29  C   UNL     1       1.643  15.578  20.156  0.00  0.00    +0.000 C 
ENDBRANCH  21  22
ENDBRANCH   3  21
TORSDOF 6
ENDMDL
MODEL 8
REMARK VINA RESULT:      -7.8      1.072      1.284
REMARK  Name = 
REMARK  7 active torsions:
REMARK  status: ('A' for Active; 'I' for Inactive)
REMARK    1  A    between atoms: C_1  and  C_2
REMARK    2  A    between atoms: C_2  and  C_3
REMARK    3  A    between atoms: C_3  and  O_4
REMARK    4  A    between atoms: O_4  and  C_5
REMARK    5  A    between atoms: C_8  and  C_9
REMARK    6  A    between atoms: C_11  and  O_12
REMARK    7  A    between atoms: O_12  and  C_13
REMARK                            x       y       z     vdW  Elec       q    Type
REMARK                         _______ _______ _______ _____ _____    ______ ____
ROOT
ATOM      1  C   UNL     1       1.821   7.165  20.194  0.00  0.00    +0.000 A 
ATOM      2  C   UNL     1       2.839   7.020  19.257  0.00  0.00    +0.000 A 
ATOM      3  C   UNL     1       3.217   5.771  18.832  0.00  0.00    +0.000 A 
ATOM      4  C   UNL     1       2.948   4.709  19.678  0.00  0.00    +0.000 A 
ATOM      5  C   UNL     1       3.701   3.517  19.591  0.00  0.00    +0.000 A 
ATOM      6  C   UNL     1       3.504   2.487  20.502  0.00  0.00    +0.000 A 
ATOM      7  C   UNL     1       2.491   2.614  21.440  0.00  0.00    +0.000 A 
ATOM      8  C   UNL     1       1.727   3.793  21.515  0.00  0.00    +0.000 A 
ATOM      9  C   UNL     1       1.976   4.889  20.680  0.00  0.00    +0.000 A 
ATOM     10  N   UNL     1       1.345   6.084  20.870  0.00  0.00    +0.000 NA
ENDROOT
BRANCH   1  14
ATOM     11  C   UNL     1       0.045  11.078  20.971  0.00  0.00    +0.000 A 
ATOM     12  C   UNL     1       0.093  10.084  21.934  0.00  0.00    +0.000 A 
ATOM     13  C   UNL     1       0.641   8.842  21.640  0.00  0.00    +0.000 A 
ATOM     14  C   UNL     1       1.202   8.511  20.396  0.00  0.00    +0.000 A 
ATOM     15  C   UNL     1       1.180   9.539  19.434  0.00  0.00    +0.000 A 
ATOM     16  C   UNL     1       0.609  10.804  19.721  0.00  0.00    +0.000 A 
BRANCH  11  17
ATOM     17  O   UNL     1      -0.532  12.312  21.174  0.00  0.00    +0.000 OA
BRANCH  17  18
ATOM     18  C   UNL     1      -1.227  12.831  20.029  0.00  0.00    +0.000 C 
BRANCH  18  20
ATOM     19  C   UNL     1      -2.919  11.669  18.614  0.00  0.00    +0.000 C 
ATOM     20  C   UNL     1      -2.672  12.360  19.950  0.00  0.00    +0.000 C 
ENDBRANCH  18  20
ENDBRANCH  17  18
ENDBRANCH  11  17
ENDBRANCH   1  14
BRANCH   3  21
ATOM     21  O   UNL     1       3.819   5.511  17.640  0.00  0.00    +0.000 OA
BRANCH  21  22
ATOM     22  C   UNL     1       4.935   6.298  17.205  0.00  0.00    +0.000 C 
ATOM     23  C   UNL     1       5.474   6.059  15.757  0.00  0.00    +0.000 C 
ATOM     24  N   UNL     1       6.951   5.812  15.730  0.00  0.00    +0.000 NA
ATOM     25  C   UNL     1       7.651   6.890  16.468  0.00  0.00    +0.000 C 
ATOM     26  C   UNL     1       7.193   6.974  17.932  0.00  0.00    +0.000 C 
ATOM     27  C   UNL     1       6.079   5.951  18.175  0.00  0.00    +0.000 C 
ATOM     28  C   UNL     1       6.634   4.547  17.843  0.00  0.00    +0.000 C 
ATOM     29  C   UNL     1       7.219   4.536  16.424  0.00  0.00    +0.000 C 
ENDBRANCH  21  22
ENDBRANCH   3  21
TORSDOF 6
ENDMDL
MODEL 9
REMARK VINA RESULT:      -7.7      3.028      8.633
REMARK  Name = 
REMARK  7 active torsions:
REMARK  status: ('A' for Active; 'I' for Inactive)
REMARK    1  A    between atoms: C_1  and  C_2
REMARK    2  A    between atoms: C_2  and  C_3
REMARK    3  A    between atoms: C_3  and  O_4
REMARK    4  A    between atoms: O_4  and  C_5
REMARK    5  A    between atoms: C_8  and  C_9
REMARK    6  A    between atoms: C_11  and  O_12
REMARK    7  A    between atoms: O_12  and  C_13
REMARK                            x       y       z     vdW  Elec       q    Type
REMARK                         _______ _______ _______ _____ _____    ______ ____
ROOT
ATOM      1  C   UNL     1       1.753   8.467  19.447  0.00  0.00    +0.000 A 
ATOM      2  C   UNL     1       1.371   9.616  18.763  0.00  0.00    +0.000 A 
ATOM      3  C   UNL     1       0.927  10.717  19.451  0.00  0.00    +0.000 A 
ATOM      4  C   UNL     1       0.404  10.502  20.715  0.00  0.00    +0.000 A 
ATOM      5  C   UNL     1      -0.501  11.428  21.280  0.00  0.00    +0.000 A 
ATOM      6  C   UNL     1      -1.106  11.168  22.503  0.00  0.00    +0.000 A 
ATOM      7  C   UNL     1      -0.734  10.029  23.201  0.00  0.00    +0.000 A 
ATOM      8  C   UNL     1       0.182   9.117  22.646  0.00  0.00    +0.000 A 
ATOM      9  C   UNL     1       0.725   9.299  21.369  0.00  0.00    +0.000 A 
ATOM     10  N   UNL     1       1.480   8.330  20.773  0.00  0.00    +0.000 NA
ENDROOT
BRANCH   1  14
ATOM     11  C   UNL     1       3.894   5.271  17.379  0.00  0.00    +0.000 A 
ATOM     12  C   UNL     1       2.935   5.014  18.344  0.00  0.00    +0.000 A 
ATOM     13  C   UNL     1       2.295   6.058  19.001  0.00  0.00    +0.000 A 
ATOM     14  C   UNL     1       2.534   7.414  18.728  0.00  0.00    +0.000 A 
ATOM     15  C   UNL     1       3.485   7.667  17.720  0.00  0.00    +0.000 A 
ATOM     16  C   UNL     1       4.154   6.607  17.057  0.00  0.00    +0.000 A 
BRANCH  11  17
ATOM     17  O   UNL     1       4.607   4.289  16.728  0.00  0.00    +0.000 OA
BRANCH  17  18
ATOM     18  C   UNL     1       6.031   4.465  16.780  0.00  0.00    +0.000 C 
BRANCH  18  20
ATOM     19  C   UNL     1       5.626   4.283  14.326  0.00  0.00    +0.000 C 
ATOM     20  C   UNL     1       6.693   4.350  15.413  0.00  0.00    +0.000 C 
ENDBRANCH  18  20
ENDBRANCH  17  18
ENDBRANCH  11  17
ENDBRANCH   1  14
BRANCH   3  21
ATOM     21  O   UNL     1       0.980  11.993  18.981  0.00  0.00    +0.000 OA
BRANCH  21  22
ATOM     22  C   UNL     1       2.181  12.763  19.112  0.00  0.00    +0.000 C 
ATOM     23  C   UNL     1       2.532  13.330  20.527  0.00  0.00    +0.000 C 
ATOM     24  N   UNL     1       2.811  14.802  20.500  0.00  0.00    +0.000 NA
ATOM     25  C   UNL     1       3.823  15.099  19.460  0.00  0.00    +0.000 C 
ATOM     26  C   UNL     1       3.355  14.662  18.062  0.00  0.00    +0.000 C 
ATOM     27  C   UNL     1       1.993  13.972  18.176  0.00  0.00    +0.000 C 
ATOM     28  C   UNL     1       0.999  14.971  18.811  0.00  0.00    +0.000 C 
ATOM     29  C   UNL     1       1.563  15.503  20.136  0.00  0.00    +0.000 C 
ENDBRANCH  21  22
ENDBRANCH   3  21
TORSDOF 6
ENDMDL
