MODEL 1
REMARK VINA RESULT:      -8.1      0.000      0.000
REMARK  Name = 
REMARK  14 active torsions:
REMARK  status: ('A' for Active; 'I' for Inactive)
REMARK    1  A    between atoms: C_1  and  C_2
REMARK    2  A    between atoms: C_2  and  C_3
REMARK    3  A    between atoms: C_3  and  C_4
REMARK    4  A    between atoms: C_4  and  O_5
REMARK    5  A    between atoms: O_5  and  C_6
REMARK    6  A    between atoms: C_9  and  S_10
REMARK    7  A    between atoms: S_10  and  N_13
REMARK    8  A    between atoms: N_13  and  C_14
REMARK    9  A    between atoms: N_13  and  C_24
REMARK   10  A    between atoms: C_14  and  C_15
REMARK   11  A    between atoms: C_15  and  C_16
REMARK   12  A    between atoms: C_16  and  C_17
REMARK   13  A    between atoms: C_17  and  C_18
REMARK   14  A    between atoms: C_24  and  C_25
REMARK                            x       y       z     vdW  Elec       q    Type
REMARK                         _______ _______ _______ _____ _____    ______ ____
ROOT
ATOM      1  N   UNL     1       5.650   6.061  17.250  0.00  0.00    +0.000 NA
ENDROOT
BRANCH   1   2
ATOM      2  S   UNL     1       4.398   5.333  18.186  0.00  0.00    +0.000 S 
ATOM      3  O   UNL     1       4.915   5.016  19.499  0.00  0.00    +0.000 OA
ATOM      4  O   UNL     1       3.768   4.307  17.374  0.00  0.00    +0.000 OA
BRANCH   2   8
ATOM      5  C   UNL     1       1.644   8.831  19.213  0.00  0.00    +0.000 A 
ATOM      6  C   UNL     1       1.808   7.751  20.081  0.00  0.00    +0.000 A 
ATOM      7  C   UNL     1       2.536   6.629  19.690  0.00  0.00    +0.000 A 
ATOM      8  C   UNL     1       3.127   6.568  18.424  0.00  0.00    +0.000 A 
ATOM      9  C   UNL     1       2.946   7.624  17.530  0.00  0.00    +0.000 A 
ATOM     10  C   UNL     1       2.188   8.748  17.923  0.00  0.00    +0.000 A 
BRANCH   5  11
ATOM     11  O   UNL     1       1.008  10.007  19.546  0.00  0.00    +0.000 OA
BRANCH  11  12
ATOM     12  C   UNL     1      -0.418   9.962  19.406  0.00  0.00    +0.000 C 
BRANCH  12  13
ATOM     13  C   UNL     1      -0.920  10.845  18.265  0.00  0.00    +0.000 C 
BRANCH  13  15
ATOM     14  C   UNL     1      -3.119   9.730  17.655  0.00  0.00    +0.000 C 
ATOM     15  C   UNL     1      -1.676   9.975  17.254  0.00  0.00    +0.000 C 
ENDBRANCH  13  15
ENDBRANCH  12  13
ENDBRANCH  11  12
ENDBRANCH   5  11
ENDBRANCH   2   8
ENDBRANCH   1   2
BRANCH   1  16
ATOM     16  C   UNL     1       6.204   7.318  17.861  0.00  0.00    +0.000 C 
BRANCH  16  17
ATOM     17  C   UNL     1       7.648   7.634  17.448  0.00  0.00    +0.000 C 
BRANCH  17  18
ATOM     18  C   UNL     1       8.399   8.549  18.411  0.00  0.00    +0.000 C 
BRANCH  18  19
ATOM     19  C   UNL     1       8.482   9.986  17.897  0.00  0.00    +0.000 C 
BRANCH  19  20
ATOM     20  C   UNL     1       9.555  10.748  18.622  0.00  0.00    +0.000 A 
ATOM     21  C   UNL     1       9.491  10.899  20.014  0.00  0.00    +0.000 A 
ATOM     22  C   UNL     1      10.444  11.662  20.681  0.00  0.00    +0.000 A 
ATOM     23  C   UNL     1      11.468  12.283  19.968  0.00  0.00    +0.000 A 
ATOM     24  C   UNL     1      11.541  12.133  18.581  0.00  0.00    +0.000 A 
ATOM     25  C   UNL     1      10.588  11.370  17.910  0.00  0.00    +0.000 A 
ENDBRANCH  19  20
ENDBRANCH  18  19
ENDBRANCH  17  18
ENDBRANCH  16  17
ENDBRANCH   1  16
BRANCH   1  26
ATOM     26  C   UNL     1       6.723   5.064  16.883  0.00  0.00    +0.000 C 
BRANCH  26  27
ATOM     27  C   UNL     1       6.686   4.699  15.428  0.00  0.00    +0.000 A 
ATOM     28  C   UNL     1       6.005   3.666  14.816  0.00  0.00    +0.000 A 
ATOM     29  N   UNL     1       6.428   3.664  13.520  0.00  0.00    +0.000 N 
ATOM     30  C   UNL     1       7.276   4.721  13.367  0.00  0.00    +0.000 A 
ATOM     31  N   UNL     1       7.446   5.374  14.495  0.00  0.00    +0.000 NA
ATOM     32  H   UNL     1       6.180   2.987  12.811  0.00  0.00    +0.000 HD
ENDBRANCH  26  27
ENDBRANCH   1  26
TORSDOF 13
ENDMDL
MODEL 2
REMARK VINA RESULT:      -7.7      2.803      5.052
REMARK  Name = 
REMARK  14 active torsions:
REMARK  status: ('A' for Active; 'I' for Inactive)
REMARK    1  A    between atoms: C_1  and  C_2
REMARK    2  A    between atoms: C_2  and  C_3
REMARK    3  A    between atoms: C_3  and  C_4
REMARK    4  A    between atoms: C_4  and  O_5
REMARK    5  A    between atoms: O_5  and  C_6
REMARK    6  A    between atoms: C_9  and  S_10
REMARK    7  A    between atoms: S_10  and  N_13
REMARK    8  A    between atoms: N_13  and  C_14
REMARK    9  A    between atoms: N_13  and  C_24
REMARK   10  A    between atoms: C_14  and  C_15
REMARK   11  A    between atoms: C_15  and  C_16
REMARK   12  A    between atoms: C_16  and  C_17
REMARK   13  A    between atoms: C_17  and  C_18
REMARK   14  A    between atoms: C_24  and  C_25
REMARK                            x       y       z     vdW  Elec       q    Type
REMARK                         _______ _______ _______ _____ _____    ______ ____
ROOT
ATOM      1  N   UNL     1       6.016   6.971  17.309  0.00  0.00    +0.000 NA
ENDROOT
BRANCH   1   2
ATOM      2  S   UNL     1       6.770   5.465  16.941  0.00  0.00    +0.000 S 
ATOM      3  O   UNL     1       7.920   5.291  17.802  0.00  0.00    +0.000 OA
ATOM      4  O   UNL     1       6.910   5.374  15.498  0.00  0.00    +0.000 OA
BRANCH   2   8
ATOM      5  C   UNL     1       3.400   2.702  18.310  0.00  0.00    +0.000 A 
ATOM      6  C   UNL     1       4.388   3.142  19.192  0.00  0.00    +0.000 A 
ATOM      7  C   UNL     1       5.485   3.864  18.727  0.00  0.00    +0.000 A 
ATOM      8  C   UNL     1       5.612   4.172  17.369  0.00  0.00    +0.000 A 
ATOM      9  C   UNL     1       4.652   3.712  16.467  0.00  0.00    +0.000 A 
ATOM     10  C   UNL     1       3.555   2.960  16.940  0.00  0.00    +0.000 A 
BRANCH   5  11
ATOM     11  O   UNL     1       2.247   2.051  18.694  0.00  0.00    +0.000 OA
BRANCH  11  12
ATOM     12  C   UNL     1       1.069   2.866  18.643  0.00  0.00    +0.000 C 
BRANCH  12  13
ATOM     13  C   UNL     1       0.913   3.744  19.882  0.00  0.00    +0.000 C 
BRANCH  13  15
ATOM     14  C   UNL     1       2.265   3.238  21.972  0.00  0.00    +0.000 C 
ATOM     15  C   UNL     1       1.053   2.872  21.135  0.00  0.00    +0.000 C 
ENDBRANCH  13  15
ENDBRANCH  12  13
ENDBRANCH  11  12
ENDBRANCH   5  11
ENDBRANCH   2   8
ENDBRANCH   1   2
BRANCH   1  16
ATOM     16  C   UNL     1       6.878   8.166  17.004  0.00  0.00    +0.000 C 
BRANCH  16  17
ATOM     17  C   UNL     1       7.958   8.448  18.057  0.00  0.00    +0.000 C 
BRANCH  17  18
ATOM     18  C   UNL     1       8.386   9.909  18.154  0.00  0.00    +0.000 C 
BRANCH  18  19
ATOM     19  C   UNL     1       9.253  10.177  19.384  0.00  0.00    +0.000 C 
BRANCH  19  20
ATOM     20  C   UNL     1      10.359  11.139  19.055  0.00  0.00    +0.000 A 
ATOM     21  C   UNL     1      11.209  11.605  20.067  0.00  0.00    +0.000 A 
ATOM     22  C   UNL     1      12.191  12.549  19.778  0.00  0.00    +0.000 A 
ATOM     23  C   UNL     1      12.333  13.037  18.480  0.00  0.00    +0.000 A 
ATOM     24  C   UNL     1      11.492  12.573  17.466  0.00  0.00    +0.000 A 
ATOM     25  C   UNL     1      10.509  11.628  17.751  0.00  0.00    +0.000 A 
ENDBRANCH  19  20
ENDBRANCH  18  19
ENDBRANCH  17  18
ENDBRANCH  16  17
ENDBRANCH   1  16
BRANCH   1  26
ATOM     26  C   UNL     1       4.638   7.070  16.699  0.00  0.00    +0.000 C 
BRANCH  26  27
ATOM     27  C   UNL     1       3.591   7.419  17.714  0.00  0.00    +0.000 A 
ATOM     28  C   UNL     1       3.201   6.707  18.831  0.00  0.00    +0.000 A 
ATOM     29  N   UNL     1       2.112   7.363  19.322  0.00  0.00    +0.000 N 
ATOM     30  C   UNL     1       1.924   8.474  18.555  0.00  0.00    +0.000 A 
ATOM     31  N   UNL     1       2.804   8.545  17.582  0.00  0.00    +0.000 NA
ATOM     32  H   UNL     1       1.534   7.065  20.098  0.00  0.00    +0.000 HD
ENDBRANCH  26  27
ENDBRANCH   1  26
TORSDOF 13
ENDMDL
MODEL 3
REMARK VINA RESULT:      -7.6      2.914      4.100
REMARK  Name = 
REMARK  14 active torsions:
REMARK  status: ('A' for Active; 'I' for Inactive)
REMARK    1  A    between atoms: C_1  and  C_2
REMARK    2  A    between atoms: C_2  and  C_3
REMARK    3  A    between atoms: C_3  and  C_4
REMARK    4  A    between atoms: C_4  and  O_5
REMARK    5  A    between atoms: O_5  and  C_6
REMARK    6  A    between atoms: C_9  and  S_10
REMARK    7  A    between atoms: S_10  and  N_13
REMARK    8  A    between atoms: N_13  and  C_14
REMARK    9  A    between atoms: N_13  and  C_24
REMARK   10  A    between atoms: C_14  and  C_15
REMARK   11  A    between atoms: C_15  and  C_16
REMARK   12  A    between atoms: C_16  and  C_17
REMARK   13  A    between atoms: C_17  and  C_18
REMARK   14  A    between atoms: C_24  and  C_25
REMARK                            x       y       z     vdW  Elec       q    Type
REMARK                         _______ _______ _______ _____ _____    ______ ____
ROOT
ATOM      1  N   UNL     1       6.821   6.281  16.822  0.00  0.00    +0.000 NA
ENDROOT
BRANCH   1   2
ATOM      2  S   UNL     1       5.209   6.813  16.522  0.00  0.00    +0.000 S 
ATOM      3  O   UNL     1       4.967   6.806  15.096  0.00  0.00    +0.000 OA
ATOM      4  O   UNL     1       4.981   8.018  17.302  0.00  0.00    +0.000 OA
BRANCH   2   8
ATOM      5  C   UNL     1       1.942   3.880  17.786  0.00  0.00    +0.000 A 
ATOM      6  C   UNL     1       1.885   5.232  18.132  0.00  0.00    +0.000 A 
ATOM      7  C   UNL     1       2.957   6.079  17.863  0.00  0.00    +0.000 A 
ATOM      8  C   UNL     1       4.107   5.596  17.232  0.00  0.00    +0.000 A 
ATOM      9  C   UNL     1       4.196   4.242  16.909  0.00  0.00    +0.000 A 
ATOM     10  C   UNL     1       3.117   3.382  17.205  0.00  0.00    +0.000 A 
BRANCH   5  11
ATOM     11  O   UNL     1       0.900   2.992  17.945  0.00  0.00    +0.000 OA
BRANCH  11  12
ATOM     12  C   UNL     1       1.012   2.158  19.106  0.00  0.00    +0.000 C 
BRANCH  12  13
ATOM     13  C   UNL     1       0.619   2.888  20.388  0.00  0.00    +0.000 C 
BRANCH  13  15
ATOM     14  C   UNL     1       2.489   4.181  21.521  0.00  0.00    +0.000 C 
ATOM     15  C   UNL     1       1.794   2.840  21.372  0.00  0.00    +0.000 C 
ENDBRANCH  13  15
ENDBRANCH  12  13
ENDBRANCH  11  12
ENDBRANCH   5  11
ENDBRANCH   2   8
ENDBRANCH   1   2
BRANCH   1  16
ATOM     16  C   UNL     1       7.270   6.495  18.241  0.00  0.00    +0.000 C 
BRANCH  16  17
ATOM     17  C   UNL     1       8.495   7.408  18.382  0.00  0.00    +0.000 C 
BRANCH  17  18
ATOM     18  C   UNL     1       8.234   8.877  18.060  0.00  0.00    +0.000 C 
BRANCH  18  19
ATOM     19  C   UNL     1       8.882   9.816  19.077  0.00  0.00    +0.000 C 
BRANCH  19  20
ATOM     20  C   UNL     1       9.480  11.011  18.391  0.00  0.00    +0.000 A 
ATOM     21  C   UNL     1      10.867  11.090  18.200  0.00  0.00    +0.000 A 
ATOM     22  C   UNL     1      11.432  12.225  17.626  0.00  0.00    +0.000 A 
ATOM     23  C   UNL     1      10.622  13.292  17.240  0.00  0.00    +0.000 A 
ATOM     24  C   UNL     1       9.239  13.217  17.423  0.00  0.00    +0.000 A 
ATOM     25  C   UNL     1       8.670  12.082  17.996  0.00  0.00    +0.000 A 
ENDBRANCH  19  20
ENDBRANCH  18  19
ENDBRANCH  17  18
ENDBRANCH  16  17
ENDBRANCH   1  16
BRANCH   1  26
ATOM     26  C   UNL     1       7.040   4.866  16.343  0.00  0.00    +0.000 C 
BRANCH  26  27
ATOM     27  C   UNL     1       7.068   4.770  14.847  0.00  0.00    +0.000 A 
ATOM     28  C   UNL     1       6.351   3.925  14.023  0.00  0.00    +0.000 A 
ATOM     29  N   UNL     1       6.855   4.117  12.772  0.00  0.00    +0.000 N 
ATOM     30  C   UNL     1       7.788   5.108  12.855  0.00  0.00    +0.000 A 
ATOM     31  N   UNL     1       7.935   5.532  14.090  0.00  0.00    +0.000 NA
ATOM     32  H   UNL     1       6.602   3.601  11.939  0.00  0.00    +0.000 HD
ENDBRANCH  26  27
ENDBRANCH   1  26
TORSDOF 13
ENDMDL
MODEL 4
REMARK VINA RESULT:      -7.6      3.438      4.145
REMARK  Name = 
REMARK  14 active torsions:
REMARK  status: ('A' for Active; 'I' for Inactive)
REMARK    1  A    between atoms: C_1  and  C_2
REMARK    2  A    between atoms: C_2  and  C_3
REMARK    3  A    between atoms: C_3  and  C_4
REMARK    4  A    between atoms: C_4  and  O_5
REMARK    5  A    between atoms: O_5  and  C_6
REMARK    6  A    between atoms: C_9  and  S_10
REMARK    7  A    between atoms: S_10  and  N_13
REMARK    8  A    between atoms: N_13  and  C_14
REMARK    9  A    between atoms: N_13  and  C_24
REMARK   10  A    between atoms: C_14  and  C_15
REMARK   11  A    between atoms: C_15  and  C_16
REMARK   12  A    between atoms: C_16  and  C_17
REMARK   13  A    between atoms: C_17  and  C_18
REMARK   14  A    between atoms: C_24  and  C_25
REMARK                            x       y       z     vdW  Elec       q    Type
REMARK                         _______ _______ _______ _____ _____    ______ ____
ROOT
ATOM      1  N   UNL     1       6.417   6.126  17.000  0.00  0.00    +0.000 NA
ENDROOT
BRANCH   1   2
ATOM      2  S   UNL     1       6.130   5.067  18.330  0.00  0.00    +0.000 S 
ATOM      3  O   UNL     1       5.799   5.856  19.496  0.00  0.00    +0.000 OA
ATOM      4  O   UNL     1       7.214   4.101  18.377  0.00  0.00    +0.000 OA
BRANCH   2   8
ATOM      5  C   UNL     1       2.244   2.684  18.035  0.00  0.00    +0.000 A 
ATOM      6  C   UNL     1       3.425   2.101  18.496  0.00  0.00    +0.000 A 
ATOM      7  C   UNL     1       4.630   2.800  18.442  0.00  0.00    +0.000 A 
ATOM      8  C   UNL     1       4.676   4.103  17.937  0.00  0.00    +0.000 A 
ATOM      9  C   UNL     1       3.512   4.690  17.442  0.00  0.00    +0.000 A 
ATOM     10  C   UNL     1       2.299   3.970  17.476  0.00  0.00    +0.000 A 
BRANCH   5  11
ATOM     11  O   UNL     1       1.001   2.096  18.122  0.00  0.00    +0.000 OA
BRANCH  11  12
ATOM     12  C   UNL     1       0.177   2.616  19.174  0.00  0.00    +0.000 C 
BRANCH  12  13
ATOM     13  C   UNL     1       0.940   3.564  20.097  0.00  0.00    +0.000 C 
BRANCH  13  15
ATOM     14  C   UNL     1       2.638   2.642  21.746  0.00  0.00    +0.000 C 
ATOM     15  C   UNL     1       1.169   2.873  21.446  0.00  0.00    +0.000 C 
ENDBRANCH  13  15
ENDBRANCH  12  13
ENDBRANCH  11  12
ENDBRANCH   5  11
ENDBRANCH   2   8
ENDBRANCH   1   2
BRANCH   1  16
ATOM     16  C   UNL     1       6.591   7.565  17.403  0.00  0.00    +0.000 C 
BRANCH  16  17
ATOM     17  C   UNL     1       7.996   7.909  17.914  0.00  0.00    +0.000 C 
BRANCH  17  18
ATOM     18  C   UNL     1       8.298   9.403  17.985  0.00  0.00    +0.000 C 
BRANCH  18  19
ATOM     19  C   UNL     1       9.165   9.760  19.193  0.00  0.00    +0.000 C 
BRANCH  19  20
ATOM     20  C   UNL     1       9.769  11.126  19.027  0.00  0.00    +0.000 A 
ATOM     21  C   UNL     1      10.550  11.678  20.052  0.00  0.00    +0.000 A 
ATOM     22  C   UNL     1      11.055  12.969  19.930  0.00  0.00    +0.000 A 
ATOM     23  C   UNL     1      10.785  13.723  18.789  0.00  0.00    +0.000 A 
ATOM     24  C   UNL     1      10.011  13.177  17.762  0.00  0.00    +0.000 A 
ATOM     25  C   UNL     1       9.505  11.884  17.879  0.00  0.00    +0.000 A 
ENDBRANCH  19  20
ENDBRANCH  18  19
ENDBRANCH  17  18
ENDBRANCH  16  17
ENDBRANCH   1  16
BRANCH   1  26
ATOM     26  C   UNL     1       7.536   5.624  16.118  0.00  0.00    +0.000 C 
BRANCH  26  27
ATOM     27  C   UNL     1       7.025   4.917  14.898  0.00  0.00    +0.000 A 
ATOM     28  C   UNL     1       6.173   3.833  14.823  0.00  0.00    +0.000 A 
ATOM     29  N   UNL     1       6.153   3.473  13.508  0.00  0.00    +0.000 N 
ATOM     30  C   UNL     1       6.912   4.377  12.826  0.00  0.00    +0.000 A 
ATOM     31  N   UNL     1       7.444   5.268  13.631  0.00  0.00    +0.000 NA
ATOM     32  H   UNL     1       5.682   2.668  13.117  0.00  0.00    +0.000 HD
ENDBRANCH  26  27
ENDBRANCH   1  26
TORSDOF 13
ENDMDL
MODEL 5
REMARK VINA RESULT:      -7.4      1.049      1.598
REMARK  Name = 
REMARK  14 active torsions:
REMARK  status: ('A' for Active; 'I' for Inactive)
REMARK    1  A    between atoms: C_1  and  C_2
REMARK    2  A    between atoms: C_2  and  C_3
REMARK    3  A    between atoms: C_3  and  C_4
REMARK    4  A    between atoms: C_4  and  O_5
REMARK    5  A    between atoms: O_5  and  C_6
REMARK    6  A    between atoms: C_9  and  S_10
REMARK    7  A    between atoms: S_10  and  N_13
REMARK    8  A    between atoms: N_13  and  C_14
REMARK    9  A    between atoms: N_13  and  C_24
REMARK   10  A    between atoms: C_14  and  C_15
REMARK   11  A    between atoms: C_15  and  C_16
REMARK   12  A    between atoms: C_16  and  C_17
REMARK   13  A    between atoms: C_17  and  C_18
REMARK   14  A    between atoms: C_24  and  C_25
REMARK                            x       y       z     vdW  Elec       q    Type
REMARK                         _______ _______ _______ _____ _____    ______ ____
ROOT
ATOM      1  N   UNL     1       6.109   5.300  17.383  0.00  0.00    +0.000 NA
ENDROOT
BRANCH   1   2
ATOM      2  S   UNL     1       5.029   4.318  18.299  0.00  0.00    +0.000 S 
ATOM      3  O   UNL     1       5.679   3.923  19.529  0.00  0.00    +0.000 OA
ATOM      4  O   UNL     1       4.466   3.318  17.408  0.00  0.00    +0.000 OA
BRANCH   2   8
ATOM      5  C   UNL     1       1.964   7.294  19.919  0.00  0.00    +0.000 A 
ATOM      6  C   UNL     1       2.315   6.145  20.630  0.00  0.00    +0.000 A 
ATOM      7  C   UNL     1       3.139   5.179  20.058  0.00  0.00    +0.000 A 
ATOM      8  C   UNL     1       3.641   5.346  18.764  0.00  0.00    +0.000 A 
ATOM      9  C   UNL     1       3.275   6.471  18.025  0.00  0.00    +0.000 A 
ATOM     10  C   UNL     1       2.420   7.436  18.600  0.00  0.00    +0.000 A 
BRANCH   5  11
ATOM     11  O   UNL     1       1.219   8.332  20.435  0.00  0.00    +0.000 OA
BRANCH  11  12
ATOM     12  C   UNL     1       1.117   9.469  19.567  0.00  0.00    +0.000 C 
BRANCH  12  13
ATOM     13  C   UNL     1       0.430  10.655  20.239  0.00  0.00    +0.000 C 
BRANCH  13  15
ATOM     14  C   UNL     1      -1.105  10.509  18.221  0.00  0.00    +0.000 C 
ATOM     15  C   UNL     1      -1.005  10.768  19.713  0.00  0.00    +0.000 C 
ENDBRANCH  13  15
ENDBRANCH  12  13
ENDBRANCH  11  12
ENDBRANCH   5  11
ENDBRANCH   2   8
ENDBRANCH   1   2
BRANCH   1  16
ATOM     16  C   UNL     1       6.699   6.440  18.168  0.00  0.00    +0.000 C 
BRANCH  16  17
ATOM     17  C   UNL     1       6.782   7.761  17.393  0.00  0.00    +0.000 C 
BRANCH  17  18
ATOM     18  C   UNL     1       8.132   8.467  17.481  0.00  0.00    +0.000 C 
BRANCH  18  19
ATOM     19  C   UNL     1       8.549   8.738  18.926  0.00  0.00    +0.000 C 
BRANCH  19  20
ATOM     20  C   UNL     1       9.135  10.115  19.060  0.00  0.00    +0.000 A 
ATOM     21  C   UNL     1       9.373  10.892  17.917  0.00  0.00    +0.000 A 
ATOM     22  C   UNL     1       9.978  12.140  18.031  0.00  0.00    +0.000 A 
ATOM     23  C   UNL     1      10.354  12.624  19.283  0.00  0.00    +0.000 A 
ATOM     24  C   UNL     1      10.116  11.858  20.426  0.00  0.00    +0.000 A 
ATOM     25  C   UNL     1       9.509  10.608  20.316  0.00  0.00    +0.000 A 
ENDBRANCH  19  20
ENDBRANCH  18  19
ENDBRANCH  17  18
ENDBRANCH  16  17
ENDBRANCH   1  16
BRANCH   1  26
ATOM     26  C   UNL     1       7.156   4.471  16.677  0.00  0.00    +0.000 C 
BRANCH  26  27
ATOM     27  C   UNL     1       7.043   4.565  15.184  0.00  0.00    +0.000 A 
ATOM     28  C   UNL     1       6.214   3.859  14.336  0.00  0.00    +0.000 A 
ATOM     29  N   UNL     1       6.612   4.190  13.074  0.00  0.00    +0.000 N 
ATOM     30  C   UNL     1       7.596   5.127  13.190  0.00  0.00    +0.000 A 
ATOM     31  N   UNL     1       7.875   5.385  14.448  0.00  0.00    +0.000 NA
ATOM     32  H   UNL     1       6.260   3.794  12.213  0.00  0.00    +0.000 HD
ENDBRANCH  26  27
ENDBRANCH   1  26
TORSDOF 13
ENDMDL
MODEL 6
REMARK VINA RESULT:      -7.4      3.298      4.198
REMARK  Name = 
REMARK  14 active torsions:
REMARK  status: ('A' for Active; 'I' for Inactive)
REMARK    1  A    between atoms: C_1  and  C_2
REMARK    2  A    between atoms: C_2  and  C_3
REMARK    3  A    between atoms: C_3  and  C_4
REMARK    4  A    between atoms: C_4  and  O_5
REMARK    5  A    between atoms: O_5  and  C_6
REMARK    6  A    between atoms: C_9  and  S_10
REMARK    7  A    between atoms: S_10  and  N_13
REMARK    8  A    between atoms: N_13  and  C_14
REMARK    9  A    between atoms: N_13  and  C_24
REMARK   10  A    between atoms: C_14  and  C_15
REMARK   11  A    between atoms: C_15  and  C_16
REMARK   12  A    between atoms: C_16  and  C_17
REMARK   13  A    between atoms: C_17  and  C_18
REMARK   14  A    between atoms: C_24  and  C_25
REMARK                            x       y       z     vdW  Elec       q    Type
REMARK                         _______ _______ _______ _____ _____    ______ ____
ROOT
ATOM      1  N   UNL     1       6.396   6.764  17.638  0.00  0.00    +0.000 NA
ENDROOT
BRANCH   1   2
ATOM      2  S   UNL     1       6.603   5.315  18.548  0.00  0.00    +0.000 S 
ATOM      3  O   UNL     1       6.996   5.658  19.897  0.00  0.00    +0.000 OA
ATOM      4  O   UNL     1       7.405   4.398  17.756  0.00  0.00    +0.000 OA
BRANCH   2   8
ATOM      5  C   UNL     1       2.400   3.562  18.177  0.00  0.00    +0.000 A 
ATOM      6  C   UNL     1       2.607   4.896  18.531  0.00  0.00    +0.000 A 
ATOM      7  C   UNL     1       3.892   5.374  18.780  0.00  0.00    +0.000 A 
ATOM      8  C   UNL     1       5.001   4.530  18.668  0.00  0.00    +0.000 A 
ATOM      9  C   UNL     1       4.811   3.185  18.348  0.00  0.00    +0.000 A 
ATOM     10  C   UNL     1       3.505   2.700  18.120  0.00  0.00    +0.000 A 
BRANCH   5  11
ATOM     11  O   UNL     1       1.175   3.028  17.839  0.00  0.00    +0.000 OA
BRANCH  11  12
ATOM     12  C   UNL     1       0.465   2.447  18.941  0.00  0.00    +0.000 C 
BRANCH  12  13
ATOM     13  C   UNL     1       0.550   3.301  20.204  0.00  0.00    +0.000 C 
BRANCH  13  15
ATOM     14  C   UNL     1       2.559   3.061  21.740  0.00  0.00    +0.000 C 
ATOM     15  C   UNL     1       1.220   2.486  21.316  0.00  0.00    +0.000 C 
ENDBRANCH  13  15
ENDBRANCH  12  13
ENDBRANCH  11  12
ENDBRANCH   5  11
ENDBRANCH   2   8
ENDBRANCH   1   2
BRANCH   1  16
ATOM     16  C   UNL     1       7.692   7.403  17.221  0.00  0.00    +0.000 C 
BRANCH  16  17
ATOM     17  C   UNL     1       8.371   8.227  18.323  0.00  0.00    +0.000 C 
BRANCH  17  18
ATOM     18  C   UNL     1       8.535   9.709  17.999  0.00  0.00    +0.000 C 
BRANCH  18  19
ATOM     19  C   UNL     1       9.268  10.465  19.107  0.00  0.00    +0.000 C 
BRANCH  19  20
ATOM     20  C   UNL     1       9.858  11.741  18.578  0.00  0.00    +0.000 A 
ATOM     21  C   UNL     1      10.883  11.699  17.622  0.00  0.00    +0.000 A 
ATOM     22  C   UNL     1      11.479  12.877  17.180  0.00  0.00    +0.000 A 
ATOM     23  C   UNL     1      11.062  14.106  17.688  0.00  0.00    +0.000 A 
ATOM     24  C   UNL     1      10.038  14.156  18.637  0.00  0.00    +0.000 A 
ATOM     25  C   UNL     1       9.439  12.979  19.081  0.00  0.00    +0.000 A 
ENDBRANCH  19  20
ENDBRANCH  18  19
ENDBRANCH  17  18
ENDBRANCH  16  17
ENDBRANCH   1  16
BRANCH   1  26
ATOM     26  C   UNL     1       5.441   6.568  16.484  0.00  0.00    +0.000 C 
BRANCH  26  27
ATOM     27  C   UNL     1       5.940   5.552  15.500  0.00  0.00    +0.000 A 
ATOM     28  C   UNL     1       5.319   4.400  15.061  0.00  0.00    +0.000 A 
ATOM     29  N   UNL     1       6.248   3.747  14.307  0.00  0.00    +0.000 N 
ATOM     30  C   UNL     1       7.355   4.541  14.245  0.00  0.00    +0.000 A 
ATOM     31  N   UNL     1       7.200   5.642  14.945  0.00  0.00    +0.000 NA
ATOM     32  H   UNL     1       6.144   2.830  13.891  0.00  0.00    +0.000 HD
ENDBRANCH  26  27
ENDBRANCH   1  26
TORSDOF 13
ENDMDL
MODEL 7
REMARK VINA RESULT:      -7.4      4.637      8.918
REMARK  Name = 
REMARK  14 active torsions:
REMARK  status: ('A' for Active; 'I' for Inactive)
REMARK    1  A    between atoms: C_1  and  C_2
REMARK    2  A    between atoms: C_2  and  C_3
REMARK    3  A    between atoms: C_3  and  C_4
REMARK    4  A    between atoms: C_4  and  O_5
REMARK    5  A    between atoms: O_5  and  C_6
REMARK    6  A    between atoms: C_9  and  S_10
REMARK    7  A    between atoms: S_10  and  N_13
REMARK    8  A    between atoms: N_13  and  C_14
REMARK    9  A    between atoms: N_13  and  C_24
REMARK   10  A    between atoms: C_14  and  C_15
REMARK   11  A    between atoms: C_15  and  C_16
REMARK   12  A    between atoms: C_16  and  C_17
REMARK   13  A    between atoms: C_17  and  C_18
REMARK   14  A    between atoms: C_24  and  C_25
REMARK                            x       y       z     vdW  Elec       q    Type
REMARK                         _______ _______ _______ _____ _____    ______ ____
ROOT
ATOM      1  N   UNL     1       2.943   6.091  18.488  0.00  0.00    +0.000 NA
ENDROOT
BRANCH   1   2
ATOM      2  S   UNL     1       4.638   6.126  18.180  0.00  0.00    +0.000 S 
ATOM      3  O   UNL     1       5.320   5.382  19.216  0.00  0.00    +0.000 OA
ATOM      4  O   UNL     1       5.014   7.498  17.888  0.00  0.00    +0.000 OA
BRANCH   2   8
ATOM      5  C   UNL     1       6.055   4.067  14.356  0.00  0.00    +0.000 A 
ATOM      6  C   UNL     1       5.773   5.433  14.388  0.00  0.00    +0.000 A 
ATOM      7  C   UNL     1       5.205   6.014  15.520  0.00  0.00    +0.000 A 
ATOM      8  C   UNL     1       4.918   5.243  16.650  0.00  0.00    +0.000 A 
ATOM      9  C   UNL     1       5.163   3.869  16.625  0.00  0.00    +0.000 A 
ATOM     10  C   UNL     1       5.716   3.281  15.467  0.00  0.00    +0.000 A 
BRANCH   5  11
ATOM     11  O   UNL     1       6.685   3.427  13.310  0.00  0.00    +0.000 OA
BRANCH  11  12
ATOM     12  C   UNL     1       6.116   3.707  12.023  0.00  0.00    +0.000 C 
BRANCH  12  13
ATOM     13  C   UNL     1       5.064   2.678  11.616  0.00  0.00    +0.000 C 
BRANCH  13  15
ATOM     14  C   UNL     1       3.449   3.780   9.994  0.00  0.00    +0.000 C 
ATOM     15  C   UNL     1       3.716   3.385  11.435  0.00  0.00    +0.000 C 
ENDBRANCH  13  15
ENDBRANCH  12  13
ENDBRANCH  11  12
ENDBRANCH   5  11
ENDBRANCH   2   8
ENDBRANCH   1   2
BRANCH   1  16
ATOM     16  C   UNL     1       2.185   7.200  17.810  0.00  0.00    +0.000 C 
BRANCH  16  17
ATOM     17  C   UNL     1       2.018   8.462  18.666  0.00  0.00    +0.000 C 
BRANCH  17  18
ATOM     18  C   UNL     1       1.115   9.530  18.056  0.00  0.00    +0.000 C 
BRANCH  18  19
ATOM     19  C   UNL     1       0.211  10.187  19.099  0.00  0.00    +0.000 C 
BRANCH  19  20
ATOM     20  C   UNL     1      -1.143  10.481  18.518  0.00  0.00    +0.000 A 
ATOM     21  C   UNL     1      -1.525   9.905  17.299  0.00  0.00    +0.000 A 
ATOM     22  C   UNL     1      -2.751  10.228  16.723  0.00  0.00    +0.000 A 
ATOM     23  C   UNL     1      -3.605  11.130  17.356  0.00  0.00    +0.000 A 
ATOM     24  C   UNL     1      -3.233  11.704  18.574  0.00  0.00    +0.000 A 
ATOM     25  C   UNL     1      -2.008  11.382  19.153  0.00  0.00    +0.000 A 
ENDBRANCH  19  20
ENDBRANCH  18  19
ENDBRANCH  17  18
ENDBRANCH  16  17
ENDBRANCH   1  16
BRANCH   1  26
ATOM     26  C   UNL     1       2.353   4.727  18.216  0.00  0.00    +0.000 C 
BRANCH  26  27
ATOM     27  C   UNL     1       1.958   4.018  19.478  0.00  0.00    +0.000 A 
ATOM     28  C   UNL     1       0.949   3.095  19.668  0.00  0.00    +0.000 A 
ATOM     29  N   UNL     1       0.896   2.882  21.013  0.00  0.00    +0.000 N 
ATOM     30  C   UNL     1       1.904   3.604  21.581  0.00  0.00    +0.000 A 
ATOM     31  N   UNL     1       2.571   4.293  20.683  0.00  0.00    +0.000 NA
ATOM     32  H   UNL     1       0.217   2.313  21.502  0.00  0.00    +0.000 HD
ENDBRANCH  26  27
ENDBRANCH   1  26
TORSDOF 13
ENDMDL
MODEL 8
REMARK VINA RESULT:      -7.4      3.260      4.111
REMARK  Name = 
REMARK  14 active torsions:
REMARK  status: ('A' for Active; 'I' for Inactive)
REMARK    1  A    between atoms: C_1  and  C_2
REMARK    2  A    between atoms: C_2  and  C_3
REMARK    3  A    between atoms: C_3  and  C_4
REMARK    4  A    between atoms: C_4  and  O_5
REMARK    5  A    between atoms: O_5  and  C_6
REMARK    6  A    between atoms: C_9  and  S_10
REMARK    7  A    between atoms: S_10  and  N_13
REMARK    8  A    between atoms: N_13  and  C_14
REMARK    9  A    between atoms: N_13  and  C_24
REMARK   10  A    between atoms: C_14  and  C_15
REMARK   11  A    between atoms: C_15  and  C_16
REMARK   12  A    between atoms: C_16  and  C_17
REMARK   13  A    between atoms: C_17  and  C_18
REMARK   14  A    between atoms: C_24  and  C_25
REMARK                            x       y       z     vdW  Elec       q    Type
REMARK                         _______ _______ _______ _____ _____    ______ ____
ROOT
ATOM      1  N   UNL     1       6.647   6.517  17.297  0.00  0.00    +0.000 NA
ENDROOT
BRANCH   1   2
ATOM      2  S   UNL     1       6.710   5.358  18.571  0.00  0.00    +0.000 S 
ATOM      3  O   UNL     1       6.885   6.050  19.829  0.00  0.00    +0.000 OA
ATOM      4  O   UNL     1       7.628   4.305  18.175  0.00  0.00    +0.000 OA
BRANCH   2   8
ATOM      5  C   UNL     1       2.517   3.607  18.092  0.00  0.00    +0.000 A 
ATOM      6  C   UNL     1       2.716   4.926  18.501  0.00  0.00    +0.000 A 
ATOM      7  C   UNL     1       3.997   5.398  18.780  0.00  0.00    +0.000 A 
ATOM      8  C   UNL     1       5.110   4.563  18.645  0.00  0.00    +0.000 A 
ATOM      9  C   UNL     1       4.928   3.232  18.269  0.00  0.00    +0.000 A 
ATOM     10  C   UNL     1       3.627   2.752  18.010  0.00  0.00    +0.000 A 
BRANCH   5  11
ATOM     11  O   UNL     1       1.298   3.082  17.722  0.00  0.00    +0.000 OA
BRANCH  11  12
ATOM     12  C   UNL     1       0.376   2.920  18.807  0.00  0.00    +0.000 C 
BRANCH  12  13
ATOM     13  C   UNL     1       0.935   2.038  19.921  0.00  0.00    +0.000 C 
BRANCH  13  15
ATOM     14  C   UNL     1       2.494   2.930  21.717  0.00  0.00    +0.000 C 
ATOM     15  C   UNL     1       1.068   2.871  21.201  0.00  0.00    +0.000 C 
ENDBRANCH  13  15
ENDBRANCH  12  13
ENDBRANCH  11  12
ENDBRANCH   5  11
ENDBRANCH   2   8
ENDBRANCH   1   2
BRANCH   1  16
ATOM     16  C   UNL     1       6.832   7.935  17.764  0.00  0.00    +0.000 C 
BRANCH  16  17
ATOM     17  C   UNL     1       8.296   8.340  17.980  0.00  0.00    +0.000 C 
BRANCH  17  18
ATOM     18  C   UNL     1       8.522   9.839  18.152  0.00  0.00    +0.000 C 
BRANCH  18  19
ATOM     19  C   UNL     1       9.379  10.157  19.379  0.00  0.00    +0.000 C 
BRANCH  19  20
ATOM     20  C   UNL     1      10.367  11.245  19.068  0.00  0.00    +0.000 A 
ATOM     21  C   UNL     1      10.991  11.946  20.109  0.00  0.00    +0.000 A 
ATOM     22  C   UNL     1      11.855  13.000  19.826  0.00  0.00    +0.000 A 
ATOM     23  C   UNL     1      12.104  13.365  18.504  0.00  0.00    +0.000 A 
ATOM     24  C   UNL     1      11.490  12.668  17.461  0.00  0.00    +0.000 A 
ATOM     25  C   UNL     1      10.625  11.612  17.741  0.00  0.00    +0.000 A 
ENDBRANCH  19  20
ENDBRANCH  18  19
ENDBRANCH  17  18
ENDBRANCH  16  17
ENDBRANCH   1  16
BRANCH   1  26
ATOM     26  C   UNL     1       7.571   6.149  16.160  0.00  0.00    +0.000 C 
BRANCH  26  27
ATOM     27  C   UNL     1       6.862   5.398  15.072  0.00  0.00    +0.000 A 
ATOM     28  C   UNL     1       5.593   4.855  15.085  0.00  0.00    +0.000 A 
ATOM     29  N   UNL     1       5.488   4.141  13.928  0.00  0.00    +0.000 N 
ATOM     30  C   UNL     1       6.640   4.332  13.225  0.00  0.00    +0.000 A 
ATOM     31  N   UNL     1       7.487   5.093  13.880  0.00  0.00    +0.000 NA
ATOM     32  H   UNL     1       4.708   3.557  13.656  0.00  0.00    +0.000 HD
ENDBRANCH  26  27
ENDBRANCH   1  26
TORSDOF 13
ENDMDL
MODEL 9
REMARK VINA RESULT:      -7.4      3.059      5.087
REMARK  Name = 
REMARK  14 active torsions:
REMARK  status: ('A' for Active; 'I' for Inactive)
REMARK    1  A    between atoms: C_1  and  C_2
REMARK    2  A    between atoms: C_2  and  C_3
REMARK    3  A    between atoms: C_3  and  C_4
REMARK    4  A    between atoms: C_4  and  O_5
REMARK    5  A    between atoms: O_5  and  C_6
REMARK    6  A    between atoms: C_9  and  S_10
REMARK    7  A    between atoms: S_10  and  N_13
REMARK    8  A    between atoms: N_13  and  C_14
REMARK    9  A    between atoms: N_13  and  C_24
REMARK   10  A    between atoms: C_14  and  C_15
REMARK   11  A    between atoms: C_15  and  C_16
REMARK   12  A    between atoms: C_16  and  C_17
REMARK   13  A    between atoms: C_17  and  C_18
REMARK   14  A    between atoms: C_24  and  C_25
REMARK                            x       y       z     vdW  Elec       q    Type
REMARK                         _______ _______ _______ _____ _____    ______ ____
ROOT
ATOM      1  N   UNL     1       2.932   5.030  17.701  0.00  0.00    +0.000 NA
ENDROOT
BRANCH   1   2
ATOM      2  S   UNL     1       3.666   6.526  18.143  0.00  0.00    +0.000 S 
ATOM      3  O   UNL     1       4.348   7.074  16.991  0.00  0.00    +0.000 OA
ATOM      4  O   UNL     1       4.375   6.326  19.394  0.00  0.00    +0.000 OA
BRANCH   2   8
ATOM      5  C   UNL     1       0.828   9.861  19.447  0.00  0.00    +0.000 A 
ATOM      6  C   UNL     1       1.272   8.887  20.343  0.00  0.00    +0.000 A 
ATOM      7  C   UNL     1       2.018   7.798  19.896  0.00  0.00    +0.000 A 
ATOM      8  C   UNL     1       2.348   7.666  18.544  0.00  0.00    +0.000 A 
ATOM      9  C   UNL     1       1.885   8.612  17.628  0.00  0.00    +0.000 A 
ATOM     10  C   UNL     1       1.109   9.700  18.082  0.00  0.00    +0.000 A 
BRANCH   5  11
ATOM     11  O   UNL     1       0.154  11.005  19.813  0.00  0.00    +0.000 OA
BRANCH  11  12
ATOM     12  C   UNL     1      -1.264  10.834  19.943  0.00  0.00    +0.000 C 
BRANCH  12  13
ATOM     13  C   UNL     1      -2.039  11.503  18.810  0.00  0.00    +0.000 C 
BRANCH  13  15
ATOM     14  C   UNL     1      -2.073   9.943  16.806  0.00  0.00    +0.000 C 
ATOM     15  C   UNL     1      -2.816  10.432  18.035  0.00  0.00    +0.000 C 
ENDBRANCH  13  15
ENDBRANCH  12  13
ENDBRANCH  11  12
ENDBRANCH   5  11
ENDBRANCH   2   8
ENDBRANCH   1   2
BRANCH   1  16
ATOM     16  C   UNL     1       3.812   3.834  17.941  0.00  0.00    +0.000 C 
BRANCH  16  17
ATOM     17  C   UNL     1       4.381   3.205  16.662  0.00  0.00    +0.000 C 
BRANCH  17  18
ATOM     18  C   UNL     1       5.119   4.178  15.748  0.00  0.00    +0.000 C 
BRANCH  18  19
ATOM     19  C   UNL     1       6.638   4.061  15.885  0.00  0.00    +0.000 C 
BRANCH  19  20
ATOM     20  C   UNL     1       7.164   5.087  16.848  0.00  0.00    +0.000 A 
ATOM     21  C   UNL     1       7.525   4.710  18.149  0.00  0.00    +0.000 A 
ATOM     22  C   UNL     1       7.948   5.669  19.065  0.00  0.00    +0.000 A 
ATOM     23  C   UNL     1       8.013   7.011  18.695  0.00  0.00    +0.000 A 
ATOM     24  C   UNL     1       7.659   7.393  17.399  0.00  0.00    +0.000 A 
ATOM     25  C   UNL     1       7.236   6.436  16.479  0.00  0.00    +0.000 A 
ENDBRANCH  19  20
ENDBRANCH  18  19
ENDBRANCH  17  18
ENDBRANCH  16  17
ENDBRANCH   1  16
BRANCH   1  26
ATOM     26  C   UNL     1       1.559   4.880  18.311  0.00  0.00    +0.000 C 
BRANCH  26  27
ATOM     27  C   UNL     1       1.575   4.021  19.541  0.00  0.00    +0.000 A 
ATOM     28  C   UNL     1       0.962   2.802  19.749  0.00  0.00    +0.000 A 
ATOM     29  N   UNL     1       1.142   2.521  21.070  0.00  0.00    +0.000 N 
ATOM     30  C   UNL     1       1.910   3.516  21.598  0.00  0.00    +0.000 A 
ATOM     31  N   UNL     1       2.199   4.432  20.701  0.00  0.00    +0.000 NA
ATOM     32  H   UNL     1       0.754   1.733  21.572  0.00  0.00    +0.000 HD
ENDBRANCH  26  27
ENDBRANCH   1  26
TORSDOF 13
ENDMDL
