MODEL 1
REMARK VINA RESULT:      -8.9      0.000      0.000
REMARK  Name = 
REMARK  9 active torsions:
REMARK  status: ('A' for Active; 'I' for Inactive)
REMARK    1  A    between atoms: C_1  and  C_2
REMARK    2  A    between atoms: C_2  and  C_3
REMARK    3  A    between atoms: C_10  and  C_11
REMARK    4  A    between atoms: N_17  and  C_18
REMARK    5  A    between atoms: C_18  and  C_19
REMARK    6  A    between atoms: C_19  and  C_20
REMARK    7  A    between atoms: N_22  and  C_23
REMARK    8  A    between atoms: C_26  and  C_27
REMARK    9  A    between atoms: C_26  and  C_28
REMARK                            x       y       z     vdW  Elec       q    Type
REMARK                         _______ _______ _______ _____ _____    ______ ____
ROOT
ATOM      1  C   UNL     1       1.490   8.188  20.158  0.00  0.00    +0.000 A 
ATOM      2  C   UNL     1       1.651   8.298  21.550  0.00  0.00    +0.000 A 
ATOM      3  C   UNL     1       0.885   9.184  22.305  0.00  0.00    +0.000 A 
ATOM      4  C   UNL     1       0.014  10.064  21.671  0.00  0.00    +0.000 A 
ATOM      5  C   UNL     1      -0.138  10.049  20.282  0.00  0.00    +0.000 A 
ATOM      6  C   UNL     1       0.568   9.076  19.555  0.00  0.00    +0.000 A 
ATOM      7  N   UNL     1      -1.018  10.986  19.671  0.00  0.00    +0.000 N 
ATOM      8  C   UNL     1      -1.748  11.871  20.473  0.00  0.00    +0.000 C 
ATOM      9  O   UNL     1      -2.694  12.522  20.030  0.00  0.00    +0.000 OA
ATOM     10  C   UNL     1      -1.105  12.130  21.864  0.00  0.00    +0.000 C 
ATOM     11  C   UNL     1       0.115  13.059  21.625  0.00  0.00    +0.000 C 
ATOM     12  O   UNL     1      -0.629  10.939  22.499  0.00  0.00    +0.000 OA
ENDROOT
BRANCH   1  20
ATOM     13  C   UNL     1       2.347   5.827  19.651  0.00  0.00    +0.000 A 
ATOM     14  N   UNL     1       3.138   4.974  18.955  0.00  0.00    +0.000 NA
ATOM     15  C   UNL     1       3.803   5.448  17.908  0.00  0.00    +0.000 A 
ATOM     16  N   UNL     1       4.588   4.564  17.199  0.00  0.00    +0.000 N 
ATOM     17  N   UNL     1       3.727   6.698  17.473  0.00  0.00    +0.000 NA
ATOM     18  C   UNL     1       2.985   7.549  18.199  0.00  0.00    +0.000 A 
ATOM     19  N   UNL     1       2.978   8.844  17.664  0.00  0.00    +0.000 N 
ATOM     20  C   UNL     1       2.264   7.197  19.352  0.00  0.00    +0.000 A 
ATOM     21  H   UNL     1       4.257   3.624  17.355  0.00  0.00    +0.000 HD
ATOM     22  H   UNL     1       4.660   4.874  16.239  0.00  0.00    +0.000 HD
ATOM     23  H   UNL     1       3.589   8.831  16.850  0.00  0.00    +0.000 HD
ATOM     24  H   UNL     1       3.271   9.532  18.348  0.00  0.00    +0.000 HD
BRANCH  13  26
ATOM     25  C   UNL     1       1.039   3.788  20.465  0.00  0.00    +0.000 C 
ATOM     26  C   UNL     1       1.589   5.173  20.789  0.00  0.00    +0.000 C 
ENDBRANCH  13  26
ENDBRANCH   1  20
BRANCH  10  27
ATOM     27  C   UNL     1      -2.059  12.846  22.841  0.00  0.00    +0.000 A 
ATOM     28  C   UNL     1      -3.076  12.154  23.524  0.00  0.00    +0.000 A 
ATOM     29  C   UNL     1      -3.892  12.811  24.446  0.00  0.00    +0.000 A 
ATOM     30  F   UNL     1      -4.839  12.120  25.092  0.00  0.00    +0.000 F 
ATOM     31  C   UNL     1      -3.732  14.160  24.718  0.00  0.00    +0.000 A 
ATOM     32  C   UNL     1      -2.739  14.856  24.048  0.00  0.00    +0.000 A 
ATOM     33  F   UNL     1      -2.562  16.159  24.299  0.00  0.00    +0.000 F 
ATOM     34  C   UNL     1      -1.912  14.219  23.125  0.00  0.00    +0.000 A 
ENDBRANCH  10  27
BRANCH   7  35
ATOM     35  C   UNL     1      -1.012  11.260  18.227  0.00  0.00    +0.000 C 
BRANCH  35  36
ATOM     36  C   UNL     1      -1.903  10.253  17.492  0.00  0.00    +0.000 C 
BRANCH  36  37
ATOM     37  C   UNL     1      -3.031  10.922  16.738  0.00  0.00    +0.000 C 
ATOM     38  O   UNL     1      -3.024  11.072  15.526  0.00  0.00    +0.000 OA
ATOM     39  N   UNL     1      -4.051  11.353  17.562  0.00  0.00    +0.000 N 
ATOM     40  C   UNL     1      -5.232  12.006  17.052  0.00  0.00    +0.000 C 
ATOM     41  H   UNL     1      -4.003  11.173  18.558  0.00  0.00    +0.000 HD
ENDBRANCH  36  37
ENDBRANCH  35  36
ENDBRANCH   7  35
TORSDOF 6
ENDMDL
MODEL 2
REMARK VINA RESULT:      -8.8      0.097      1.367
REMARK  Name = 
REMARK  9 active torsions:
REMARK  status: ('A' for Active; 'I' for Inactive)
REMARK    1  A    between atoms: C_1  and  C_2
REMARK    2  A    between atoms: C_2  and  C_3
REMARK    3  A    between atoms: C_10  and  C_11
REMARK    4  A    between atoms: N_17  and  C_18
REMARK    5  A    between atoms: C_18  and  C_19
REMARK    6  A    between atoms: C_19  and  C_20
REMARK    7  A    between atoms: N_22  and  C_23
REMARK    8  A    between atoms: C_26  and  C_27
REMARK    9  A    between atoms: C_26  and  C_28
REMARK                            x       y       z     vdW  Elec       q    Type
REMARK                         _______ _______ _______ _____ _____    ______ ____
ROOT
ATOM      1  C   UNL     1       1.487   8.185  20.170  0.00  0.00    +0.000 A 
ATOM      2  C   UNL     1       1.651   8.301  21.561  0.00  0.00    +0.000 A 
ATOM      3  C   UNL     1       0.890   9.194  22.313  0.00  0.00    +0.000 A 
ATOM      4  C   UNL     1       0.021  10.074  21.676  0.00  0.00    +0.000 A 
ATOM      5  C   UNL     1      -0.133  10.052  20.288  0.00  0.00    +0.000 A 
ATOM      6  C   UNL     1       0.567   9.074  19.565  0.00  0.00    +0.000 A 
ATOM      7  N   UNL     1      -1.011  10.990  19.673  0.00  0.00    +0.000 N 
ATOM      8  C   UNL     1      -1.736  11.882  20.473  0.00  0.00    +0.000 C 
ATOM      9  O   UNL     1      -2.680  12.535  20.029  0.00  0.00    +0.000 OA
ATOM     10  C   UNL     1      -1.088  12.146  21.862  0.00  0.00    +0.000 C 
ATOM     11  C   UNL     1       0.135  13.068  21.615  0.00  0.00    +0.000 C 
ATOM     12  O   UNL     1      -0.616  10.956  22.501  0.00  0.00    +0.000 OA
ENDROOT
BRANCH   1  20
ATOM     13  C   UNL     1       2.317   5.814  19.662  0.00  0.00    +0.000 A 
ATOM     14  N   UNL     1       3.104   4.953  18.970  0.00  0.00    +0.000 NA
ATOM     15  C   UNL     1       3.785   5.423  17.931  0.00  0.00    +0.000 A 
ATOM     16  N   UNL     1       4.564   4.531  17.225  0.00  0.00    +0.000 N 
ATOM     17  N   UNL     1       3.728   6.675  17.500  0.00  0.00    +0.000 NA
ATOM     18  C   UNL     1       2.991   7.533  18.222  0.00  0.00    +0.000 A 
ATOM     19  N   UNL     1       3.006   8.830  17.692  0.00  0.00    +0.000 N 
ATOM     20  C   UNL     1       2.255   7.186  19.367  0.00  0.00    +0.000 A 
ATOM     21  H   UNL     1       4.219   3.595  17.375  0.00  0.00    +0.000 HD
ATOM     22  H   UNL     1       4.649   4.843  16.267  0.00  0.00    +0.000 HD
ATOM     23  H   UNL     1       3.624   8.812  16.883  0.00  0.00    +0.000 HD
ATOM     24  H   UNL     1       3.302   9.512  18.381  0.00  0.00    +0.000 HD
BRANCH  13  26
ATOM     25  C   UNL     1       1.108   3.731  20.514  0.00  0.00    +0.000 C 
ATOM     26  C   UNL     1       1.541   5.166  20.791  0.00  0.00    +0.000 C 
ENDBRANCH  13  26
ENDBRANCH   1  20
BRANCH  10  27
ATOM     27  C   UNL     1      -2.038  12.870  22.836  0.00  0.00    +0.000 A 
ATOM     28  C   UNL     1      -1.990  14.265  23.018  0.00  0.00    +0.000 A 
ATOM     29  C   UNL     1      -2.897  14.907  23.863  0.00  0.00    +0.000 A 
ATOM     30  F   UNL     1      -2.835  16.237  24.000  0.00  0.00    +0.000 F 
ATOM     31  C   UNL     1      -3.869  14.198  24.550  0.00  0.00    +0.000 A 
ATOM     32  C   UNL     1      -3.924  12.824  24.385  0.00  0.00    +0.000 A 
ATOM     33  F   UNL     1      -4.858  12.118  25.034  0.00  0.00    +0.000 F 
ATOM     34  C   UNL     1      -3.030  12.162  23.545  0.00  0.00    +0.000 A 
ENDBRANCH  10  27
BRANCH   7  35
ATOM     35  C   UNL     1      -1.007  11.257  18.228  0.00  0.00    +0.000 C 
BRANCH  35  36
ATOM     36  C   UNL     1      -1.904  10.249  17.501  0.00  0.00    +0.000 C 
BRANCH  36  37
ATOM     37  C   UNL     1      -3.028  10.920  16.742  0.00  0.00    +0.000 C 
ATOM     38  O   UNL     1      -3.011  11.079  15.531  0.00  0.00    +0.000 OA
ATOM     39  N   UNL     1      -4.057  11.341  17.560  0.00  0.00    +0.000 N 
ATOM     40  C   UNL     1      -5.236  11.993  17.044  0.00  0.00    +0.000 C 
ATOM     41  H   UNL     1      -4.017  11.154  18.555  0.00  0.00    +0.000 HD
ENDBRANCH  36  37
ENDBRANCH  35  36
ENDBRANCH   7  35
TORSDOF 6
ENDMDL
MODEL 3
REMARK VINA RESULT:      -8.2      1.452      2.304
REMARK  Name = 
REMARK  9 active torsions:
REMARK  status: ('A' for Active; 'I' for Inactive)
REMARK    1  A    between atoms: C_1  and  C_2
REMARK    2  A    between atoms: C_2  and  C_3
REMARK    3  A    between atoms: C_10  and  C_11
REMARK    4  A    between atoms: N_17  and  C_18
REMARK    5  A    between atoms: C_18  and  C_19
REMARK    6  A    between atoms: C_19  and  C_20
REMARK    7  A    between atoms: N_22  and  C_23
REMARK    8  A    between atoms: C_26  and  C_27
REMARK    9  A    between atoms: C_26  and  C_28
REMARK                            x       y       z     vdW  Elec       q    Type
REMARK                         _______ _______ _______ _____ _____    ______ ____
ROOT
ATOM      1  C   UNL     1       1.406   8.400  20.223  0.00  0.00    +0.000 A 
ATOM      2  C   UNL     1       1.531   8.401  21.623  0.00  0.00    +0.000 A 
ATOM      3  C   UNL     1       0.758   9.240  22.424  0.00  0.00    +0.000 A 
ATOM      4  C   UNL     1      -0.083  10.179  21.836  0.00  0.00    +0.000 A 
ATOM      5  C   UNL     1      -0.198  10.272  20.447  0.00  0.00    +0.000 A 
ATOM      6  C   UNL     1       0.513   9.346  19.666  0.00  0.00    +0.000 A 
ATOM      7  N   UNL     1      -1.047  11.267  19.886  0.00  0.00    +0.000 N 
ATOM      8  C   UNL     1      -1.786  12.101  20.734  0.00  0.00    +0.000 C 
ATOM      9  O   UNL     1      -2.710  12.799  20.318  0.00  0.00    +0.000 OA
ATOM     10  C   UNL     1      -1.177  12.243  22.157  0.00  0.00    +0.000 C 
ATOM     11  C   UNL     1       0.063  13.167  22.020  0.00  0.00    +0.000 C 
ATOM     12  O   UNL     1      -0.736  11.000  22.711  0.00  0.00    +0.000 OA
ENDROOT
BRANCH   1  20
ATOM     13  C   UNL     1       2.335   6.087  19.625  0.00  0.00    +0.000 A 
ATOM     14  N   UNL     1       3.132   5.283  18.879  0.00  0.00    +0.000 NA
ATOM     15  C   UNL     1       3.738   5.809  17.821  0.00  0.00    +0.000 A 
ATOM     16  N   UNL     1       4.529   4.974  17.060  0.00  0.00    +0.000 N 
ATOM     17  N   UNL     1       3.596   7.064  17.421  0.00  0.00    +0.000 NA
ATOM     18  C   UNL     1       2.849   7.868  18.194  0.00  0.00    +0.000 A 
ATOM     19  N   UNL     1       2.771   9.174  17.693  0.00  0.00    +0.000 N 
ATOM     20  C   UNL     1       2.187   7.459  19.364  0.00  0.00    +0.000 A 
ATOM     21  H   UNL     1       4.241   4.017  17.206  0.00  0.00    +0.000 HD
ATOM     22  H   UNL     1       4.552   5.309  16.107  0.00  0.00    +0.000 HD
ATOM     23  H   UNL     1       3.351   9.204  16.857  0.00  0.00    +0.000 HD
ATOM     24  H   UNL     1       3.063   9.856  18.383  0.00  0.00    +0.000 HD
BRANCH  13  26
ATOM     25  C   UNL     1       1.082   4.005  20.418  0.00  0.00    +0.000 C 
ATOM     26  C   UNL     1       1.647   5.376  20.774  0.00  0.00    +0.000 C 
ENDBRANCH  13  26
ENDBRANCH   1  20
BRANCH  10  27
ATOM     27  C   UNL     1      -2.146  12.899  23.160  0.00  0.00    +0.000 A 
ATOM     28  C   UNL     1      -3.257  12.206  23.677  0.00  0.00    +0.000 A 
ATOM     29  C   UNL     1      -4.090  12.800  24.628  0.00  0.00    +0.000 A 
ATOM     30  F   UNL     1      -5.128  12.108  25.112  0.00  0.00    +0.000 F 
ATOM     31  C   UNL     1      -3.854  14.085  25.090  0.00  0.00    +0.000 A 
ATOM     32  C   UNL     1      -2.768  14.780  24.586  0.00  0.00    +0.000 A 
ATOM     33  F   UNL     1      -2.518  16.020  25.022  0.00  0.00    +0.000 F 
ATOM     34  C   UNL     1      -1.923  14.206  23.638  0.00  0.00    +0.000 A 
ENDBRANCH  10  27
BRANCH   7  35
ATOM     35  C   UNL     1      -0.999  11.649  18.467  0.00  0.00    +0.000 C 
BRANCH  35  36
ATOM     36  C   UNL     1      -0.413  13.057  18.318  0.00  0.00    +0.000 C 
BRANCH  36  37
ATOM     37  C   UNL     1       1.094  13.072  18.454  0.00  0.00    +0.000 C 
ATOM     38  O   UNL     1       1.794  12.102  18.213  0.00  0.00    +0.000 OA
ATOM     39  N   UNL     1       1.585  14.287  18.889  0.00  0.00    +0.000 N 
ATOM     40  C   UNL     1       2.995  14.528  19.075  0.00  0.00    +0.000 C 
ATOM     41  H   UNL     1       0.949  15.059  19.046  0.00  0.00    +0.000 HD
ENDBRANCH  36  37
ENDBRANCH  35  36
ENDBRANCH   7  35
TORSDOF 6
ENDMDL
MODEL 4
REMARK VINA RESULT:      -8.2      1.462      2.693
REMARK  Name = 
REMARK  9 active torsions:
REMARK  status: ('A' for Active; 'I' for Inactive)
REMARK    1  A    between atoms: C_1  and  C_2
REMARK    2  A    between atoms: C_2  and  C_3
REMARK    3  A    between atoms: C_10  and  C_11
REMARK    4  A    between atoms: N_17  and  C_18
REMARK    5  A    between atoms: C_18  and  C_19
REMARK    6  A    between atoms: C_19  and  C_20
REMARK    7  A    between atoms: N_22  and  C_23
REMARK    8  A    between atoms: C_26  and  C_27
REMARK    9  A    between atoms: C_26  and  C_28
REMARK                            x       y       z     vdW  Elec       q    Type
REMARK                         _______ _______ _______ _____ _____    ______ ____
ROOT
ATOM      1  C   UNL     1       1.381   8.470  20.225  0.00  0.00    +0.000 A 
ATOM      2  C   UNL     1       1.495   8.462  21.625  0.00  0.00    +0.000 A 
ATOM      3  C   UNL     1       0.714   9.295  22.425  0.00  0.00    +0.000 A 
ATOM      4  C   UNL     1      -0.122  10.238  21.837  0.00  0.00    +0.000 A 
ATOM      5  C   UNL     1      -0.224  10.341  20.448  0.00  0.00    +0.000 A 
ATOM      6  C   UNL     1       0.494   9.420  19.667  0.00  0.00    +0.000 A 
ATOM      7  N   UNL     1      -1.069  11.340  19.886  0.00  0.00    +0.000 N 
ATOM      8  C   UNL     1      -1.814  12.168  20.734  0.00  0.00    +0.000 C 
ATOM      9  O   UNL     1      -2.735  12.869  20.315  0.00  0.00    +0.000 OA
ATOM     10  C   UNL     1      -1.218  12.300  22.164  0.00  0.00    +0.000 C 
ATOM     11  C   UNL     1       0.023  13.224  22.044  0.00  0.00    +0.000 C 
ATOM     12  O   UNL     1      -0.782  11.052  22.713  0.00  0.00    +0.000 OA
ENDROOT
BRANCH   1  20
ATOM     13  C   UNL     1       2.344   6.169  19.637  0.00  0.00    +0.000 A 
ATOM     14  N   UNL     1       3.147   5.372  18.890  0.00  0.00    +0.000 NA
ATOM     15  C   UNL     1       3.733   5.899  17.820  0.00  0.00    +0.000 A 
ATOM     16  N   UNL     1       4.531   5.071  17.059  0.00  0.00    +0.000 N 
ATOM     17  N   UNL     1       3.565   7.148  17.411  0.00  0.00    +0.000 NA
ATOM     18  C   UNL     1       2.813   7.945  18.185  0.00  0.00    +0.000 A 
ATOM     19  N   UNL     1       2.707   9.245  17.674  0.00  0.00    +0.000 N 
ATOM     20  C   UNL     1       2.170   7.536  19.366  0.00  0.00    +0.000 A 
ATOM     21  H   UNL     1       4.261   4.111  17.215  0.00  0.00    +0.000 HD
ATOM     22  H   UNL     1       4.539   5.398  16.103  0.00  0.00    +0.000 HD
ATOM     23  H   UNL     1       3.277   9.279  16.831  0.00  0.00    +0.000 HD
ATOM     24  H   UNL     1       2.994   9.939  18.354  0.00  0.00    +0.000 HD
BRANCH  13  26
ATOM     25  C   UNL     1       1.113   4.084  20.454  0.00  0.00    +0.000 C 
ATOM     26  C   UNL     1       1.681   5.456  20.799  0.00  0.00    +0.000 C 
ENDBRANCH  13  26
ENDBRANCH   1  20
BRANCH  10  27
ATOM     27  C   UNL     1      -2.196  12.948  23.163  0.00  0.00    +0.000 A 
ATOM     28  C   UNL     1      -2.094  14.304  23.525  0.00  0.00    +0.000 A 
ATOM     29  C   UNL     1      -3.026  14.885  24.388  0.00  0.00    +0.000 A 
ATOM     30  F   UNL     1      -2.911  16.182  24.698  0.00  0.00    +0.000 F 
ATOM     31  C   UNL     1      -4.075  14.150  24.916  0.00  0.00    +0.000 A 
ATOM     32  C   UNL     1      -4.184  12.813  24.573  0.00  0.00    +0.000 A 
ATOM     33  F   UNL     1      -5.193  12.085  25.067  0.00  0.00    +0.000 F 
ATOM     34  C   UNL     1      -3.266  12.213  23.712  0.00  0.00    +0.000 A 
ENDBRANCH  10  27
BRANCH   7  35
ATOM     35  C   UNL     1      -1.008  11.733  18.471  0.00  0.00    +0.000 C 
BRANCH  35  36
ATOM     36  C   UNL     1      -0.403  13.134  18.335  0.00  0.00    +0.000 C 
BRANCH  36  37
ATOM     37  C   UNL     1       1.105  13.127  18.470  0.00  0.00    +0.000 C 
ATOM     38  O   UNL     1       1.793  12.157  18.193  0.00  0.00    +0.000 OA
ATOM     39  N   UNL     1       1.610  14.320  18.947  0.00  0.00    +0.000 N 
ATOM     40  C   UNL     1       3.023  14.537  19.139  0.00  0.00    +0.000 C 
ATOM     41  H   UNL     1       0.983  15.093  19.132  0.00  0.00    +0.000 HD
ENDBRANCH  36  37
ENDBRANCH  35  36
ENDBRANCH   7  35
TORSDOF 6
ENDMDL
MODEL 5
REMARK VINA RESULT:      -7.9      5.519     10.291
REMARK  Name = 
REMARK  9 active torsions:
REMARK  status: ('A' for Active; 'I' for Inactive)
REMARK    1  A    between atoms: C_1  and  C_2
REMARK    2  A    between atoms: C_2  and  C_3
REMARK    3  A    between atoms: C_10  and  C_11
REMARK    4  A    between atoms: N_17  and  C_18
REMARK    5  A    between atoms: C_18  and  C_19
REMARK    6  A    between atoms: C_19  and  C_20
REMARK    7  A    between atoms: N_22  and  C_23
REMARK    8  A    between atoms: C_26  and  C_27
REMARK    9  A    between atoms: C_26  and  C_28
REMARK                            x       y       z     vdW  Elec       q    Type
REMARK                         _______ _______ _______ _____ _____    ______ ____
ROOT
ATOM      1  C   UNL     1       1.566   8.899  19.496  0.00  0.00    +0.000 A 
ATOM      2  C   UNL     1       1.977   9.555  18.324  0.00  0.00    +0.000 A 
ATOM      3  C   UNL     1       2.744   8.909  17.356  0.00  0.00    +0.000 A 
ATOM      4  C   UNL     1       3.213   7.620  17.589  0.00  0.00    +0.000 A 
ATOM      5  C   UNL     1       2.894   6.942  18.768  0.00  0.00    +0.000 A 
ATOM      6  C   UNL     1       2.035   7.577  19.679  0.00  0.00    +0.000 A 
ATOM      7  N   UNL     1       3.420   5.635  18.980  0.00  0.00    +0.000 N 
ATOM      8  C   UNL     1       4.205   5.039  17.986  0.00  0.00    +0.000 C 
ATOM      9  O   UNL     1       4.474   3.838  18.003  0.00  0.00    +0.000 OA
ATOM     10  C   UNL     1       4.889   6.058  17.033  0.00  0.00    +0.000 C 
ATOM     11  C   UNL     1       6.055   6.700  17.831  0.00  0.00    +0.000 C 
ATOM     12  O   UNL     1       4.017   7.111  16.610  0.00  0.00    +0.000 OA
ENDROOT
BRANCH   1  20
ATOM     13  C   UNL     1      -0.504  10.237  20.200  0.00  0.00    +0.000 A 
ATOM     14  N   UNL     1      -1.220  10.916  21.129  0.00  0.00    +0.000 NA
ATOM     15  C   UNL     1      -0.804  10.883  22.390  0.00  0.00    +0.000 A 
ATOM     16  N   UNL     1      -1.554  11.562  23.326  0.00  0.00    +0.000 N 
ATOM     17  N   UNL     1       0.253  10.205  22.814  0.00  0.00    +0.000 NA
ATOM     18  C   UNL     1       0.988   9.579  21.881  0.00  0.00    +0.000 A 
ATOM     19  N   UNL     1       2.087   8.904  22.428  0.00  0.00    +0.000 N 
ATOM     20  C   UNL     1       0.692   9.567  20.508  0.00  0.00    +0.000 A 
ATOM     21  H   UNL     1      -2.496  11.675  22.981  0.00  0.00    +0.000 HD
ATOM     22  H   UNL     1      -1.443  11.122  24.229  0.00  0.00    +0.000 HD
ATOM     23  H   UNL     1       2.080   9.089  23.429  0.00  0.00    +0.000 HD
ATOM     24  H   UNL     1       2.956   9.191  21.994  0.00  0.00    +0.000 HD
BRANCH  13  26
ATOM     25  C   UNL     1      -1.334  11.704  18.279  0.00  0.00    +0.000 C 
ATOM     26  C   UNL     1      -1.096  10.292  18.806  0.00  0.00    +0.000 C 
ENDBRANCH  13  26
ENDBRANCH   1  20
BRANCH  10  27
ATOM     27  C   UNL     1       5.486   5.395  15.776  0.00  0.00    +0.000 A 
ATOM     28  C   UNL     1       4.712   4.575  14.934  0.00  0.00    +0.000 A 
ATOM     29  C   UNL     1       5.258   4.031  13.769  0.00  0.00    +0.000 A 
ATOM     30  F   UNL     1       4.491   3.269  12.980  0.00  0.00    +0.000 F 
ATOM     31  C   UNL     1       6.573   4.275  13.407  0.00  0.00    +0.000 A 
ATOM     32  C   UNL     1       7.348   5.075  14.231  0.00  0.00    +0.000 A 
ATOM     33  F   UNL     1       8.619   5.329  13.897  0.00  0.00    +0.000 F 
ATOM     34  C   UNL     1       6.823   5.630  15.396  0.00  0.00    +0.000 A 
ENDBRANCH  10  27
BRANCH   7  35
ATOM     35  C   UNL     1       3.407   4.974  20.293  0.00  0.00    +0.000 C 
BRANCH  35  36
ATOM     36  C   UNL     1       1.970   4.856  20.813  0.00  0.00    +0.000 C 
BRANCH  36  37
ATOM     37  C   UNL     1       1.363   3.500  20.527  0.00  0.00    +0.000 C 
ATOM     38  O   UNL     1       1.056   2.710  21.406  0.00  0.00    +0.000 OA
ATOM     39  N   UNL     1       1.208   3.250  19.178  0.00  0.00    +0.000 N 
ATOM     40  C   UNL     1       0.635   2.023  18.682  0.00  0.00    +0.000 C 
ATOM     41  H   UNL     1       1.461   3.961  18.503  0.00  0.00    +0.000 HD
ENDBRANCH  36  37
ENDBRANCH  35  36
ENDBRANCH   7  35
TORSDOF 6
ENDMDL
MODEL 6
REMARK VINA RESULT:      -7.9      3.116      5.435
REMARK  Name = 
REMARK  9 active torsions:
REMARK  status: ('A' for Active; 'I' for Inactive)
REMARK    1  A    between atoms: C_1  and  C_2
REMARK    2  A    between atoms: C_2  and  C_3
REMARK    3  A    between atoms: C_10  and  C_11
REMARK    4  A    between atoms: N_17  and  C_18
REMARK    5  A    between atoms: C_18  and  C_19
REMARK    6  A    between atoms: C_19  and  C_20
REMARK    7  A    between atoms: N_22  and  C_23
REMARK    8  A    between atoms: C_26  and  C_27
REMARK    9  A    between atoms: C_26  and  C_28
REMARK                            x       y       z     vdW  Elec       q    Type
REMARK                         _______ _______ _______ _____ _____    ______ ____
ROOT
ATOM      1  C   UNL     1       2.949   6.146  18.474  0.00  0.00    +0.000 A 
ATOM      2  C   UNL     1       3.102   6.830  17.256  0.00  0.00    +0.000 A 
ATOM      3  C   UNL     1       2.873   8.201  17.155  0.00  0.00    +0.000 A 
ATOM      4  C   UNL     1       2.377   8.904  18.249  0.00  0.00    +0.000 A 
ATOM      5  C   UNL     1       2.140   8.263  19.467  0.00  0.00    +0.000 A 
ATOM      6  C   UNL     1       2.478   6.904  19.571  0.00  0.00    +0.000 A 
ATOM      7  N   UNL     1       1.605   9.014  20.553  0.00  0.00    +0.000 N 
ATOM      8  C   UNL     1       1.371  10.385  20.393  0.00  0.00    +0.000 C 
ATOM      9  O   UNL     1       1.150  11.124  21.353  0.00  0.00    +0.000 OA
ATOM     10  C   UNL     1       1.172  10.818  18.913  0.00  0.00    +0.000 C 
ATOM     11  C   UNL     1      -0.243  10.337  18.495  0.00  0.00    +0.000 C 
ATOM     12  O   UNL     1       2.117  10.224  18.018  0.00  0.00    +0.000 OA
ENDROOT
BRANCH   1  20
ATOM     13  C   UNL     1       4.501   4.172  18.989  0.00  0.00    +0.000 A 
ATOM     14  N   UNL     1       4.771   2.843  18.998  0.00  0.00    +0.000 NA
ATOM     15  C   UNL     1       3.788   2.002  18.696  0.00  0.00    +0.000 A 
ATOM     16  N   UNL     1       4.072   0.653  18.730  0.00  0.00    +0.000 N 
ATOM     17  N   UNL     1       2.547   2.368  18.411  0.00  0.00    +0.000 NA
ATOM     18  C   UNL     1       2.301   3.687  18.350  0.00  0.00    +0.000 A 
ATOM     19  N   UNL     1       0.967   3.969  18.031  0.00  0.00    +0.000 N 
ATOM     20  C   UNL     1       3.253   4.689  18.602  0.00  0.00    +0.000 A 
ATOM     21  H   UNL     1       4.869   0.495  19.329  0.00  0.00    +0.000 HD
ATOM     22  H   UNL     1       3.228   0.137  18.939  0.00  0.00    +0.000 HD
ATOM     23  H   UNL     1       0.503   3.075  17.882  0.00  0.00    +0.000 HD
ATOM     24  H   UNL     1       0.896   4.574  17.221  0.00  0.00    +0.000 HD
BRANCH  13  26
ATOM     25  C   UNL     1       6.615   5.411  18.263  0.00  0.00    +0.000 C 
ATOM     26  C   UNL     1       5.672   5.040  19.403  0.00  0.00    +0.000 C 
ENDBRANCH  13  26
ENDBRANCH   1  20
BRANCH  10  27
ATOM     27  C   UNL     1       1.226  12.347  18.725  0.00  0.00    +0.000 A 
ATOM     28  C   UNL     1       0.106  13.163  18.967  0.00  0.00    +0.000 A 
ATOM     29  C   UNL     1       0.194  14.552  18.846  0.00  0.00    +0.000 A 
ATOM     30  F   UNL     1      -0.885  15.301  19.100  0.00  0.00    +0.000 F 
ATOM     31  C   UNL     1       1.380  15.169  18.481  0.00  0.00    +0.000 A 
ATOM     32  C   UNL     1       2.489  14.377  18.234  0.00  0.00    +0.000 A 
ATOM     33  F   UNL     1       3.646  14.953  17.887  0.00  0.00    +0.000 F 
ATOM     34  C   UNL     1       2.424  12.990  18.351  0.00  0.00    +0.000 A 
ENDBRANCH  10  27
BRANCH   7  35
ATOM     35  C   UNL     1       1.035   8.385  21.752  0.00  0.00    +0.000 C 
BRANCH  35  36
ATOM     36  C   UNL     1      -0.433   8.792  21.918  0.00  0.00    +0.000 C 
BRANCH  36  37
ATOM     37  C   UNL     1      -0.620   9.862  22.971  0.00  0.00    +0.000 C 
ATOM     38  O   UNL     1      -0.059   9.834  24.055  0.00  0.00    +0.000 OA
ATOM     39  N   UNL     1      -1.496  10.856  22.582  0.00  0.00    +0.000 N 
ATOM     40  C   UNL     1      -1.809  11.982  23.426  0.00  0.00    +0.000 C 
ATOM     41  H   UNL     1      -1.907  10.830  21.657  0.00  0.00    +0.000 HD
ENDBRANCH  36  37
ENDBRANCH  35  36
ENDBRANCH   7  35
TORSDOF 6
ENDMDL
MODEL 7
REMARK VINA RESULT:      -7.7      3.123      5.498
REMARK  Name = 
REMARK  9 active torsions:
REMARK  status: ('A' for Active; 'I' for Inactive)
REMARK    1  A    between atoms: C_1  and  C_2
REMARK    2  A    between atoms: C_2  and  C_3
REMARK    3  A    between atoms: C_10  and  C_11
REMARK    4  A    between atoms: N_17  and  C_18
REMARK    5  A    between atoms: C_18  and  C_19
REMARK    6  A    between atoms: C_19  and  C_20
REMARK    7  A    between atoms: N_22  and  C_23
REMARK    8  A    between atoms: C_26  and  C_27
REMARK    9  A    between atoms: C_26  and  C_28
REMARK                            x       y       z     vdW  Elec       q    Type
REMARK                         _______ _______ _______ _____ _____    ______ ____
ROOT
ATOM      1  C   UNL     1       2.936   6.193  18.428  0.00  0.00    +0.000 A 
ATOM      2  C   UNL     1       3.112   6.903  17.228  0.00  0.00    +0.000 A 
ATOM      3  C   UNL     1       2.901   8.279  17.157  0.00  0.00    +0.000 A 
ATOM      4  C   UNL     1       2.400   8.963  18.260  0.00  0.00    +0.000 A 
ATOM      5  C   UNL     1       2.140   8.297  19.461  0.00  0.00    +0.000 A 
ATOM      6  C   UNL     1       2.460   6.932  19.537  0.00  0.00    +0.000 A 
ATOM      7  N   UNL     1       1.600   9.028  20.557  0.00  0.00    +0.000 N 
ATOM      8  C   UNL     1       1.385  10.406  20.426  0.00  0.00    +0.000 C 
ATOM      9  O   UNL     1       1.162  11.125  21.400  0.00  0.00    +0.000 OA
ATOM     10  C   UNL     1       1.210  10.876  18.955  0.00  0.00    +0.000 C 
ATOM     11  C   UNL     1      -0.205  10.422  18.509  0.00  0.00    +0.000 C 
ATOM     12  O   UNL     1       2.160  10.291  18.058  0.00  0.00    +0.000 OA
ENDROOT
BRANCH   1  20
ATOM     13  C   UNL     1       4.446   4.188  18.945  0.00  0.00    +0.000 A 
ATOM     14  N   UNL     1       4.702   2.857  18.927  0.00  0.00    +0.000 NA
ATOM     15  C   UNL     1       3.725   2.036  18.562  0.00  0.00    +0.000 A 
ATOM     16  N   UNL     1       3.993   0.684  18.568  0.00  0.00    +0.000 N 
ATOM     17  N   UNL     1       2.499   2.424  18.240  0.00  0.00    +0.000 NA
ATOM     18  C   UNL     1       2.269   3.746  18.208  0.00  0.00    +0.000 A 
ATOM     19  N   UNL     1       0.950   4.052  17.846  0.00  0.00    +0.000 N 
ATOM     20  C   UNL     1       3.220   4.730  18.525  0.00  0.00    +0.000 A 
ATOM     21  H   UNL     1       4.765   0.500  19.192  0.00  0.00    +0.000 HD
ATOM     22  H   UNL     1       3.137   0.171  18.729  0.00  0.00    +0.000 HD
ATOM     23  H   UNL     1       0.484   3.168  17.653  0.00  0.00    +0.000 HD
ATOM     24  H   UNL     1       0.917   4.680  17.052  0.00  0.00    +0.000 HD
BRANCH  13  26
ATOM     25  C   UNL     1       6.541   5.514  18.323  0.00  0.00    +0.000 C 
ATOM     26  C   UNL     1       5.609   5.031  19.429  0.00  0.00    +0.000 C 
ENDBRANCH  13  26
ENDBRANCH   1  20
BRANCH  10  27
ATOM     27  C   UNL     1       1.286  12.408  18.803  0.00  0.00    +0.000 A 
ATOM     28  C   UNL     1       2.464  13.053  18.385  0.00  0.00    +0.000 A 
ATOM     29  C   UNL     1       2.493  14.437  18.199  0.00  0.00    +0.000 A 
ATOM     30  F   UNL     1       3.625  15.018  17.784  0.00  0.00    +0.000 F 
ATOM     31  C   UNL     1       1.371  15.218  18.422  0.00  0.00    +0.000 A 
ATOM     32  C   UNL     1       0.206  14.596  18.840  0.00  0.00    +0.000 A 
ATOM     33  F   UNL     1      -0.893  15.330  19.056  0.00  0.00    +0.000 F 
ATOM     34  C   UNL     1       0.154  13.217  19.030  0.00  0.00    +0.000 A 
ENDBRANCH  10  27
BRANCH   7  35
ATOM     35  C   UNL     1       1.008   8.379  21.734  0.00  0.00    +0.000 C 
BRANCH  35  36
ATOM     36  C   UNL     1      -0.462   8.787  21.881  0.00  0.00    +0.000 C 
BRANCH  36  37
ATOM     37  C   UNL     1      -0.665   9.839  22.950  0.00  0.00    +0.000 C 
ATOM     38  O   UNL     1      -0.161   9.766  24.059  0.00  0.00    +0.000 OA
ATOM     39  N   UNL     1      -1.484  10.873  22.542  0.00  0.00    +0.000 N 
ATOM     40  C   UNL     1      -1.800  11.990  23.397  0.00  0.00    +0.000 C 
ATOM     41  H   UNL     1      -1.848  10.883  21.597  0.00  0.00    +0.000 HD
ENDBRANCH  36  37
ENDBRANCH  35  36
ENDBRANCH   7  35
TORSDOF 6
ENDMDL
MODEL 8
REMARK VINA RESULT:      -7.4      5.597     10.549
REMARK  Name = 
REMARK  9 active torsions:
REMARK  status: ('A' for Active; 'I' for Inactive)
REMARK    1  A    between atoms: C_1  and  C_2
REMARK    2  A    between atoms: C_2  and  C_3
REMARK    3  A    between atoms: C_10  and  C_11
REMARK    4  A    between atoms: N_17  and  C_18
REMARK    5  A    between atoms: C_18  and  C_19
REMARK    6  A    between atoms: C_19  and  C_20
REMARK    7  A    between atoms: N_22  and  C_23
REMARK    8  A    between atoms: C_26  and  C_27
REMARK    9  A    between atoms: C_26  and  C_28
REMARK                            x       y       z     vdW  Elec       q    Type
REMARK                         _______ _______ _______ _____ _____    ______ ____
ROOT
ATOM      1  C   UNL     1       1.537   8.947  19.325  0.00  0.00    +0.000 A 
ATOM      2  C   UNL     1       2.455   9.646  18.524  0.00  0.00    +0.000 A 
ATOM      3  C   UNL     1       3.275   8.987  17.609  0.00  0.00    +0.000 A 
ATOM      4  C   UNL     1       3.274   7.597  17.551  0.00  0.00    +0.000 A 
ATOM      5  C   UNL     1       2.431   6.844  18.373  0.00  0.00    +0.000 A 
ATOM      6  C   UNL     1       1.542   7.536  19.211  0.00  0.00    +0.000 A 
ATOM      7  N   UNL     1       2.483   5.423  18.303  0.00  0.00    +0.000 N 
ATOM      8  C   UNL     1       3.340   4.809  17.383  0.00  0.00    +0.000 C 
ATOM      9  O   UNL     1       3.249   3.613  17.105  0.00  0.00    +0.000 OA
ATOM     10  C   UNL     1       4.540   5.700  16.954  0.00  0.00    +0.000 C 
ATOM     11  C   UNL     1       5.530   5.717  18.149  0.00  0.00    +0.000 C 
ATOM     12  O   UNL     1       4.168   7.053  16.675  0.00  0.00    +0.000 OA
ENDROOT
BRANCH   1  20
ATOM     13  C   UNL     1      -0.481  10.435  19.855  0.00  0.00    +0.000 A 
ATOM     14  N   UNL     1      -1.239  11.143  20.729  0.00  0.00    +0.000 NA
ATOM     15  C   UNL     1      -0.972  11.029  22.025  0.00  0.00    +0.000 A 
ATOM     16  N   UNL     1      -1.764  11.739  22.903  0.00  0.00    +0.000 N 
ATOM     17  N   UNL     1      -0.031  10.247  22.533  0.00  0.00    +0.000 NA
ATOM     18  C   UNL     1       0.751   9.592  21.659  0.00  0.00    +0.000 A 
ATOM     19  N   UNL     1       1.720   8.804  22.294  0.00  0.00    +0.000 N 
ATOM     20  C   UNL     1       0.613   9.653  20.263  0.00  0.00    +0.000 A 
ATOM     21  H   UNL     1      -2.649  11.945  22.461  0.00  0.00    +0.000 HD
ATOM     22  H   UNL     1      -1.794  11.260  23.792  0.00  0.00    +0.000 HD
ATOM     23  H   UNL     1       1.615   8.955  23.295  0.00  0.00    +0.000 HD
ATOM     24  H   UNL     1       2.654   9.029  21.971  0.00  0.00    +0.000 HD
BRANCH  13  26
ATOM     25  C   UNL     1      -2.294  10.048  18.097  0.00  0.00    +0.000 C 
ATOM     26  C   UNL     1      -0.904  10.591  18.408  0.00  0.00    +0.000 C 
ENDBRANCH  13  26
ENDBRANCH   1  20
BRANCH  10  27
ATOM     27  C   UNL     1       5.289   5.144  15.727  0.00  0.00    +0.000 A 
ATOM     28  C   UNL     1       4.643   4.350  14.762  0.00  0.00    +0.000 A 
ATOM     29  C   UNL     1       5.328   3.905  13.629  0.00  0.00    +0.000 A 
ATOM     30  F   UNL     1       4.679   3.165  12.721  0.00  0.00    +0.000 F 
ATOM     31  C   UNL     1       6.659   4.226  13.418  0.00  0.00    +0.000 A 
ATOM     32  C   UNL     1       7.309   5.002  14.363  0.00  0.00    +0.000 A 
ATOM     33  F   UNL     1       8.593   5.330  14.177  0.00  0.00    +0.000 F 
ATOM     34  C   UNL     1       6.645   5.459  15.500  0.00  0.00    +0.000 A 
ENDBRANCH  10  27
BRANCH   7  35
ATOM     35  C   UNL     1       1.881   4.552  19.323  0.00  0.00    +0.000 C 
BRANCH  35  36
ATOM     36  C   UNL     1       2.750   4.536  20.586  0.00  0.00    +0.000 C 
BRANCH  36  37
ATOM     37  C   UNL     1       3.238   3.146  20.933  0.00  0.00    +0.000 C 
ATOM     38  O   UNL     1       2.836   2.523  21.902  0.00  0.00    +0.000 OA
ATOM     39  N   UNL     1       4.187   2.671  20.050  0.00  0.00    +0.000 N 
ATOM     40  C   UNL     1       4.778   1.362  20.184  0.00  0.00    +0.000 C 
ATOM     41  H   UNL     1       4.456   3.232  19.251  0.00  0.00    +0.000 HD
ENDBRANCH  36  37
ENDBRANCH  35  36
ENDBRANCH   7  35
TORSDOF 6
ENDMDL
MODEL 9
REMARK VINA RESULT:      -7.4      4.499      9.178
REMARK  Name = 
REMARK  9 active torsions:
REMARK  status: ('A' for Active; 'I' for Inactive)
REMARK    1  A    between atoms: C_1  and  C_2
REMARK    2  A    between atoms: C_2  and  C_3
REMARK    3  A    between atoms: C_10  and  C_11
REMARK    4  A    between atoms: N_17  and  C_18
REMARK    5  A    between atoms: C_18  and  C_19
REMARK    6  A    between atoms: C_19  and  C_20
REMARK    7  A    between atoms: N_22  and  C_23
REMARK    8  A    between atoms: C_26  and  C_27
REMARK    9  A    between atoms: C_26  and  C_28
REMARK                            x       y       z     vdW  Elec       q    Type
REMARK                         _______ _______ _______ _____ _____    ______ ____
ROOT
ATOM      1  C   UNL     1      -2.316  13.583  23.165  0.00  0.00    +0.000 A 
ATOM      2  C   UNL     1      -2.500  12.252  23.576  0.00  0.00    +0.000 A 
ATOM      3  C   UNL     1      -1.780  11.205  23.002  0.00  0.00    +0.000 A 
ATOM      4  C   UNL     1      -0.936  11.452  21.924  0.00  0.00    +0.000 A 
ATOM      5  C   UNL     1      -0.765  12.746  21.427  0.00  0.00    +0.000 A 
ATOM      6  C   UNL     1      -1.422  13.796  22.089  0.00  0.00    +0.000 A 
ATOM      7  N   UNL     1       0.085  12.951  20.303  0.00  0.00    +0.000 N 
ATOM      8  C   UNL     1       0.768  11.862  19.749  0.00  0.00    +0.000 C 
ATOM      9  O   UNL     1       1.694  12.011  18.951  0.00  0.00    +0.000 OA
ATOM     10  C   UNL     1       0.097  10.489  20.036  0.00  0.00    +0.000 C 
ATOM     11  C   UNL     1      -1.156  10.408  19.124  0.00  0.00    +0.000 C 
ATOM     12  O   UNL     1      -0.340  10.345  21.392  0.00  0.00    +0.000 OA
ENDROOT
BRANCH   1  20
ATOM     13  C   UNL     1      -4.367  15.074  23.535  0.00  0.00    +0.000 A 
ATOM     14  N   UNL     1      -4.960  16.169  24.074  0.00  0.00    +0.000 NA
ATOM     15  C   UNL     1      -4.272  16.882  24.958  0.00  0.00    +0.000 A 
ATOM     16  N   UNL     1      -4.894  17.980  25.512  0.00  0.00    +0.000 N 
ATOM     17  N   UNL     1      -3.050  16.585  25.376  0.00  0.00    +0.000 NA
ATOM     18  C   UNL     1      -2.449  15.532  24.797  0.00  0.00    +0.000 A 
ATOM     19  N   UNL     1      -1.160  15.309  25.298  0.00  0.00    +0.000 N 
ATOM     20  C   UNL     1      -3.039  14.715  23.818  0.00  0.00    +0.000 A 
ATOM     21  H   UNL     1      -5.895  17.867  25.443  0.00  0.00    +0.000 HD
ATOM     22  H   UNL     1      -4.513  18.154  26.432  0.00  0.00    +0.000 HD
ATOM     23  H   UNL     1      -0.973  16.047  25.974  0.00  0.00    +0.000 HD
ATOM     24  H   UNL     1      -0.470  15.289  24.557  0.00  0.00    +0.000 HD
BRANCH  13  26
ATOM     25  C   UNL     1      -6.100  13.218  23.250  0.00  0.00    +0.000 C 
ATOM     26  C   UNL     1      -5.257  14.300  22.583  0.00  0.00    +0.000 C 
ENDBRANCH  13  26
ENDBRANCH   1  20
BRANCH  10  27
ATOM     27  C   UNL     1       1.008   9.294  19.695  0.00  0.00    +0.000 A 
ATOM     28  C   UNL     1       1.189   8.222  20.589  0.00  0.00    +0.000 A 
ATOM     29  C   UNL     1       1.974   7.122  20.236  0.00  0.00    +0.000 A 
ATOM     30  F   UNL     1       2.111   6.111  21.102  0.00  0.00    +0.000 F 
ATOM     31  C   UNL     1       2.602   7.051  19.003  0.00  0.00    +0.000 A 
ATOM     32  C   UNL     1       2.438   8.102  18.116  0.00  0.00    +0.000 A 
ATOM     33  F   UNL     1       3.029   8.052  16.916  0.00  0.00    +0.000 F 
ATOM     34  C   UNL     1       1.657   9.208  18.446  0.00  0.00    +0.000 A 
ENDBRANCH  10  27
BRANCH   7  35
ATOM     35  C   UNL     1       0.088  14.195  19.522  0.00  0.00    +0.000 C 
BRANCH  35  36
ATOM     36  C   UNL     1       1.149  15.159  20.064  0.00  0.00    +0.000 C 
BRANCH  36  37
ATOM     37  C   UNL     1       2.217  15.476  19.040  0.00  0.00    +0.000 C 
ATOM     38  O   UNL     1       2.150  16.430  18.282  0.00  0.00    +0.000 OA
ATOM     39  N   UNL     1       3.259  14.570  19.048  0.00  0.00    +0.000 N 
ATOM     40  C   UNL     1       4.392  14.689  18.163  0.00  0.00    +0.000 C 
ATOM     41  H   UNL     1       3.262  13.814  19.723  0.00  0.00    +0.000 HD
ENDBRANCH  36  37
ENDBRANCH  35  36
ENDBRANCH   7  35
TORSDOF 6
ENDMDL
