MODEL 1
REMARK VINA RESULT:      -6.6      0.000      0.000
REMARK  Name = 
REMARK  10 active torsions:
REMARK  status: ('A' for Active; 'I' for Inactive)
REMARK    1  A    between atoms: C_1  and  C_2
REMARK    2  A    between atoms: C_2  and  O_3
REMARK    3  A    between atoms: O_3  and  C_4
REMARK    4  A    between atoms: C_4  and  C_6
REMARK    5  A    between atoms: C_7  and  N_8
REMARK    6  A    between atoms: C_9  and  C_11
REMARK    7  A    between atoms: C_11  and  C_12
REMARK    8  A    between atoms: C_11  and  C_13
REMARK    9  A    between atoms: C_11  and  C_14
REMARK   10  A    between atoms: C_21  and  C_22
REMARK                            x       y       z     vdW  Elec       q    Type
REMARK                         _______ _______ _______ _____ _____    ______ ____
ROOT
ATOM      1  C   UNL     1       2.544   6.521  19.423  0.00  0.00    +0.000 A 
ATOM      2  C   UNL     1       3.045   6.633  18.139  0.00  0.00    +0.000 A 
ATOM      3  S   UNL     1       2.789   8.156  17.428  0.00  0.00    +0.000 S 
ATOM      4  C   UNL     1       1.828   8.657  18.734  0.00  0.00    +0.000 A 
ATOM      5  C   UNL     1       1.782   7.711  19.745  0.00  0.00    +0.000 A 
ATOM      6  C   UNL     1       1.072   8.020  21.037  0.00  0.00    +0.000 C 
ATOM      7  C   UNL     1       0.103   9.200  20.849  0.00  0.00    +0.000 C 
ATOM      8  N   UNL     1       0.752  10.311  20.133  0.00  0.00    +0.000 N 
ATOM      9  C   UNL     1       0.964  11.498  20.809  0.00  0.00    +0.000 C 
ATOM     10  C   UNL     1       1.579  12.675  20.093  0.00  0.00    +0.000 C 
ATOM     11  O   UNL     1       0.660  11.633  21.998  0.00  0.00    +0.000 OA
ATOM     12  C   UNL     1       1.168  10.006  18.757  0.00  0.00    +0.000 C 
ENDROOT
BRANCH   2  13
ATOM     13  N   UNL     1       3.761   5.790  17.311  0.00  0.00    +0.000 N 
ATOM     14  C   UNL     1       5.146   5.877  17.245  0.00  0.00    +0.000 C 
ATOM     15  O   UNL     1       5.815   6.696  17.874  0.00  0.00    +0.000 OA
ATOM     16  H   UNL     1       3.347   4.881  17.168  0.00  0.00    +0.000 HD
BRANCH  14  17
ATOM     17  C   UNL     1       5.798   4.821  16.322  0.00  0.00    +0.000 C 
ATOM     18  C   UNL     1       4.983   3.520  16.376  0.00  0.00    +0.000 C 
ATOM     19  C   UNL     1       5.810   5.335  14.870  0.00  0.00    +0.000 C 
ATOM     20  C   UNL     1       7.254   4.551  16.741  0.00  0.00    +0.000 C 
ENDBRANCH  14  17
ENDBRANCH   2  13
BRANCH   1  21
ATOM     21  C   UNL     1       2.854   5.446  20.376  0.00  0.00    +0.000 C 
ATOM     22  O   UNL     1       3.935   4.875  20.401  0.00  0.00    +0.000 OA
BRANCH  21  23
ATOM     23  O   UNL     1       1.756   5.023  21.060  0.00  0.00    +0.000 OA
BRANCH  23  25
ATOM     24  C   UNL     1       1.401   2.707  21.396  0.00  0.00    +0.000 C 
ATOM     25  C   UNL     1       1.058   3.898  20.521  0.00  0.00    +0.000 C 
ENDBRANCH  23  25
ENDBRANCH  21  23
ENDBRANCH   1  21
TORSDOF 5
ENDMDL
MODEL 2
REMARK VINA RESULT:      -6.3      0.940      1.448
REMARK  Name = 
REMARK  10 active torsions:
REMARK  status: ('A' for Active; 'I' for Inactive)
REMARK    1  A    between atoms: C_1  and  C_2
REMARK    2  A    between atoms: C_2  and  O_3
REMARK    3  A    between atoms: O_3  and  C_4
REMARK    4  A    between atoms: C_4  and  C_6
REMARK    5  A    between atoms: C_7  and  N_8
REMARK    6  A    between atoms: C_9  and  C_11
REMARK    7  A    between atoms: C_11  and  C_12
REMARK    8  A    between atoms: C_11  and  C_13
REMARK    9  A    between atoms: C_11  and  C_14
REMARK   10  A    between atoms: C_21  and  C_22
REMARK                            x       y       z     vdW  Elec       q    Type
REMARK                         _______ _______ _______ _____ _____    ______ ____
ROOT
ATOM      1  C   UNL     1       2.479   6.147  19.491  0.00  0.00    +0.000 A 
ATOM      2  C   UNL     1       3.021   6.400  18.244  0.00  0.00    +0.000 A 
ATOM      3  S   UNL     1       2.769   7.987  17.692  0.00  0.00    +0.000 S 
ATOM      4  C   UNL     1       1.759   8.337  19.009  0.00  0.00    +0.000 A 
ATOM      5  C   UNL     1       1.691   7.288  19.911  0.00  0.00    +0.000 A 
ATOM      6  C   UNL     1       0.935   7.450  21.204  0.00  0.00    +0.000 C 
ATOM      7  C   UNL     1      -0.043   8.634  21.109  0.00  0.00    +0.000 C 
ATOM      8  N   UNL     1       0.616   9.822  20.539  0.00  0.00    +0.000 N 
ATOM      9  C   UNL     1       0.789  10.932  21.344  0.00  0.00    +0.000 C 
ATOM     10  C   UNL     1       1.413  12.184  20.780  0.00  0.00    +0.000 C 
ATOM     11  O   UNL     1       0.444  10.936  22.530  0.00  0.00    +0.000 OA
ATOM     12  C   UNL     1       1.081   9.670  19.153  0.00  0.00    +0.000 C 
ENDROOT
BRANCH   2  13
ATOM     13  N   UNL     1       3.775   5.658  17.356  0.00  0.00    +0.000 N 
ATOM     14  C   UNL     1       5.162   5.743  17.367  0.00  0.00    +0.000 C 
ATOM     15  O   UNL     1       5.801   6.476  18.119  0.00  0.00    +0.000 OA
ATOM     16  H   UNL     1       3.367   4.774  17.086  0.00  0.00    +0.000 HD
BRANCH  14  17
ATOM     17  C   UNL     1       5.856   4.800  16.355  0.00  0.00    +0.000 C 
ATOM     18  C   UNL     1       7.315   4.578  16.780  0.00  0.00    +0.000 C 
ATOM     19  C   UNL     1       5.137   3.439  16.334  0.00  0.00    +0.000 C 
ATOM     20  C   UNL     1       5.802   5.387  14.934  0.00  0.00    +0.000 C 
ENDBRANCH  14  17
ENDBRANCH   2  13
BRANCH   1  21
ATOM     21  C   UNL     1       2.772   4.979  20.334  0.00  0.00    +0.000 C 
ATOM     22  O   UNL     1       2.290   4.827  21.447  0.00  0.00    +0.000 OA
BRANCH  21  23
ATOM     23  O   UNL     1       3.785   4.218  19.835  0.00  0.00    +0.000 OA
BRANCH  23  25
ATOM     24  C   UNL     1       2.791   2.263  18.944  0.00  0.00    +0.000 C 
ATOM     25  C   UNL     1       3.688   2.806  20.040  0.00  0.00    +0.000 C 
ENDBRANCH  23  25
ENDBRANCH  21  23
ENDBRANCH   1  21
TORSDOF 5
ENDMDL
MODEL 3
REMARK VINA RESULT:      -6.2      2.522      7.009
REMARK  Name = 
REMARK  10 active torsions:
REMARK  status: ('A' for Active; 'I' for Inactive)
REMARK    1  A    between atoms: C_1  and  C_2
REMARK    2  A    between atoms: C_2  and  O_3
REMARK    3  A    between atoms: O_3  and  C_4
REMARK    4  A    between atoms: C_4  and  C_6
REMARK    5  A    between atoms: C_7  and  N_8
REMARK    6  A    between atoms: C_9  and  C_11
REMARK    7  A    between atoms: C_11  and  C_12
REMARK    8  A    between atoms: C_11  and  C_13
REMARK    9  A    between atoms: C_11  and  C_14
REMARK   10  A    between atoms: C_21  and  C_22
REMARK                            x       y       z     vdW  Elec       q    Type
REMARK                         _______ _______ _______ _____ _____    ______ ____
ROOT
ATOM      1  C   UNL     1       1.323   8.087  20.418  0.00  0.00    +0.000 A 
ATOM      2  C   UNL     1       1.639   8.999  19.427  0.00  0.00    +0.000 A 
ATOM      3  S   UNL     1       2.456   8.320  18.100  0.00  0.00    +0.000 S 
ATOM      4  C   UNL     1       2.591   6.823  18.886  0.00  0.00    +0.000 A 
ATOM      5  C   UNL     1       1.937   6.812  20.108  0.00  0.00    +0.000 A 
ATOM      6  C   UNL     1       1.847   5.536  20.904  0.00  0.00    +0.000 C 
ATOM      7  C   UNL     1       2.911   4.531  20.432  0.00  0.00    +0.000 C 
ATOM      8  N   UNL     1       2.930   4.429  18.962  0.00  0.00    +0.000 N 
ATOM      9  C   UNL     1       2.548   3.236  18.378  0.00  0.00    +0.000 C 
ATOM     10  C   UNL     1       2.603   3.079  16.879  0.00  0.00    +0.000 C 
ATOM     11  O   UNL     1       2.157   2.277  19.051  0.00  0.00    +0.000 OA
ATOM     12  C   UNL     1       3.308   5.663  18.258  0.00  0.00    +0.000 C 
ENDROOT
BRANCH   2  13
ATOM     13  N   UNL     1       1.393  10.346  19.249  0.00  0.00    +0.000 N 
ATOM     14  C   UNL     1       0.102  10.799  19.001  0.00  0.00    +0.000 C 
ATOM     15  O   UNL     1      -0.878  10.064  18.898  0.00  0.00    +0.000 OA
ATOM     16  H   UNL     1       2.011  10.963  19.755  0.00  0.00    +0.000 HD
BRANCH  14  17
ATOM     17  C   UNL     1      -0.012  12.338  18.890  0.00  0.00    +0.000 C 
ATOM     18  C   UNL     1       1.338  12.921  18.446  0.00  0.00    +0.000 C 
ATOM     19  C   UNL     1      -1.076  12.707  17.840  0.00  0.00    +0.000 C 
ATOM     20  C   UNL     1      -0.438  12.953  20.234  0.00  0.00    +0.000 C 
ENDBRANCH  14  17
ENDBRANCH   2  13
BRANCH   1  21
ATOM     21  C   UNL     1       0.391   8.315  21.530  0.00  0.00    +0.000 C 
ATOM     22  O   UNL     1      -0.717   7.800  21.583  0.00  0.00    +0.000 OA
BRANCH  21  23
ATOM     23  O   UNL     1       0.805   9.312  22.360  0.00  0.00    +0.000 OA
BRANCH  23  25
ATOM     24  C   UNL     1      -0.926  10.781  23.034  0.00  0.00    +0.000 C 
ATOM     25  C   UNL     1      -0.047   9.622  23.466  0.00  0.00    +0.000 C 
ENDBRANCH  23  25
ENDBRANCH  21  23
ENDBRANCH   1  21
TORSDOF 5
ENDMDL
MODEL 4
REMARK VINA RESULT:      -6.1      2.432      7.166
REMARK  Name = 
REMARK  10 active torsions:
REMARK  status: ('A' for Active; 'I' for Inactive)
REMARK    1  A    between atoms: C_1  and  C_2
REMARK    2  A    between atoms: C_2  and  O_3
REMARK    3  A    between atoms: O_3  and  C_4
REMARK    4  A    between atoms: C_4  and  C_6
REMARK    5  A    between atoms: C_7  and  N_8
REMARK    6  A    between atoms: C_9  and  C_11
REMARK    7  A    between atoms: C_11  and  C_12
REMARK    8  A    between atoms: C_11  and  C_13
REMARK    9  A    between atoms: C_11  and  C_14
REMARK   10  A    between atoms: C_21  and  C_22
REMARK                            x       y       z     vdW  Elec       q    Type
REMARK                         _______ _______ _______ _____ _____    ______ ____
ROOT
ATOM      1  C   UNL     1       1.172   8.326  20.483  0.00  0.00    +0.000 A 
ATOM      2  C   UNL     1       1.352   9.302  19.518  0.00  0.00    +0.000 A 
ATOM      3  S   UNL     1       2.154   8.753  18.124  0.00  0.00    +0.000 S 
ATOM      4  C   UNL     1       2.464   7.245  18.836  0.00  0.00    +0.000 A 
ATOM      5  C   UNL     1       1.880   7.126  20.087  0.00  0.00    +0.000 A 
ATOM      6  C   UNL     1       1.948   5.817  20.831  0.00  0.00    +0.000 C 
ATOM      7  C   UNL     1       3.071   4.934  20.263  0.00  0.00    +0.000 C 
ATOM      8  N   UNL     1       3.020   4.891  18.791  0.00  0.00    +0.000 N 
ATOM      9  C   UNL     1       2.716   3.692  18.175  0.00  0.00    +0.000 C 
ATOM     10  C   UNL     1       2.705   3.599  16.669  0.00  0.00    +0.000 C 
ATOM     11  O   UNL     1       2.449   2.676  18.824  0.00  0.00    +0.000 OA
ATOM     12  C   UNL     1       3.248   6.181  18.124  0.00  0.00    +0.000 C 
ENDROOT
BRANCH   2  13
ATOM     13  N   UNL     1       0.976  10.626  19.411  0.00  0.00    +0.000 N 
ATOM     14  C   UNL     1      -0.357  10.967  19.215  0.00  0.00    +0.000 C 
ATOM     15  O   UNL     1      -1.267  10.148  19.099  0.00  0.00    +0.000 OA
ATOM     16  H   UNL     1       1.548  11.275  19.933  0.00  0.00    +0.000 HD
BRANCH  14  17
ATOM     17  C   UNL     1      -0.616  12.492  19.181  0.00  0.00    +0.000 C 
ATOM     18  C   UNL     1      -2.002  12.789  19.772  0.00  0.00    +0.000 C 
ATOM     19  C   UNL     1       0.445  13.219  20.027  0.00  0.00    +0.000 C 
ATOM     20  C   UNL     1      -0.528  13.031  17.743  0.00  0.00    +0.000 C 
ENDBRANCH  14  17
ENDBRANCH   2  13
BRANCH   1  21
ATOM     21  C   UNL     1       0.284   8.425  21.649  0.00  0.00    +0.000 C 
ATOM     22  O   UNL     1      -0.774   7.817  21.730  0.00  0.00    +0.000 OA
BRANCH  21  23
ATOM     23  O   UNL     1       0.658   9.414  22.507  0.00  0.00    +0.000 OA
BRANCH  23  25
ATOM     24  C   UNL     1      -0.928  11.134  22.871  0.00  0.00    +0.000 C 
ATOM     25  C   UNL     1      -0.329   9.862  23.440  0.00  0.00    +0.000 C 
ENDBRANCH  23  25
ENDBRANCH  21  23
ENDBRANCH   1  21
TORSDOF 5
ENDMDL
MODEL 5
REMARK VINA RESULT:      -6.1      1.741      6.629
REMARK  Name = 
REMARK  10 active torsions:
REMARK  status: ('A' for Active; 'I' for Inactive)
REMARK    1  A    between atoms: C_1  and  C_2
REMARK    2  A    between atoms: C_2  and  O_3
REMARK    3  A    between atoms: O_3  and  C_4
REMARK    4  A    between atoms: C_4  and  C_6
REMARK    5  A    between atoms: C_7  and  N_8
REMARK    6  A    between atoms: C_9  and  C_11
REMARK    7  A    between atoms: C_11  and  C_12
REMARK    8  A    between atoms: C_11  and  C_13
REMARK    9  A    between atoms: C_11  and  C_14
REMARK   10  A    between atoms: C_21  and  C_22
REMARK                            x       y       z     vdW  Elec       q    Type
REMARK                         _______ _______ _______ _____ _____    ______ ____
ROOT
ATOM      1  C   UNL     1       2.564   6.076  19.474  0.00  0.00    +0.000 A 
ATOM      2  C   UNL     1       2.184   7.358  19.121  0.00  0.00    +0.000 A 
ATOM      3  S   UNL     1       3.031   7.985  17.787  0.00  0.00    +0.000 S 
ATOM      4  C   UNL     1       4.070   6.644  17.755  0.00  0.00    +0.000 A 
ATOM      5  C   UNL     1       3.716   5.684  18.689  0.00  0.00    +0.000 A 
ATOM      6  C   UNL     1       4.451   4.370  18.736  0.00  0.00    +0.000 C 
ATOM      7  C   UNL     1       5.806   4.485  18.018  0.00  0.00    +0.000 C 
ATOM      8  N   UNL     1       5.659   5.149  16.711  0.00  0.00    +0.000 N 
ATOM      9  C   UNL     1       5.902   4.414  15.565  0.00  0.00    +0.000 C 
ATOM     10  C   UNL     1       5.811   5.074  14.212  0.00  0.00    +0.000 C 
ATOM     11  O   UNL     1       6.198   3.216  15.611  0.00  0.00    +0.000 OA
ATOM     12  C   UNL     1       5.199   6.544  16.770  0.00  0.00    +0.000 C 
ENDROOT
BRANCH   2  13
ATOM     13  N   UNL     1       1.224   8.237  19.583  0.00  0.00    +0.000 N 
ATOM     14  C   UNL     1       1.266   8.701  20.892  0.00  0.00    +0.000 C 
ATOM     15  O   UNL     1       2.112   8.360  21.717  0.00  0.00    +0.000 OA
ATOM     16  H   UNL     1       0.843   8.858  18.883  0.00  0.00    +0.000 HD
BRANCH  14  17
ATOM     17  C   UNL     1       0.158   9.728  21.230  0.00  0.00    +0.000 C 
ATOM     18  C   UNL     1      -0.527   9.327  22.545  0.00  0.00    +0.000 C 
ATOM     19  C   UNL     1       0.780  11.125  21.405  0.00  0.00    +0.000 C 
ATOM     20  C   UNL     1      -0.877   9.807  20.095  0.00  0.00    +0.000 C 
ENDBRANCH  14  17
ENDBRANCH   2  13
BRANCH   1  21
ATOM     21  C   UNL     1       1.833   5.185  20.386  0.00  0.00    +0.000 C 
ATOM     22  O   UNL     1       2.159   5.015  21.552  0.00  0.00    +0.000 OA
BRANCH  21  23
ATOM     23  O   UNL     1       0.908   4.422  19.738  0.00  0.00    +0.000 OA
BRANCH  23  25
ATOM     24  C   UNL     1       1.125   2.307  18.696  0.00  0.00    +0.000 C 
ATOM     25  C   UNL     1       0.922   3.021  20.020  0.00  0.00    +0.000 C 
ENDBRANCH  23  25
ENDBRANCH  21  23
ENDBRANCH   1  21
TORSDOF 5
ENDMDL
MODEL 6
REMARK VINA RESULT:      -6.1      2.200      6.795
REMARK  Name = 
REMARK  10 active torsions:
REMARK  status: ('A' for Active; 'I' for Inactive)
REMARK    1  A    between atoms: C_1  and  C_2
REMARK    2  A    between atoms: C_2  and  O_3
REMARK    3  A    between atoms: O_3  and  C_4
REMARK    4  A    between atoms: C_4  and  C_6
REMARK    5  A    between atoms: C_7  and  N_8
REMARK    6  A    between atoms: C_9  and  C_11
REMARK    7  A    between atoms: C_11  and  C_12
REMARK    8  A    between atoms: C_11  and  C_13
REMARK    9  A    between atoms: C_11  and  C_14
REMARK   10  A    between atoms: C_21  and  C_22
REMARK                            x       y       z     vdW  Elec       q    Type
REMARK                         _______ _______ _______ _____ _____    ______ ____
ROOT
ATOM      1  C   UNL     1       2.855   5.473  18.043  0.00  0.00    +0.000 A 
ATOM      2  C   UNL     1       3.024   6.818  18.320  0.00  0.00    +0.000 A 
ATOM      3  S   UNL     1       4.388   7.509  17.578  0.00  0.00    +0.000 S 
ATOM      4  C   UNL     1       4.911   5.995  17.018  0.00  0.00    +0.000 A 
ATOM      5  C   UNL     1       4.007   4.987  17.311  0.00  0.00    +0.000 A 
ATOM      6  C   UNL     1       4.240   3.591  16.796  0.00  0.00    +0.000 C 
ATOM      7  C   UNL     1       5.713   3.404  16.396  0.00  0.00    +0.000 C 
ATOM      8  N   UNL     1       6.187   4.532  15.575  0.00  0.00    +0.000 N 
ATOM      9  C   UNL     1       6.523   4.294  14.256  0.00  0.00    +0.000 C 
ATOM     10  C   UNL     1       7.060   5.414  13.400  0.00  0.00    +0.000 C 
ATOM     11  O   UNL     1       6.398   3.177  13.744  0.00  0.00    +0.000 OA
ATOM     12  C   UNL     1       6.194   5.836  16.255  0.00  0.00    +0.000 C 
ENDROOT
BRANCH   2  13
ATOM     13  N   UNL     1       2.297   7.750  19.034  0.00  0.00    +0.000 N 
ATOM     14  C   UNL     1       1.681   8.812  18.383  0.00  0.00    +0.000 C 
ATOM     15  O   UNL     1       1.755   9.013  17.172  0.00  0.00    +0.000 OA
ATOM     16  H   UNL     1       1.848   7.394  19.866  0.00  0.00    +0.000 HD
BRANCH  14  17
ATOM     17  C   UNL     1       0.853   9.727  19.317  0.00  0.00    +0.000 C 
ATOM     18  C   UNL     1       0.833   9.130  20.732  0.00  0.00    +0.000 C 
ATOM     19  C   UNL     1       1.497  11.124  19.381  0.00  0.00    +0.000 C 
ATOM     20  C   UNL     1      -0.583   9.889  18.791  0.00  0.00    +0.000 C 
ENDBRANCH  14  17
ENDBRANCH   2  13
BRANCH   1  21
ATOM     21  C   UNL     1       1.640   4.689  18.305  0.00  0.00    +0.000 C 
ATOM     22  O   UNL     1       0.963   4.198  17.413  0.00  0.00    +0.000 OA
BRANCH  21  23
ATOM     23  O   UNL     1       1.247   4.756  19.607  0.00  0.00    +0.000 OA
BRANCH  23  25
ATOM     24  C   UNL     1       1.299   2.863  21.027  0.00  0.00    +0.000 C 
ATOM     25  C   UNL     1       2.071   4.084  20.562  0.00  0.00    +0.000 C 
ENDBRANCH  23  25
ENDBRANCH  21  23
ENDBRANCH   1  21
TORSDOF 5
ENDMDL
MODEL 7
REMARK VINA RESULT:      -6.0      2.186      4.106
REMARK  Name = 
REMARK  10 active torsions:
REMARK  status: ('A' for Active; 'I' for Inactive)
REMARK    1  A    between atoms: C_1  and  C_2
REMARK    2  A    between atoms: C_2  and  O_3
REMARK    3  A    between atoms: O_3  and  C_4
REMARK    4  A    between atoms: C_4  and  C_6
REMARK    5  A    between atoms: C_7  and  N_8
REMARK    6  A    between atoms: C_9  and  C_11
REMARK    7  A    between atoms: C_11  and  C_12
REMARK    8  A    between atoms: C_11  and  C_13
REMARK    9  A    between atoms: C_11  and  C_14
REMARK   10  A    between atoms: C_21  and  C_22
REMARK                            x       y       z     vdW  Elec       q    Type
REMARK                         _______ _______ _______ _____ _____    ______ ____
ROOT
ATOM      1  C   UNL     1       2.578   7.751  18.853  0.00  0.00    +0.000 A 
ATOM      2  C   UNL     1       2.184   6.934  19.897  0.00  0.00    +0.000 A 
ATOM      3  S   UNL     1       0.965   7.604  20.874  0.00  0.00    +0.000 S 
ATOM      4  C   UNL     1       1.057   9.087  20.055  0.00  0.00    +0.000 A 
ATOM      5  C   UNL     1       1.938   9.043  18.988  0.00  0.00    +0.000 A 
ATOM      6  C   UNL     1       2.071  10.230  18.069  0.00  0.00    +0.000 C 
ATOM      7  C   UNL     1       1.524  11.498  18.745  0.00  0.00    +0.000 C 
ATOM      8  N   UNL     1       0.210  11.245  19.363  0.00  0.00    +0.000 N 
ATOM      9  C   UNL     1      -0.899  11.885  18.843  0.00  0.00    +0.000 C 
ATOM     10  C   UNL     1      -2.251  11.690  19.481  0.00  0.00    +0.000 C 
ATOM     11  O   UNL     1      -0.820  12.626  17.858  0.00  0.00    +0.000 OA
ATOM     12  C   UNL     1       0.217  10.265  20.458  0.00  0.00    +0.000 C 
ENDROOT
BRANCH   2  13
ATOM     13  N   UNL     1       2.528   5.659  20.302  0.00  0.00    +0.000 N 
ATOM     14  C   UNL     1       2.037   4.549  19.624  0.00  0.00    +0.000 C 
ATOM     15  O   UNL     1       1.269   4.611  18.666  0.00  0.00    +0.000 OA
ATOM     16  H   UNL     1       3.442   5.578  20.724  0.00  0.00    +0.000 HD
BRANCH  14  17
ATOM     17  C   UNL     1       2.569   3.199  20.162  0.00  0.00    +0.000 C 
ATOM     18  C   UNL     1       2.190   3.054  21.644  0.00  0.00    +0.000 C 
ATOM     19  C   UNL     1       1.934   2.039  19.375  0.00  0.00    +0.000 C 
ATOM     20  C   UNL     1       4.096   3.107  19.995  0.00  0.00    +0.000 C 
ENDBRANCH  14  17
ENDBRANCH   2  13
BRANCH   1  21
ATOM     21  C   UNL     1       3.391   7.338  17.700  0.00  0.00    +0.000 C 
ATOM     22  O   UNL     1       3.170   7.723  16.561  0.00  0.00    +0.000 OA
BRANCH  21  23
ATOM     23  O   UNL     1       4.258   6.333  18.007  0.00  0.00    +0.000 OA
BRANCH  23  25
ATOM     24  C   UNL     1       4.375   4.361  16.703  0.00  0.00    +0.000 C 
ATOM     25  C   UNL     1       4.967   5.742  16.916  0.00  0.00    +0.000 C 
ENDBRANCH  23  25
ENDBRANCH  21  23
ENDBRANCH   1  21
TORSDOF 5
ENDMDL
MODEL 8
REMARK VINA RESULT:      -5.8      2.284      7.111
REMARK  Name = 
REMARK  10 active torsions:
REMARK  status: ('A' for Active; 'I' for Inactive)
REMARK    1  A    between atoms: C_1  and  C_2
REMARK    2  A    between atoms: C_2  and  O_3
REMARK    3  A    between atoms: O_3  and  C_4
REMARK    4  A    between atoms: C_4  and  C_6
REMARK    5  A    between atoms: C_7  and  N_8
REMARK    6  A    between atoms: C_9  and  C_11
REMARK    7  A    between atoms: C_11  and  C_12
REMARK    8  A    between atoms: C_11  and  C_13
REMARK    9  A    between atoms: C_11  and  C_14
REMARK   10  A    between atoms: C_21  and  C_22
REMARK                            x       y       z     vdW  Elec       q    Type
REMARK                         _______ _______ _______ _____ _____    ______ ____
ROOT
ATOM      1  C   UNL     1       1.024   8.606  20.321  0.00  0.00    +0.000 A 
ATOM      2  C   UNL     1       1.121   9.540  19.305  0.00  0.00    +0.000 A 
ATOM      3  S   UNL     1       1.976   8.989  17.943  0.00  0.00    +0.000 S 
ATOM      4  C   UNL     1       2.415   7.556  18.737  0.00  0.00    +0.000 A 
ATOM      5  C   UNL     1       1.838   7.454  19.992  0.00  0.00    +0.000 A 
ATOM      6  C   UNL     1       2.017   6.199  20.806  0.00  0.00    +0.000 C 
ATOM      7  C   UNL     1       3.218   5.389  20.288  0.00  0.00    +0.000 C 
ATOM      8  N   UNL     1       3.179   5.262  18.820  0.00  0.00    +0.000 N 
ATOM      9  C   UNL     1       2.985   4.009  18.270  0.00  0.00    +0.000 C 
ATOM     10  C   UNL     1       2.991   3.833  16.772  0.00  0.00    +0.000 C 
ATOM     11  O   UNL     1       2.807   3.010  18.974  0.00  0.00    +0.000 OA
ATOM     12  C   UNL     1       3.295   6.529  18.084  0.00  0.00    +0.000 C 
ENDROOT
BRANCH   2  13
ATOM     13  N   UNL     1       0.630  10.817  19.125  0.00  0.00    +0.000 N 
ATOM     14  C   UNL     1       1.133  11.876  19.873  0.00  0.00    +0.000 C 
ATOM     15  O   UNL     1       2.000  11.759  20.736  0.00  0.00    +0.000 OA
ATOM     16  H   UNL     1       0.307  11.023  18.191  0.00  0.00    +0.000 HD
BRANCH  14  17
ATOM     17  C   UNL     1       0.522  13.250  19.504  0.00  0.00    +0.000 C 
ATOM     18  C   UNL     1      -0.773  13.038  18.707  0.00  0.00    +0.000 C 
ATOM     19  C   UNL     1       0.188  14.032  20.787  0.00  0.00    +0.000 C 
ATOM     20  C   UNL     1       1.518  14.088  18.683  0.00  0.00    +0.000 C 
ENDBRANCH  14  17
ENDBRANCH   2  13
BRANCH   1  21
ATOM     21  C   UNL     1       0.124   8.689  21.480  0.00  0.00    +0.000 C 
ATOM     22  O   UNL     1      -0.913   8.046  21.561  0.00  0.00    +0.000 OA
BRANCH  21  23
ATOM     23  O   UNL     1       0.458   9.700  22.328  0.00  0.00    +0.000 OA
BRANCH  23  25
ATOM     24  C   UNL     1      -1.172  11.339  22.838  0.00  0.00    +0.000 C 
ATOM     25  C   UNL     1      -0.513  10.058  23.314  0.00  0.00    +0.000 C 
ENDBRANCH  23  25
ENDBRANCH  21  23
ENDBRANCH   1  21
TORSDOF 5
ENDMDL
MODEL 9
REMARK VINA RESULT:      -5.8      1.935      6.577
REMARK  Name = 
REMARK  10 active torsions:
REMARK  status: ('A' for Active; 'I' for Inactive)
REMARK    1  A    between atoms: C_1  and  C_2
REMARK    2  A    between atoms: C_2  and  O_3
REMARK    3  A    between atoms: O_3  and  C_4
REMARK    4  A    between atoms: C_4  and  C_6
REMARK    5  A    between atoms: C_7  and  N_8
REMARK    6  A    between atoms: C_9  and  C_11
REMARK    7  A    between atoms: C_11  and  C_12
REMARK    8  A    between atoms: C_11  and  C_13
REMARK    9  A    between atoms: C_11  and  C_14
REMARK   10  A    between atoms: C_21  and  C_22
REMARK                            x       y       z     vdW  Elec       q    Type
REMARK                         _______ _______ _______ _____ _____    ______ ____
ROOT
ATOM      1  C   UNL     1       2.760   6.047  19.484  0.00  0.00    +0.000 A 
ATOM      2  C   UNL     1       2.471   7.367  19.187  0.00  0.00    +0.000 A 
ATOM      3  S   UNL     1       3.320   7.973  17.845  0.00  0.00    +0.000 S 
ATOM      4  C   UNL     1       4.249   6.558  17.731  0.00  0.00    +0.000 A 
ATOM      5  C   UNL     1       3.851   5.596  18.645  0.00  0.00    +0.000 A 
ATOM      6  C   UNL     1       4.481   4.227  18.623  0.00  0.00    +0.000 C 
ATOM      7  C   UNL     1       5.816   4.262  17.861  0.00  0.00    +0.000 C 
ATOM      8  N   UNL     1       5.679   4.981  16.582  0.00  0.00    +0.000 N 
ATOM      9  C   UNL     1       5.825   4.271  15.406  0.00  0.00    +0.000 C 
ATOM     10  C   UNL     1       5.742   4.984  14.079  0.00  0.00    +0.000 C 
ATOM     11  O   UNL     1       6.027   3.053  15.402  0.00  0.00    +0.000 OA
ATOM     12  C   UNL     1       5.333   6.405  16.704  0.00  0.00    +0.000 C 
ENDROOT
BRANCH   2  13
ATOM     13  N   UNL     1       1.600   8.301  19.711  0.00  0.00    +0.000 N 
ATOM     14  C   UNL     1       0.986   9.234  18.884  0.00  0.00    +0.000 C 
ATOM     15  O   UNL     1       1.183   9.316  17.673  0.00  0.00    +0.000 OA
ATOM     16  H   UNL     1       1.086   7.995  20.525  0.00  0.00    +0.000 HD
BRANCH  14  17
ATOM     17  C   UNL     1      -0.009  10.165  19.618  0.00  0.00    +0.000 C 
ATOM     18  C   UNL     1       0.627  11.550  19.805  0.00  0.00    +0.000 C 
ATOM     19  C   UNL     1      -1.291  10.321  18.779  0.00  0.00    +0.000 C 
ATOM     20  C   UNL     1      -0.404   9.575  20.983  0.00  0.00    +0.000 C 
ENDBRANCH  14  17
ENDBRANCH   2  13
BRANCH   1  21
ATOM     21  C   UNL     1       1.991   5.184  20.391  0.00  0.00    +0.000 C 
ATOM     22  O   UNL     1       2.324   4.975  21.549  0.00  0.00    +0.000 OA
BRANCH  21  23
ATOM     23  O   UNL     1       1.015   4.488  19.745  0.00  0.00    +0.000 OA
BRANCH  23  25
ATOM     24  C   UNL     1       0.945   2.367  18.696  0.00  0.00    +0.000 C 
ATOM     25  C   UNL     1       0.929   3.090  20.030  0.00  0.00    +0.000 C 
ENDBRANCH  23  25
ENDBRANCH  21  23
ENDBRANCH   1  21
TORSDOF 5
ENDMDL
