MODEL 1
REMARK VINA RESULT:      -6.5      0.000      0.000
REMARK  Name = 
REMARK  7 active torsions:
REMARK  status: ('A' for Active; 'I' for Inactive)
REMARK    1  A    between atoms: C_1  and  S_2
REMARK    2  A    between atoms: S_2  and  C_3
REMARK    3  A    between atoms: C_8  and  C_9
REMARK    4  A    between atoms: N_11  and  C1*_12
REMARK    5  A    between atoms: C3*_14  and  O3*_15
REMARK    6  A    between atoms: C4*_16  and  C5*_17
REMARK    7  A    between atoms: C5*_17  and  O5*_18
REMARK                            x       y       z     vdW  Elec       q    Type
REMARK                         _______ _______ _______ _____ _____    ______ ____
ROOT
ATOM      1  C   UNL     1       4.914   5.669  16.695  0.00  0.00    +0.000 A 
ATOM      2  N   UNL     1       4.539   6.912  16.504  0.00  0.00    +0.000 NA
ATOM      3  C   UNL     1       3.646   7.143  17.492  0.00  0.00    +0.000 A 
ATOM      4  S   UNL     1       2.653   8.480  17.961  0.00  0.00    +0.000 S 
ATOM      5  N   UNL     1       1.955   7.660  19.246  0.00  0.00    +0.000 NA
ATOM      6  C   UNL     1       2.480   6.427  19.280  0.00  0.00    +0.000 A 
ATOM      7  C   UNL     1       2.004   5.536  20.361  0.00  0.00    +0.000 C 
ATOM      8  C   UNL     1       3.467   6.059  18.308  0.00  0.00    +0.000 A 
ATOM      9  N   UNL     1       4.328   5.085  17.805  0.00  0.00    +0.000 N 
ENDROOT
BRANCH   9  10
ATOM     10  C1* UNL     1       4.507   3.715  18.265  0.00  0.00    +0.000 C 
ATOM     11  C2* UNL     1       4.495   3.528  19.778  0.00  0.00    +0.000 C 
ATOM     12  C3* UNL     1       4.038   2.098  19.942  0.00  0.00    +0.000 C 
ATOM     13  C4* UNL     1       3.086   1.896  18.766  0.00  0.00    +0.000 C 
ATOM     14  O4* UNL     1       3.479   2.845  17.748  0.00  0.00    +0.000 OA
BRANCH  12  15
ATOM     15  O3* UNL     1       5.173   1.232  19.845  0.00  0.00    +0.000 OA
ATOM     16  H3* UNL     1       5.257   0.707  20.659  0.00  0.00    +0.000 HD
ENDBRANCH  12  15
BRANCH  13  17
ATOM     17  C5* UNL     1       1.618   2.120  19.140  0.00  0.00    +0.000 C 
BRANCH  17  18
ATOM     18  O5* UNL     1       0.949   2.931  18.186  0.00  0.00    +0.000 OA
ATOM     19  H5* UNL     1       0.140   2.462  17.913  0.00  0.00    +0.000 HD
ENDBRANCH  17  18
ENDBRANCH  13  17
ENDBRANCH   9  10
BRANCH   1  21
ATOM     20  C   UNL     1       7.448   4.678  16.738  0.00  0.00    +0.000 C 
ATOM     21  S   UNL     1       6.019   4.855  15.634  0.00  0.00    +0.000 S 
ENDBRANCH   1  21
TORSDOF 5
ENDMDL
MODEL 2
REMARK VINA RESULT:      -6.4      2.751      4.852
REMARK  Name = 
REMARK  7 active torsions:
REMARK  status: ('A' for Active; 'I' for Inactive)
REMARK    1  A    between atoms: C_1  and  S_2
REMARK    2  A    between atoms: S_2  and  C_3
REMARK    3  A    between atoms: C_8  and  C_9
REMARK    4  A    between atoms: N_11  and  C1*_12
REMARK    5  A    between atoms: C3*_14  and  O3*_15
REMARK    6  A    between atoms: C4*_16  and  C5*_17
REMARK    7  A    between atoms: C5*_17  and  O5*_18
REMARK                            x       y       z     vdW  Elec       q    Type
REMARK                         _______ _______ _______ _____ _____    ______ ____
ROOT
ATOM      1  C   UNL     1       3.246   5.840  18.311  0.00  0.00    +0.000 A 
ATOM      2  N   UNL     1       2.098   5.671  18.925  0.00  0.00    +0.000 NA
ATOM      3  C   UNL     1       2.018   4.335  19.114  0.00  0.00    +0.000 A 
ATOM      4  S   UNL     1       0.850   3.259  19.799  0.00  0.00    +0.000 S 
ATOM      5  N   UNL     1       1.752   1.884  19.474  0.00  0.00    +0.000 NA
ATOM      6  C   UNL     1       2.884   2.270  18.868  0.00  0.00    +0.000 A 
ATOM      7  C   UNL     1       3.837   1.199  18.505  0.00  0.00    +0.000 C 
ATOM      8  C   UNL     1       3.113   3.666  18.635  0.00  0.00    +0.000 A 
ATOM      9  N   UNL     1       3.947   4.661  18.128  0.00  0.00    +0.000 N 
ENDROOT
BRANCH   9  10
ATOM     10  C1* UNL     1       5.228   4.505  17.453  0.00  0.00    +0.000 C 
ATOM     11  C2* UNL     1       5.669   5.694  16.608  0.00  0.00    +0.000 C 
ATOM     12  C3* UNL     1       7.174   5.570  16.601  0.00  0.00    +0.000 C 
ATOM     13  C4* UNL     1       7.484   4.975  17.971  0.00  0.00    +0.000 C 
ATOM     14  O4* UNL     1       6.295   4.267  18.394  0.00  0.00    +0.000 OA
BRANCH  12  15
ATOM     15  O3* UNL     1       7.563   4.680  15.549  0.00  0.00    +0.000 OA
ATOM     16  H3* UNL     1       8.145   3.986  15.903  0.00  0.00    +0.000 HD
ENDBRANCH  12  15
BRANCH  13  17
ATOM     17  C5* UNL     1       7.852   6.035  19.014  0.00  0.00    +0.000 C 
BRANCH  17  18
ATOM     18  O5* UNL     1       7.913   5.487  20.323  0.00  0.00    +0.000 OA
ATOM     19  H5* UNL     1       7.023   5.164  20.551  0.00  0.00    +0.000 HD
ENDBRANCH  17  18
ENDBRANCH  13  17
ENDBRANCH   9  10
BRANCH   1  21
ATOM     20  C   UNL     1       2.245   8.333  17.875  0.00  0.00    +0.000 C 
ATOM     21  S   UNL     1       3.796   7.396  17.775  0.00  0.00    +0.000 S 
ENDBRANCH   1  21
TORSDOF 5
ENDMDL
MODEL 3
REMARK VINA RESULT:      -6.2      2.485      4.404
REMARK  Name = 
REMARK  7 active torsions:
REMARK  status: ('A' for Active; 'I' for Inactive)
REMARK    1  A    between atoms: C_1  and  S_2
REMARK    2  A    between atoms: S_2  and  C_3
REMARK    3  A    between atoms: C_8  and  C_9
REMARK    4  A    between atoms: N_11  and  C1*_12
REMARK    5  A    between atoms: C3*_14  and  O3*_15
REMARK    6  A    between atoms: C4*_16  and  C5*_17
REMARK    7  A    between atoms: C5*_17  and  O5*_18
REMARK                            x       y       z     vdW  Elec       q    Type
REMARK                         _______ _______ _______ _____ _____    ______ ____
ROOT
ATOM      1  C   UNL     1       3.981   3.769  17.237  0.00  0.00    +0.000 A 
ATOM      2  N   UNL     1       4.709   3.360  16.224  0.00  0.00    +0.000 NA
ATOM      3  C   UNL     1       5.670   4.303  16.106  0.00  0.00    +0.000 A 
ATOM      4  S   UNL     1       7.001   4.572  15.034  0.00  0.00    +0.000 S 
ATOM      5  N   UNL     1       7.458   6.005  15.773  0.00  0.00    +0.000 NA
ATOM      6  C   UNL     1       6.608   6.235  16.785  0.00  0.00    +0.000 A 
ATOM      7  C   UNL     1       6.847   7.456  17.585  0.00  0.00    +0.000 C 
ATOM      8  C   UNL     1       5.558   5.294  17.044  0.00  0.00    +0.000 A 
ATOM      9  N   UNL     1       4.458   4.931  17.819  0.00  0.00    +0.000 N 
ENDROOT
BRANCH   9  10
ATOM     10  C1* UNL     1       3.860   5.657  18.931  0.00  0.00    +0.000 C 
ATOM     11  C2* UNL     1       2.431   6.137  18.705  0.00  0.00    +0.000 C 
ATOM     12  C3* UNL     1       1.873   6.220  20.106  0.00  0.00    +0.000 C 
ATOM     13  C4* UNL     1       2.587   5.088  20.837  0.00  0.00    +0.000 C 
ATOM     14  O4* UNL     1       3.826   4.854  20.129  0.00  0.00    +0.000 OA
BRANCH  12  15
ATOM     15  O3* UNL     1       2.210   7.494  20.666  0.00  0.00    +0.000 OA
ATOM     16  H3* UNL     1       3.158   7.516  20.885  0.00  0.00    +0.000 HD
ENDBRANCH  12  15
BRANCH  13  17
ATOM     17  C5* UNL     1       1.767   3.795  20.883  0.00  0.00    +0.000 C 
BRANCH  17  18
ATOM     18  O5* UNL     1       2.128   2.981  21.990  0.00  0.00    +0.000 OA
ATOM     19  H5* UNL     1       2.017   3.513  22.798  0.00  0.00    +0.000 HD
ENDBRANCH  17  18
ENDBRANCH  13  17
ENDBRANCH   9  10
BRANCH   1  21
ATOM     20  C   UNL     1       3.313   1.499  18.580  0.00  0.00    +0.000 C 
ATOM     21  S   UNL     1       2.556   2.929  17.760  0.00  0.00    +0.000 S 
ENDBRANCH   1  21
TORSDOF 5
ENDMDL
MODEL 4
REMARK VINA RESULT:      -6.1      2.867      4.952
REMARK  Name = 
REMARK  7 active torsions:
REMARK  status: ('A' for Active; 'I' for Inactive)
REMARK    1  A    between atoms: C_1  and  S_2
REMARK    2  A    between atoms: S_2  and  C_3
REMARK    3  A    between atoms: C_8  and  C_9
REMARK    4  A    between atoms: N_11  and  C1*_12
REMARK    5  A    between atoms: C3*_14  and  O3*_15
REMARK    6  A    between atoms: C4*_16  and  C5*_17
REMARK    7  A    between atoms: C5*_17  and  O5*_18
REMARK                            x       y       z     vdW  Elec       q    Type
REMARK                         _______ _______ _______ _____ _____    ______ ____
ROOT
ATOM      1  C   UNL     1       3.204   5.905  18.313  0.00  0.00    +0.000 A 
ATOM      2  N   UNL     1       2.115   5.776  19.034  0.00  0.00    +0.000 NA
ATOM      3  C   UNL     1       2.014   4.445  19.246  0.00  0.00    +0.000 A 
ATOM      4  S   UNL     1       0.885   3.412  20.052  0.00  0.00    +0.000 S 
ATOM      5  N   UNL     1       1.711   2.007  19.660  0.00  0.00    +0.000 NA
ATOM      6  C   UNL     1       2.792   2.353  18.945  0.00  0.00    +0.000 A 
ATOM      7  C   UNL     1       3.675   1.250  18.508  0.00  0.00    +0.000 C 
ATOM      8  C   UNL     1       3.039   3.739  18.675  0.00  0.00    +0.000 A 
ATOM      9  N   UNL     1       3.850   4.703  18.079  0.00  0.00    +0.000 N 
ENDROOT
BRANCH   9  10
ATOM     10  C1* UNL     1       5.057   4.503  17.289  0.00  0.00    +0.000 C 
ATOM     11  C2* UNL     1       5.204   5.419  16.079  0.00  0.00    +0.000 C 
ATOM     12  C3* UNL     1       6.699   5.479  15.877  0.00  0.00    +0.000 C 
ATOM     13  C4* UNL     1       7.251   5.375  17.295  0.00  0.00    +0.000 C 
ATOM     14  O4* UNL     1       6.246   4.695  18.082  0.00  0.00    +0.000 OA
BRANCH  12  15
ATOM     15  O3* UNL     1       7.106   4.362  15.079  0.00  0.00    +0.000 OA
ATOM     16  H3* UNL     1       6.335   3.985  14.623  0.00  0.00    +0.000 HD
ENDBRANCH  12  15
BRANCH  13  17
ATOM     17  C5* UNL     1       7.557   6.740  17.919  0.00  0.00    +0.000 C 
BRANCH  17  18
ATOM     18  O5* UNL     1       7.695   7.752  16.932  0.00  0.00    +0.000 OA
ATOM     19  H5* UNL     1       7.309   8.570  17.290  0.00  0.00    +0.000 HD
ENDBRANCH  17  18
ENDBRANCH  13  17
ENDBRANCH   9  10
BRANCH   1  21
ATOM     20  C   UNL     1       2.225   8.410  17.899  0.00  0.00    +0.000 C 
ATOM     21  S   UNL     1       3.746   7.438  17.708  0.00  0.00    +0.000 S 
ENDBRANCH   1  21
TORSDOF 5
ENDMDL
MODEL 5
REMARK VINA RESULT:      -6.0      1.947      2.462
REMARK  Name = 
REMARK  7 active torsions:
REMARK  status: ('A' for Active; 'I' for Inactive)
REMARK    1  A    between atoms: C_1  and  S_2
REMARK    2  A    between atoms: S_2  and  C_3
REMARK    3  A    between atoms: C_8  and  C_9
REMARK    4  A    between atoms: N_11  and  C1*_12
REMARK    5  A    between atoms: C3*_14  and  O3*_15
REMARK    6  A    between atoms: C4*_16  and  C5*_17
REMARK    7  A    between atoms: C5*_17  and  O5*_18
REMARK                            x       y       z     vdW  Elec       q    Type
REMARK                         _______ _______ _______ _____ _____    ______ ____
ROOT
ATOM      1  C   UNL     1       3.482   6.256  17.959  0.00  0.00    +0.000 A 
ATOM      2  N   UNL     1       3.320   7.381  17.303  0.00  0.00    +0.000 NA
ATOM      3  C   UNL     1       2.560   8.137  18.126  0.00  0.00    +0.000 A 
ATOM      4  S   UNL     1       1.858   9.716  18.045  0.00  0.00    +0.000 S 
ATOM      5  N   UNL     1       1.126   9.596  19.548  0.00  0.00    +0.000 NA
ATOM      6  C   UNL     1       1.426   8.391  20.056  0.00  0.00    +0.000 A 
ATOM      7  C   UNL     1       0.884   8.086  21.398  0.00  0.00    +0.000 C 
ATOM      8  C   UNL     1       2.255   7.499  19.299  0.00  0.00    +0.000 A 
ATOM      9  N   UNL     1       2.889   6.261  19.209  0.00  0.00    +0.000 N 
ENDROOT
BRANCH   9  10
ATOM     10  C1* UNL     1       2.857   5.161  20.163  0.00  0.00    +0.000 C 
ATOM     11  C2* UNL     1       1.466   4.691  20.571  0.00  0.00    +0.000 C 
ATOM     12  C3* UNL     1       1.694   3.251  20.965  0.00  0.00    +0.000 C 
ATOM     13  C4* UNL     1       2.814   2.804  20.031  0.00  0.00    +0.000 C 
ATOM     14  O4* UNL     1       3.537   3.997  19.651  0.00  0.00    +0.000 OA
BRANCH  12  15
ATOM     15  O3* UNL     1       2.110   3.203  22.334  0.00  0.00    +0.000 OA
ATOM     16  H3* UNL     1       1.345   3.353  22.916  0.00  0.00    +0.000 HD
ENDBRANCH  12  15
BRANCH  13  17
ATOM     17  C5* UNL     1       2.298   2.092  18.777  0.00  0.00    +0.000 C 
BRANCH  17  18
ATOM     18  O5* UNL     1       3.278   1.228  18.220  0.00  0.00    +0.000 OA
ATOM     19  H5* UNL     1       2.813   0.488  17.791  0.00  0.00    +0.000 HD
ENDBRANCH  17  18
ENDBRANCH  13  17
ENDBRANCH   9  10
BRANCH   1  21
ATOM     20  C   UNL     1       5.291   5.741  15.992  0.00  0.00    +0.000 C 
ATOM     21  S   UNL     1       4.342   4.904  17.292  0.00  0.00    +0.000 S 
ENDBRANCH   1  21
TORSDOF 5
ENDMDL
MODEL 6
REMARK VINA RESULT:      -6.0      2.671      4.466
REMARK  Name = 
REMARK  7 active torsions:
REMARK  status: ('A' for Active; 'I' for Inactive)
REMARK    1  A    between atoms: C_1  and  S_2
REMARK    2  A    between atoms: S_2  and  C_3
REMARK    3  A    between atoms: C_8  and  C_9
REMARK    4  A    between atoms: N_11  and  C1*_12
REMARK    5  A    between atoms: C3*_14  and  O3*_15
REMARK    6  A    between atoms: C4*_16  and  C5*_17
REMARK    7  A    between atoms: C5*_17  and  O5*_18
REMARK                            x       y       z     vdW  Elec       q    Type
REMARK                         _______ _______ _______ _____ _____    ______ ____
ROOT
ATOM      1  C   UNL     1       2.867   4.288  20.158  0.00  0.00    +0.000 A 
ATOM      2  N   UNL     1       2.054   5.141  20.737  0.00  0.00    +0.000 NA
ATOM      3  C   UNL     1       2.183   6.270  20.004  0.00  0.00    +0.000 A 
ATOM      4  S   UNL     1       1.518   7.865  20.080  0.00  0.00    +0.000 S 
ATOM      5  N   UNL     1       2.378   8.412  18.749  0.00  0.00    +0.000 NA
ATOM      6  C   UNL     1       3.126   7.396  18.297  0.00  0.00    +0.000 A 
ATOM      7  C   UNL     1       3.959   7.667  17.105  0.00  0.00    +0.000 C 
ATOM      8  C   UNL     1       3.060   6.127  18.963  0.00  0.00    +0.000 A 
ATOM      9  N   UNL     1       3.496   4.806  19.039  0.00  0.00    +0.000 N 
ENDROOT
BRANCH   9  10
ATOM     10  C1* UNL     1       4.477   4.131  18.201  0.00  0.00    +0.000 C 
ATOM     11  C2* UNL     1       4.467   4.533  16.731  0.00  0.00    +0.000 C 
ATOM     12  C3* UNL     1       5.882   4.247  16.288  0.00  0.00    +0.000 C 
ATOM     13  C4* UNL     1       6.707   4.537  17.538  0.00  0.00    +0.000 C 
ATOM     14  O4* UNL     1       5.821   4.362  18.669  0.00  0.00    +0.000 OA
BRANCH  12  15
ATOM     15  O3* UNL     1       5.982   2.870  15.909  0.00  0.00    +0.000 OA
ATOM     16  H3* UNL     1       6.840   2.512  16.194  0.00  0.00    +0.000 HD
ENDBRANCH  12  15
BRANCH  13  17
ATOM     17  C5* UNL     1       7.291   5.953  17.554  0.00  0.00    +0.000 C 
BRANCH  17  18
ATOM     18  O5* UNL     1       7.521   6.443  16.242  0.00  0.00    +0.000 OA
ATOM     19  H5* UNL     1       7.286   5.736  15.615  0.00  0.00    +0.000 HD
ENDBRANCH  17  18
ENDBRANCH  13  17
ENDBRANCH   9  10
BRANCH   1  21
ATOM     20  C   UNL     1       1.616   2.474  21.755  0.00  0.00    +0.000 C 
ATOM     21  S   UNL     1       3.124   2.684  20.768  0.00  0.00    +0.000 S 
ENDBRANCH   1  21
TORSDOF 5
ENDMDL
MODEL 7
REMARK VINA RESULT:      -6.0      3.095      5.023
REMARK  Name = 
REMARK  7 active torsions:
REMARK  status: ('A' for Active; 'I' for Inactive)
REMARK    1  A    between atoms: C_1  and  S_2
REMARK    2  A    between atoms: S_2  and  C_3
REMARK    3  A    between atoms: C_8  and  C_9
REMARK    4  A    between atoms: N_11  and  C1*_12
REMARK    5  A    between atoms: C3*_14  and  O3*_15
REMARK    6  A    between atoms: C4*_16  and  C5*_17
REMARK    7  A    between atoms: C5*_17  and  O5*_18
REMARK                            x       y       z     vdW  Elec       q    Type
REMARK                         _______ _______ _______ _____ _____    ______ ____
ROOT
ATOM      1  C   UNL     1       3.328   6.128  18.495  0.00  0.00    +0.000 A 
ATOM      2  N   UNL     1       2.185   5.990  19.124  0.00  0.00    +0.000 NA
ATOM      3  C   UNL     1       2.290   4.792  19.742  0.00  0.00    +0.000 A 
ATOM      4  S   UNL     1       1.255   3.828  20.737  0.00  0.00    +0.000 S 
ATOM      5  N   UNL     1       2.365   2.580  20.886  0.00  0.00    +0.000 NA
ATOM      6  C   UNL     1       3.460   2.921  20.192  0.00  0.00    +0.000 A 
ATOM      7  C   UNL     1       4.579   1.953  20.206  0.00  0.00    +0.000 C 
ATOM      8  C   UNL     1       3.496   4.184  19.515  0.00  0.00    +0.000 A 
ATOM      9  N   UNL     1       4.203   5.078  18.712  0.00  0.00    +0.000 N 
ENDROOT
BRANCH   9  10
ATOM     10  C1* UNL     1       5.529   4.914  18.133  0.00  0.00    +0.000 C 
ATOM     11  C2* UNL     1       5.616   5.142  16.628  0.00  0.00    +0.000 C 
ATOM     12  C3* UNL     1       7.053   5.561  16.428  0.00  0.00    +0.000 C 
ATOM     13  C4* UNL     1       7.379   6.320  17.711  0.00  0.00    +0.000 C 
ATOM     14  O4* UNL     1       6.481   5.819  18.728  0.00  0.00    +0.000 OA
BRANCH  12  15
ATOM     15  O3* UNL     1       7.865   4.390  16.296  0.00  0.00    +0.000 OA
ATOM     16  H3* UNL     1       8.183   4.110  17.172  0.00  0.00    +0.000 HD
ENDBRANCH  12  15
BRANCH  13  17
ATOM     17  C5* UNL     1       7.205   7.835  17.570  0.00  0.00    +0.000 C 
BRANCH  17  18
ATOM     18  O5* UNL     1       8.291   8.546  18.148  0.00  0.00    +0.000 OA
ATOM     19  H5* UNL     1       8.314   8.330  19.098  0.00  0.00    +0.000 HD
ENDBRANCH  17  18
ENDBRANCH  13  17
ENDBRANCH   9  10
BRANCH   1  21
ATOM     20  C   UNL     1       2.288   8.577  17.922  0.00  0.00    +0.000 C 
ATOM     21  S   UNL     1       3.674   7.492  17.480  0.00  0.00    +0.000 S 
ENDBRANCH   1  21
TORSDOF 5
ENDMDL
MODEL 8
REMARK VINA RESULT:      -5.9      2.793      5.179
REMARK  Name = 
REMARK  7 active torsions:
REMARK  status: ('A' for Active; 'I' for Inactive)
REMARK    1  A    between atoms: C_1  and  S_2
REMARK    2  A    between atoms: S_2  and  C_3
REMARK    3  A    between atoms: C_8  and  C_9
REMARK    4  A    between atoms: N_11  and  C1*_12
REMARK    5  A    between atoms: C3*_14  and  O3*_15
REMARK    6  A    between atoms: C4*_16  and  C5*_17
REMARK    7  A    between atoms: C5*_17  and  O5*_18
REMARK                            x       y       z     vdW  Elec       q    Type
REMARK                         _______ _______ _______ _____ _____    ______ ____
ROOT
ATOM      1  C   UNL     1       2.248   6.129  19.494  0.00  0.00    +0.000 A 
ATOM      2  N   UNL     1       1.606   5.597  20.508  0.00  0.00    +0.000 NA
ATOM      3  C   UNL     1       1.827   4.270  20.380  0.00  0.00    +0.000 A 
ATOM      4  S   UNL     1       1.334   2.854  21.243  0.00  0.00    +0.000 S 
ATOM      5  N   UNL     1       2.135   1.804  20.210  0.00  0.00    +0.000 NA
ATOM      6  C   UNL     1       2.737   2.538  19.263  0.00  0.00    +0.000 A 
ATOM      7  C   UNL     1       3.519   1.797  18.250  0.00  0.00    +0.000 C 
ATOM      8  C   UNL     1       2.613   3.966  19.300  0.00  0.00    +0.000 A 
ATOM      9  N   UNL     1       2.922   5.197  18.724  0.00  0.00    +0.000 N 
ENDROOT
BRANCH   9  10
ATOM     10  C1* UNL     1       3.694   5.458  17.517  0.00  0.00    +0.000 C 
ATOM     11  C2* UNL     1       4.472   6.769  17.512  0.00  0.00    +0.000 C 
ATOM     12  C3* UNL     1       5.610   6.487  16.560  0.00  0.00    +0.000 C 
ATOM     13  C4* UNL     1       5.889   5.002  16.777  0.00  0.00    +0.000 C 
ATOM     14  O4* UNL     1       4.662   4.418  17.273  0.00  0.00    +0.000 OA
BRANCH  12  15
ATOM     15  O3* UNL     1       5.173   6.743  15.222  0.00  0.00    +0.000 OA
ATOM     16  H3* UNL     1       5.927   7.029  14.678  0.00  0.00    +0.000 HD
ENDBRANCH  12  15
BRANCH  13  17
ATOM     17  C5* UNL     1       7.023   4.746  17.774  0.00  0.00    +0.000 C 
BRANCH  17  18
ATOM     18  O5* UNL     1       8.126   4.094  17.162  0.00  0.00    +0.000 OA
ATOM     19  H5* UNL     1       7.911   3.967  16.221  0.00  0.00    +0.000 HD
ENDBRANCH  17  18
ENDBRANCH  13  17
ENDBRANCH   9  10
BRANCH   1  21
ATOM     20  C   UNL     1       1.417   8.436  20.673  0.00  0.00    +0.000 C 
ATOM     21  S   UNL     1       2.221   7.832  19.163  0.00  0.00    +0.000 S 
ENDBRANCH   1  21
TORSDOF 5
ENDMDL
MODEL 9
REMARK VINA RESULT:      -5.8      2.708      4.768
REMARK  Name = 
REMARK  7 active torsions:
REMARK  status: ('A' for Active; 'I' for Inactive)
REMARK    1  A    between atoms: C_1  and  S_2
REMARK    2  A    between atoms: S_2  and  C_3
REMARK    3  A    between atoms: C_8  and  C_9
REMARK    4  A    between atoms: N_11  and  C1*_12
REMARK    5  A    between atoms: C3*_14  and  O3*_15
REMARK    6  A    between atoms: C4*_16  and  C5*_17
REMARK    7  A    between atoms: C5*_17  and  O5*_18
REMARK                            x       y       z     vdW  Elec       q    Type
REMARK                         _______ _______ _______ _____ _____    ______ ____
ROOT
ATOM      1  C   UNL     1       2.640   7.125  18.596  0.00  0.00    +0.000 A 
ATOM      2  N   UNL     1       1.721   6.640  19.399  0.00  0.00    +0.000 NA
ATOM      3  C   UNL     1       2.190   5.419  19.738  0.00  0.00    +0.000 A 
ATOM      4  S   UNL     1       1.614   4.109  20.710  0.00  0.00    +0.000 S 
ATOM      5  N   UNL     1       2.942   3.136  20.392  0.00  0.00    +0.000 NA
ATOM      6  C   UNL     1       3.762   3.814  19.577  0.00  0.00    +0.000 A 
ATOM      7  C   UNL     1       5.014   3.132  19.183  0.00  0.00    +0.000 C 
ATOM      8  C   UNL     1       3.402   5.139  19.165  0.00  0.00    +0.000 A 
ATOM      9  N   UNL     1       3.722   6.279  18.429  0.00  0.00    +0.000 N 
ENDROOT
BRANCH   9  10
ATOM     10  C1* UNL     1       4.883   6.507  17.581  0.00  0.00    +0.000 C 
ATOM     11  C2* UNL     1       6.208   5.997  18.137  0.00  0.00    +0.000 C 
ATOM     12  C3* UNL     1       7.029   5.752  16.893  0.00  0.00    +0.000 C 
ATOM     13  C4* UNL     1       5.988   5.319  15.865  0.00  0.00    +0.000 C 
ATOM     14  O4* UNL     1       4.726   5.883  16.290  0.00  0.00    +0.000 OA
BRANCH  12  15
ATOM     15  O3* UNL     1       7.664   6.975  16.505  0.00  0.00    +0.000 OA
ATOM     16  H3* UNL     1       7.539   7.645  17.199  0.00  0.00    +0.000 HD
ENDBRANCH  12  15
BRANCH  13  17
ATOM     17  C5* UNL     1       5.860   3.797  15.747  0.00  0.00    +0.000 C 
BRANCH  17  18
ATOM     18  O5* UNL     1       6.230   3.335  14.457  0.00  0.00    +0.000 OA
ATOM     19  H5* UNL     1       5.424   3.014  14.014  0.00  0.00    +0.000 HD
ENDBRANCH  17  18
ENDBRANCH  13  17
ENDBRANCH   9  10
BRANCH   1  21
ATOM     20  C   UNL     1       1.253   9.446  18.907  0.00  0.00    +0.000 C 
ATOM     21  S   UNL     1       2.478   8.668  17.818  0.00  0.00    +0.000 S 
ENDBRANCH   1  21
TORSDOF 5
ENDMDL
