MODEL 1
REMARK VINA RESULT:      -7.4      0.000      0.000
REMARK  Name = 
REMARK  5 active torsions:
REMARK  status: ('A' for Active; 'I' for Inactive)
REMARK    1  A    between atoms: N_1  and  C_2
REMARK    2  A    between atoms: C_5  and  C_6
REMARK    3  A    between atoms: C_6  and  N_7
REMARK    4  A    between atoms: C_8  and  C_10
REMARK    5  A    between atoms: C_15  and  C_17
REMARK                            x       y       z     vdW  Elec       q    Type
REMARK                         _______ _______ _______ _____ _____    ______ ____
ROOT
ATOM      1  C   UNL     1       0.698  10.555  21.259  0.00  0.00    +0.000 C 
ATOM      2  C   UNL     1       1.244   9.302  21.988  0.00  0.00    +0.000 C 
ATOM      3  C   UNL     1       0.648   9.373  23.374  0.00  0.00    +0.000 C 
ATOM      4  C   UNL     1      -0.695  10.039  23.157  0.00  0.00    +0.000 C 
ATOM      5  N   UNL     1      -0.659  10.669  21.836  0.00  0.00    +0.000 N 
ATOM      6  C   UNL     1      -1.603  11.679  21.656  0.00  0.00    +0.000 C 
ATOM      7  O   UNL     1      -2.474  11.852  22.520  0.00  0.00    +0.000 OA
ENDROOT
BRANCH   6   8
ATOM      8  C   UNL     1      -1.549  12.604  20.425  0.00  0.00    +0.000 C 
ATOM      9  C   UNL     1      -2.359  13.890  20.679  0.00  0.00    +0.000 C 
ATOM     10  O   UNL     1      -3.779  13.701  20.645  0.00  0.00    +0.000 OA
ATOM     11  C   UNL     1      -4.172  12.800  19.697  0.00  0.00    +0.000 A 
ATOM     12  C   UNL     1      -5.546  12.697  19.464  0.00  0.00    +0.000 A 
ATOM     13  C   UNL     1      -6.028  11.801  18.510  0.00  0.00    +0.000 A 
ATOM     14  C   UNL     1      -5.134  11.028  17.770  0.00  0.00    +0.000 A 
ATOM     15  C   UNL     1      -3.761  11.133  18.003  0.00  0.00    +0.000 A 
ATOM     16  C   UNL     1      -3.281  11.995  18.990  0.00  0.00    +0.000 A 
ATOM     17  O   UNL     1      -1.929  11.981  19.203  0.00  0.00    +0.000 OA
ENDBRANCH   6   8
BRANCH   1  19
ATOM     18  N   UNL     1       1.283   8.995  19.423  0.00  0.00    +0.000 N 
ATOM     19  C   UNL     1       0.985  10.302  19.759  0.00  0.00    +0.000 C 
ATOM     20  O   UNL     1       1.153  11.233  18.981  0.00  0.00    +0.000 OA
ATOM     21  H   UNL     1       1.036   8.266  20.085  0.00  0.00    +0.000 HD
BRANCH  18  22
ATOM     22  C   UNL     1       1.875   8.633  18.154  0.00  0.00    +0.000 C 
BRANCH  22  26
ATOM     23  C   UNL     1       4.671   5.438  19.127  0.00  0.00    +0.000 C 
ATOM     24  C   UNL     1       4.613   5.842  17.651  0.00  0.00    +0.000 C 
ATOM     25  C   UNL     1       3.869   7.171  17.464  0.00  0.00    +0.000 C 
ATOM     26  C   UNL     1       2.469   7.198  18.110  0.00  0.00    +0.000 C 
ATOM     27  C   UNL     1       2.499   6.634  19.545  0.00  0.00    +0.000 C 
ATOM     28  C   UNL     1       3.251   5.309  19.677  0.00  0.00    +0.000 C 
BRANCH  23  29
ATOM     29  N   UNL     1       5.397   4.183  19.310  0.00  0.00    +0.000 NA
ATOM     30  H   UNL     1       6.195   4.148  18.677  0.00  0.00    +0.000 HD
ATOM     31  H   UNL     1       4.804   3.391  19.066  0.00  0.00    +0.000 HD
ENDBRANCH  23  29
ENDBRANCH  22  26
ENDBRANCH  18  22
ENDBRANCH   1  19
TORSDOF 5
ENDMDL
MODEL 2
REMARK VINA RESULT:      -7.1      2.974      4.229
REMARK  Name = 
REMARK  5 active torsions:
REMARK  status: ('A' for Active; 'I' for Inactive)
REMARK    1  A    between atoms: N_1  and  C_2
REMARK    2  A    between atoms: C_5  and  C_6
REMARK    3  A    between atoms: C_6  and  N_7
REMARK    4  A    between atoms: C_8  and  C_10
REMARK    5  A    between atoms: C_15  and  C_17
REMARK                            x       y       z     vdW  Elec       q    Type
REMARK                         _______ _______ _______ _____ _____    ______ ____
ROOT
ATOM      1  C   UNL     1       0.759   9.993  21.288  0.00  0.00    +0.000 C 
ATOM      2  C   UNL     1       0.147   8.930  22.233  0.00  0.00    +0.000 C 
ATOM      3  C   UNL     1      -0.498   9.725  23.343  0.00  0.00    +0.000 C 
ATOM      4  C   UNL     1      -0.947  11.001  22.659  0.00  0.00    +0.000 C 
ATOM      5  N   UNL     1      -0.232  11.085  21.385  0.00  0.00    +0.000 N 
ATOM      6  C   UNL     1      -0.174  12.369  20.843  0.00  0.00    +0.000 C 
ATOM      7  O   UNL     1      -0.840  13.274  21.365  0.00  0.00    +0.000 OA
ENDROOT
BRANCH   6   8
ATOM      8  C   UNL     1       0.738  12.682  19.641  0.00  0.00    +0.000 C 
ATOM      9  C   UNL     1       2.154  13.058  20.119  0.00  0.00    +0.000 C 
ATOM     10  O   UNL     1       2.244  14.364  20.702  0.00  0.00    +0.000 OA
ATOM     11  C   UNL     1       1.447  15.281  20.076  0.00  0.00    +0.000 A 
ATOM     12  C   UNL     1       1.616  16.615  20.454  0.00  0.00    +0.000 A 
ATOM     13  C   UNL     1       0.841  17.612  19.860  0.00  0.00    +0.000 A 
ATOM     14  C   UNL     1      -0.082  17.277  18.870  0.00  0.00    +0.000 A 
ATOM     15  C   UNL     1      -0.248  15.943  18.494  0.00  0.00    +0.000 A 
ATOM     16  C   UNL     1       0.493  14.940  19.120  0.00  0.00    +0.000 A 
ATOM     17  O   UNL     1       0.214  13.654  18.743  0.00  0.00    +0.000 OA
ENDBRANCH   6   8
BRANCH   1  19
ATOM     18  N   UNL     1       1.806   8.060  20.142  0.00  0.00    +0.000 N 
ATOM     19  C   UNL     1       1.085   9.228  19.982  0.00  0.00    +0.000 C 
ATOM     20  O   UNL     1       0.908   9.745  18.885  0.00  0.00    +0.000 OA
ATOM     21  H   UNL     1       1.838   7.643  21.067  0.00  0.00    +0.000 HD
BRANCH  18  22
ATOM     22  C   UNL     1       2.461   7.392  19.038  0.00  0.00    +0.000 C 
BRANCH  22  26
ATOM     23  C   UNL     1       1.164   3.239  18.842  0.00  0.00    +0.000 C 
ATOM     24  C   UNL     1       1.476   3.770  20.243  0.00  0.00    +0.000 C 
ATOM     25  C   UNL     1       1.594   5.300  20.248  0.00  0.00    +0.000 C 
ATOM     26  C   UNL     1       2.585   5.852  19.203  0.00  0.00    +0.000 C 
ATOM     27  C   UNL     1       2.378   5.191  17.824  0.00  0.00    +0.000 C 
ATOM     28  C   UNL     1       2.268   3.667  17.876  0.00  0.00    +0.000 C 
BRANCH  23  29
ATOM     29  N   UNL     1       1.031   1.784  18.840  0.00  0.00    +0.000 NA
ATOM     30  H   UNL     1       0.045   1.525  18.822  0.00  0.00    +0.000 HD
ATOM     31  H   UNL     1       1.414   1.390  19.699  0.00  0.00    +0.000 HD
ENDBRANCH  23  29
ENDBRANCH  22  26
ENDBRANCH  18  22
ENDBRANCH   1  19
TORSDOF 5
ENDMDL
MODEL 3
REMARK VINA RESULT:      -7.1      2.057      4.117
REMARK  Name = 
REMARK  5 active torsions:
REMARK  status: ('A' for Active; 'I' for Inactive)
REMARK    1  A    between atoms: N_1  and  C_2
REMARK    2  A    between atoms: C_5  and  C_6
REMARK    3  A    between atoms: C_6  and  N_7
REMARK    4  A    between atoms: C_8  and  C_10
REMARK    5  A    between atoms: C_15  and  C_17
REMARK                            x       y       z     vdW  Elec       q    Type
REMARK                         _______ _______ _______ _____ _____    ______ ____
ROOT
ATOM      1  C   UNL     1      -0.895  10.113  18.582  0.00  0.00    +0.000 C 
ATOM      2  C   UNL     1      -1.500   9.839  17.182  0.00  0.00    +0.000 C 
ATOM      3  C   UNL     1      -2.955  10.224  17.310  0.00  0.00    +0.000 C 
ATOM      4  C   UNL     1      -2.942  11.356  18.318  0.00  0.00    +0.000 C 
ATOM      5  N   UNL     1      -1.651  11.309  19.006  0.00  0.00    +0.000 N 
ATOM      6  C   UNL     1      -1.634  11.963  20.238  0.00  0.00    +0.000 C 
ATOM      7  O   UNL     1      -2.612  12.646  20.572  0.00  0.00    +0.000 OA
ENDROOT
BRANCH   6   8
ATOM      8  C   UNL     1      -0.441  11.810  21.200  0.00  0.00    +0.000 C 
ATOM      9  C   UNL     1      -0.917  11.313  22.579  0.00  0.00    +0.000 C 
ATOM     10  O   UNL     1      -1.592  12.309  23.356  0.00  0.00    +0.000 OA
ATOM     11  C   UNL     1      -1.050  13.555  23.208  0.00  0.00    +0.000 A 
ATOM     12  C   UNL     1      -1.521  14.547  24.071  0.00  0.00    +0.000 A 
ATOM     13  C   UNL     1      -1.017  15.845  23.984  0.00  0.00    +0.000 A 
ATOM     14  C   UNL     1      -0.024  16.143  23.052  0.00  0.00    +0.000 A 
ATOM     15  C   UNL     1       0.446  15.150  22.191  0.00  0.00    +0.000 A 
ATOM     16  C   UNL     1      -0.090  13.863  22.245  0.00  0.00    +0.000 A 
ATOM     17  O   UNL     1       0.374  12.971  21.317  0.00  0.00    +0.000 OA
ENDBRANCH   6   8
BRANCH   1  19
ATOM     18  N   UNL     1       1.151   8.892  17.893  0.00  0.00    +0.000 N 
ATOM     19  C   UNL     1       0.638  10.085  18.367  0.00  0.00    +0.000 C 
ATOM     20  O   UNL     1       1.354  10.979  18.800  0.00  0.00    +0.000 OA
ATOM     21  H   UNL     1       0.505   8.232  17.469  0.00  0.00    +0.000 HD
BRANCH  18  22
ATOM     22  C   UNL     1       2.563   8.581  17.931  0.00  0.00    +0.000 C 
BRANCH  22  26
ATOM     23  C   UNL     1       4.753   4.977  19.020  0.00  0.00    +0.000 C 
ATOM     24  C   UNL     1       4.734   5.316  17.527  0.00  0.00    +0.000 C 
ATOM     25  C   UNL     1       4.240   6.749  17.285  0.00  0.00    +0.000 C 
ATOM     26  C   UNL     1       2.885   7.061  17.950  0.00  0.00    +0.000 C 
ATOM     27  C   UNL     1       2.845   6.568  19.411  0.00  0.00    +0.000 C 
ATOM     28  C   UNL     1       3.347   5.136  19.597  0.00  0.00    +0.000 C 
BRANCH  23  29
ATOM     29  N   UNL     1       5.242   3.621  19.254  0.00  0.00    +0.000 NA
ATOM     30  H   UNL     1       5.156   3.068  18.403  0.00  0.00    +0.000 HD
ATOM     31  H   UNL     1       4.671   3.153  19.958  0.00  0.00    +0.000 HD
ENDBRANCH  23  29
ENDBRANCH  22  26
ENDBRANCH  18  22
ENDBRANCH   1  19
TORSDOF 5
ENDMDL
MODEL 4
REMARK VINA RESULT:      -7.1      4.198      9.675
REMARK  Name = 
REMARK  5 active torsions:
REMARK  status: ('A' for Active; 'I' for Inactive)
REMARK    1  A    between atoms: N_1  and  C_2
REMARK    2  A    between atoms: C_5  and  C_6
REMARK    3  A    between atoms: C_6  and  N_7
REMARK    4  A    between atoms: C_8  and  C_10
REMARK    5  A    between atoms: C_15  and  C_17
REMARK                            x       y       z     vdW  Elec       q    Type
REMARK                         _______ _______ _______ _____ _____    ______ ____
ROOT
ATOM      1  C   UNL     1       1.688   4.274  19.616  0.00  0.00    +0.000 C 
ATOM      2  C   UNL     1       0.400   3.462  19.899  0.00  0.00    +0.000 C 
ATOM      3  C   UNL     1       0.516   2.237  19.024  0.00  0.00    +0.000 C 
ATOM      4  C   UNL     1       2.008   1.977  18.964  0.00  0.00    +0.000 C 
ATOM      5  N   UNL     1       2.680   3.199  19.408  0.00  0.00    +0.000 N 
ATOM      6  C   UNL     1       4.010   3.303  19.001  0.00  0.00    +0.000 C 
ATOM      7  O   UNL     1       4.554   2.329  18.462  0.00  0.00    +0.000 OA
ENDROOT
BRANCH   6   8
ATOM      8  C   UNL     1       4.791   4.620  19.172  0.00  0.00    +0.000 C 
ATOM      9  C   UNL     1       3.998   5.800  18.577  0.00  0.00    +0.000 C 
ATOM     10  O   UNL     1       3.987   5.833  17.145  0.00  0.00    +0.000 OA
ATOM     11  C   UNL     1       5.175   5.438  16.597  0.00  0.00    +0.000 A 
ATOM     12  C   UNL     1       5.318   5.621  15.219  0.00  0.00    +0.000 A 
ATOM     13  C   UNL     1       6.502   5.245  14.584  0.00  0.00    +0.000 A 
ATOM     14  C   UNL     1       7.551   4.710  15.330  0.00  0.00    +0.000 A 
ATOM     15  C   UNL     1       7.406   4.529  16.707  0.00  0.00    +0.000 A 
ATOM     16  C   UNL     1       6.206   4.862  17.336  0.00  0.00    +0.000 A 
ATOM     17  O   UNL     1       6.124   4.583  18.674  0.00  0.00    +0.000 OA
ENDBRANCH   6   8
BRANCH   1  19
ATOM     18  N   UNL     1       1.224   6.556  20.467  0.00  0.00    +0.000 N 
ATOM     19  C   UNL     1       1.764   5.317  20.757  0.00  0.00    +0.000 C 
ATOM     20  O   UNL     1       2.450   5.118  21.752  0.00  0.00    +0.000 OA
ATOM     21  H   UNL     1       0.595   6.627  19.674  0.00  0.00    +0.000 HD
BRANCH  18  22
ATOM     22  C   UNL     1       1.481   7.727  21.278  0.00  0.00    +0.000 C 
BRANCH  22  26
ATOM     23  C   UNL     1      -0.586  11.500  21.955  0.00  0.00    +0.000 C 
ATOM     24  C   UNL     1      -0.832  10.412  23.003  0.00  0.00    +0.000 C 
ATOM     25  C   UNL     1       0.178   9.265  22.867  0.00  0.00    +0.000 C 
ATOM     26  C   UNL     1       0.259   8.670  21.447  0.00  0.00    +0.000 C 
ATOM     27  C   UNL     1       0.339   9.777  20.375  0.00  0.00    +0.000 C 
ATOM     28  C   UNL     1      -0.689  10.894  20.556  0.00  0.00    +0.000 C 
BRANCH  23  29
ATOM     29  N   UNL     1      -1.534  12.603  22.096  0.00  0.00    +0.000 NA
ATOM     30  H   UNL     1      -1.433  13.250  21.316  0.00  0.00    +0.000 HD
ATOM     31  H   UNL     1      -1.333  13.139  22.940  0.00  0.00    +0.000 HD
ENDBRANCH  23  29
ENDBRANCH  22  26
ENDBRANCH  18  22
ENDBRANCH   1  19
TORSDOF 5
ENDMDL
MODEL 5
REMARK VINA RESULT:      -7.1      2.736      3.955
REMARK  Name = 
REMARK  5 active torsions:
REMARK  status: ('A' for Active; 'I' for Inactive)
REMARK    1  A    between atoms: N_1  and  C_2
REMARK    2  A    between atoms: C_5  and  C_6
REMARK    3  A    between atoms: C_6  and  N_7
REMARK    4  A    between atoms: C_8  and  C_10
REMARK    5  A    between atoms: C_15  and  C_17
REMARK                            x       y       z     vdW  Elec       q    Type
REMARK                         _______ _______ _______ _____ _____    ______ ____
ROOT
ATOM      1  C   UNL     1       0.650  10.256  20.847  0.00  0.00    +0.000 C 
ATOM      2  C   UNL     1       0.075   9.173  21.793  0.00  0.00    +0.000 C 
ATOM      3  C   UNL     1      -0.345   9.927  23.032  0.00  0.00    +0.000 C 
ATOM      4  C   UNL     1      -0.767  11.283  22.503  0.00  0.00    +0.000 C 
ATOM      5  N   UNL     1      -0.220  11.411  21.151  0.00  0.00    +0.000 N 
ATOM      6  C   UNL     1      -0.121  12.725  20.695  0.00  0.00    +0.000 C 
ATOM      7  O   UNL     1      -0.631  13.636  21.362  0.00  0.00    +0.000 OA
ENDROOT
BRANCH   6   8
ATOM      8  C   UNL     1       0.649  13.059  19.402  0.00  0.00    +0.000 C 
ATOM      9  C   UNL     1       2.128  13.358  19.715  0.00  0.00    +0.000 C 
ATOM     10  O   UNL     1       2.347  14.630  20.337  0.00  0.00    +0.000 OA
ATOM     11  C   UNL     1       1.521  15.605  19.854  0.00  0.00    +0.000 A 
ATOM     12  C   UNL     1       1.793  16.912  20.264  0.00  0.00    +0.000 A 
ATOM     13  C   UNL     1       0.997  17.966  19.814  0.00  0.00    +0.000 A 
ATOM     14  C   UNL     1      -0.055  17.714  18.934  0.00  0.00    +0.000 A 
ATOM     15  C   UNL     1      -0.325  16.407  18.526  0.00  0.00    +0.000 A 
ATOM     16  C   UNL     1       0.442  15.347  19.011  0.00  0.00    +0.000 A 
ATOM     17  O   UNL     1       0.063  14.092  18.618  0.00  0.00    +0.000 OA
ENDBRANCH   6   8
BRANCH   1  19
ATOM     18  N   UNL     1       1.801   8.714  19.283  0.00  0.00    +0.000 N 
ATOM     19  C   UNL     1       0.732   9.573  19.460  0.00  0.00    +0.000 C 
ATOM     20  O   UNL     1       0.030   9.945  18.528  0.00  0.00    +0.000 OA
ATOM     21  H   UNL     1       2.284   8.380  20.111  0.00  0.00    +0.000 HD
BRANCH  18  22
ATOM     22  C   UNL     1       2.212   8.240  17.980  0.00  0.00    +0.000 C 
BRANCH  22  26
ATOM     23  C   UNL     1       5.027   5.077  18.996  0.00  0.00    +0.000 C 
ATOM     24  C   UNL     1       4.925   5.419  17.508  0.00  0.00    +0.000 C 
ATOM     25  C   UNL     1       4.179   6.743  17.289  0.00  0.00    +0.000 C 
ATOM     26  C   UNL     1       2.800   6.802  17.976  0.00  0.00    +0.000 C 
ATOM     27  C   UNL     1       2.873   6.297  19.432  0.00  0.00    +0.000 C 
ATOM     28  C   UNL     1       3.625   4.976  19.595  0.00  0.00    +0.000 C 
BRANCH  23  29
ATOM     29  N   UNL     1       5.755   3.827  19.208  0.00  0.00    +0.000 NA
ATOM     30  H   UNL     1       5.569   3.471  20.144  0.00  0.00    +0.000 HD
ATOM     31  H   UNL     1       6.761   3.989  19.159  0.00  0.00    +0.000 HD
ENDBRANCH  23  29
ENDBRANCH  22  26
ENDBRANCH  18  22
ENDBRANCH   1  19
TORSDOF 5
ENDMDL
MODEL 6
REMARK VINA RESULT:      -7.1      4.313      9.446
REMARK  Name = 
REMARK  5 active torsions:
REMARK  status: ('A' for Active; 'I' for Inactive)
REMARK    1  A    between atoms: N_1  and  C_2
REMARK    2  A    between atoms: C_5  and  C_6
REMARK    3  A    between atoms: C_6  and  N_7
REMARK    4  A    between atoms: C_8  and  C_10
REMARK    5  A    between atoms: C_15  and  C_17
REMARK                            x       y       z     vdW  Elec       q    Type
REMARK                         _______ _______ _______ _____ _____    ______ ____
ROOT
ATOM      1  C   UNL     1       1.721   4.158  19.568  0.00  0.00    +0.000 C 
ATOM      2  C   UNL     1       0.429   3.341  19.818  0.00  0.00    +0.000 C 
ATOM      3  C   UNL     1       0.562   2.127  18.930  0.00  0.00    +0.000 C 
ATOM      4  C   UNL     1       2.055   1.869  18.893  0.00  0.00    +0.000 C 
ATOM      5  N   UNL     1       2.718   3.085  19.365  0.00  0.00    +0.000 N 
ATOM      6  C   UNL     1       4.055   3.195  18.984  0.00  0.00    +0.000 C 
ATOM      7  O   UNL     1       4.609   2.228  18.442  0.00  0.00    +0.000 OA
ENDROOT
BRANCH   6   8
ATOM      8  C   UNL     1       4.831   4.510  19.186  0.00  0.00    +0.000 C 
ATOM      9  C   UNL     1       4.023   5.704  18.641  0.00  0.00    +0.000 C 
ATOM     10  O   UNL     1       3.992   5.783  17.211  0.00  0.00    +0.000 OA
ATOM     11  C   UNL     1       5.173   5.412  16.633  0.00  0.00    +0.000 A 
ATOM     12  C   UNL     1       5.295   5.640  15.260  0.00  0.00    +0.000 A 
ATOM     13  C   UNL     1       6.471   5.291  14.596  0.00  0.00    +0.000 A 
ATOM     14  C   UNL     1       7.534   4.739  15.309  0.00  0.00    +0.000 A 
ATOM     15  C   UNL     1       7.410   4.513  16.682  0.00  0.00    +0.000 A 
ATOM     16  C   UNL     1       6.218   4.819  17.338  0.00  0.00    +0.000 A 
ATOM     17  O   UNL     1       6.157   4.497  18.667  0.00  0.00    +0.000 OA
ENDBRANCH   6   8
BRANCH   1  19
ATOM     18  N   UNL     1       1.214   6.419  20.449  0.00  0.00    +0.000 N 
ATOM     19  C   UNL     1       1.775   5.186  20.724  0.00  0.00    +0.000 C 
ATOM     20  O   UNL     1       2.462   4.985  21.718  0.00  0.00    +0.000 OA
ATOM     21  H   UNL     1       0.586   6.489  19.655  0.00  0.00    +0.000 HD
BRANCH  18  22
ATOM     22  C   UNL     1       1.448   7.583  21.277  0.00  0.00    +0.000 C 
BRANCH  22  26
ATOM     23  C   UNL     1      -0.454  10.386  18.540  0.00  0.00    +0.000 C 
ATOM     24  C   UNL     1       1.010  10.055  18.238  0.00  0.00    +0.000 C 
ATOM     25  C   UNL     1       1.483   8.831  19.034  0.00  0.00    +0.000 C 
ATOM     26  C   UNL     1       1.231   8.939  20.552  0.00  0.00    +0.000 C 
ATOM     27  C   UNL     1      -0.199   9.435  20.853  0.00  0.00    +0.000 C 
ATOM     28  C   UNL     1      -0.619  10.656  20.035  0.00  0.00    +0.000 C 
BRANCH  23  29
ATOM     29  N   UNL     1      -0.911  11.539  17.768  0.00  0.00    +0.000 NA
ATOM     30  H   UNL     1      -1.446  11.226  16.959  0.00  0.00    +0.000 HD
ATOM     31  H   UNL     1      -0.115  12.059  17.400  0.00  0.00    +0.000 HD
ENDBRANCH  23  29
ENDBRANCH  22  26
ENDBRANCH  18  22
ENDBRANCH   1  19
TORSDOF 5
ENDMDL
MODEL 7
REMARK VINA RESULT:      -7.1      2.056      3.956
REMARK  Name = 
REMARK  5 active torsions:
REMARK  status: ('A' for Active; 'I' for Inactive)
REMARK    1  A    between atoms: N_1  and  C_2
REMARK    2  A    between atoms: C_5  and  C_6
REMARK    3  A    between atoms: C_6  and  N_7
REMARK    4  A    between atoms: C_8  and  C_10
REMARK    5  A    between atoms: C_15  and  C_17
REMARK                            x       y       z     vdW  Elec       q    Type
REMARK                         _______ _______ _______ _____ _____    ______ ____
ROOT
ATOM      1  C   UNL     1      -1.217  10.376  19.035  0.00  0.00    +0.000 C 
ATOM      2  C   UNL     1      -1.627   9.917  17.613  0.00  0.00    +0.000 C 
ATOM      3  C   UNL     1      -3.062  10.361  17.463  0.00  0.00    +0.000 C 
ATOM      4  C   UNL     1      -3.137  11.628  18.291  0.00  0.00    +0.000 C 
ATOM      5  N   UNL     1      -1.964  11.645  19.166  0.00  0.00    +0.000 N 
ATOM      6  C   UNL     1      -2.092  12.472  20.281  0.00  0.00    +0.000 C 
ATOM      7  O   UNL     1      -3.071  13.227  20.363  0.00  0.00    +0.000 OA
ENDROOT
BRANCH   6   8
ATOM      8  C   UNL     1      -1.060  12.426  21.424  0.00  0.00    +0.000 C 
ATOM      9  C   UNL     1      -1.520  11.456  22.530  0.00  0.00    +0.000 C 
ATOM     10  O   UNL     1      -2.594  11.956  23.335  0.00  0.00    +0.000 OA
ATOM     11  C   UNL     1      -2.497  13.297  23.575  0.00  0.00    +0.000 A 
ATOM     12  C   UNL     1      -3.392  13.831  24.506  0.00  0.00    +0.000 A 
ATOM     13  C   UNL     1      -3.357  15.192  24.808  0.00  0.00    +0.000 A 
ATOM     14  C   UNL     1      -2.409  16.014  24.199  0.00  0.00    +0.000 A 
ATOM     15  C   UNL     1      -1.515  15.478  23.269  0.00  0.00    +0.000 A 
ATOM     16  C   UNL     1      -1.580  14.126  22.932  0.00  0.00    +0.000 A 
ATOM     17  O   UNL     1      -0.717  13.700  21.959  0.00  0.00    +0.000 OA
ENDBRANCH   6   8
BRANCH   1  19
ATOM     18  N   UNL     1       0.904   9.715  17.934  0.00  0.00    +0.000 N 
ATOM     19  C   UNL     1       0.327  10.269  19.061  0.00  0.00    +0.000 C 
ATOM     20  O   UNL     1       0.957  10.457  20.095  0.00  0.00    +0.000 OA
ATOM     21  H   UNL     1       0.345   9.670  17.087  0.00  0.00    +0.000 HD
BRANCH  18  22
ATOM     22  C   UNL     1       2.275   9.254  17.907  0.00  0.00    +0.000 C 
BRANCH  22  26
ATOM     23  C   UNL     1       4.032   5.484  19.198  0.00  0.00    +0.000 C 
ATOM     24  C   UNL     1       4.105   5.769  17.696  0.00  0.00    +0.000 C 
ATOM     25  C   UNL     1       3.773   7.236  17.388  0.00  0.00    +0.000 C 
ATOM     26  C   UNL     1       2.434   7.711  17.987  0.00  0.00    +0.000 C 
ATOM     27  C   UNL     1       2.289   7.277  19.461  0.00  0.00    +0.000 C 
ATOM     28  C   UNL     1       2.630   5.808  19.712  0.00  0.00    +0.000 C 
BRANCH  23  29
ATOM     29  N   UNL     1       4.367   4.094  19.496  0.00  0.00    +0.000 NA
ATOM     30  H   UNL     1       4.386   3.948  20.504  0.00  0.00    +0.000 HD
ATOM     31  H   UNL     1       5.304   3.874  19.158  0.00  0.00    +0.000 HD
ENDBRANCH  23  29
ENDBRANCH  22  26
ENDBRANCH  18  22
ENDBRANCH   1  19
TORSDOF 5
ENDMDL
MODEL 8
REMARK VINA RESULT:      -7.0      2.885      4.095
REMARK  Name = 
REMARK  5 active torsions:
REMARK  status: ('A' for Active; 'I' for Inactive)
REMARK    1  A    between atoms: N_1  and  C_2
REMARK    2  A    between atoms: C_5  and  C_6
REMARK    3  A    between atoms: C_6  and  N_7
REMARK    4  A    between atoms: C_8  and  C_10
REMARK    5  A    between atoms: C_15  and  C_17
REMARK                            x       y       z     vdW  Elec       q    Type
REMARK                         _______ _______ _______ _____ _____    ______ ____
ROOT
ATOM      1  C   UNL     1       0.774  10.097  20.873  0.00  0.00    +0.000 C 
ATOM      2  C   UNL     1       0.216   9.001  21.814  0.00  0.00    +0.000 C 
ATOM      3  C   UNL     1      -0.226   9.744  23.052  0.00  0.00    +0.000 C 
ATOM      4  C   UNL     1      -0.671  11.093  22.524  0.00  0.00    +0.000 C 
ATOM      5  N   UNL     1      -0.120  11.235  21.176  0.00  0.00    +0.000 N 
ATOM      6  C   UNL     1      -0.043  12.552  20.723  0.00  0.00    +0.000 C 
ATOM      7  O   UNL     1      -0.574  13.451  21.390  0.00  0.00    +0.000 OA
ENDROOT
BRANCH   6   8
ATOM      8  C   UNL     1       0.727  12.903  19.435  0.00  0.00    +0.000 C 
ATOM      9  C   UNL     1       2.192  13.252  19.760  0.00  0.00    +0.000 C 
ATOM     10  O   UNL     1       2.364  14.535  20.376  0.00  0.00    +0.000 OA
ATOM     11  C   UNL     1       1.510  15.479  19.880  0.00  0.00    +0.000 A 
ATOM     12  C   UNL     1       1.736  16.797  20.285  0.00  0.00    +0.000 A 
ATOM     13  C   UNL     1       0.909  17.822  19.822  0.00  0.00    +0.000 A 
ATOM     14  C   UNL     1      -0.126  17.530  18.934  0.00  0.00    +0.000 A 
ATOM     15  C   UNL     1      -0.349  16.212  18.531  0.00  0.00    +0.000 A 
ATOM     16  C   UNL     1       0.448  15.181  19.029  0.00  0.00    +0.000 A 
ATOM     17  O   UNL     1       0.114  13.912  18.640  0.00  0.00    +0.000 OA
ENDBRANCH   6   8
BRANCH   1  19
ATOM     18  N   UNL     1       1.839   8.432  19.376  0.00  0.00    +0.000 N 
ATOM     19  C   UNL     1       0.878   9.419  19.485  0.00  0.00    +0.000 C 
ATOM     20  O   UNL     1       0.304   9.886  18.508  0.00  0.00    +0.000 OA
ATOM     21  H   UNL     1       2.209   8.032  20.233  0.00  0.00    +0.000 HD
BRANCH  18  22
ATOM     22  C   UNL     1       2.287   7.919  18.100  0.00  0.00    +0.000 C 
BRANCH  22  26
ATOM     23  C   UNL     1       4.598   4.513  16.676  0.00  0.00    +0.000 C 
ATOM     24  C   UNL     1       3.580   4.209  17.779  0.00  0.00    +0.000 C 
ATOM     25  C   UNL     1       2.600   5.374  17.973  0.00  0.00    +0.000 C 
ATOM     26  C   UNL     1       3.288   6.735  18.201  0.00  0.00    +0.000 C 
ATOM     27  C   UNL     1       4.429   6.969  17.188  0.00  0.00    +0.000 C 
ATOM     28  C   UNL     1       5.376   5.778  17.034  0.00  0.00    +0.000 C 
BRANCH  23  29
ATOM     29  N   UNL     1       5.519   3.396  16.476  0.00  0.00    +0.000 NA
ATOM     30  H   UNL     1       5.097   2.704  15.858  0.00  0.00    +0.000 HD
ATOM     31  H   UNL     1       5.696   2.919  17.360  0.00  0.00    +0.000 HD
ENDBRANCH  23  29
ENDBRANCH  22  26
ENDBRANCH  18  22
ENDBRANCH   1  19
TORSDOF 5
ENDMDL
MODEL 9
REMARK VINA RESULT:      -7.0      2.914      4.094
REMARK  Name = 
REMARK  5 active torsions:
REMARK  status: ('A' for Active; 'I' for Inactive)
REMARK    1  A    between atoms: N_1  and  C_2
REMARK    2  A    between atoms: C_5  and  C_6
REMARK    3  A    between atoms: C_6  and  N_7
REMARK    4  A    between atoms: C_8  and  C_10
REMARK    5  A    between atoms: C_15  and  C_17
REMARK                            x       y       z     vdW  Elec       q    Type
REMARK                         _______ _______ _______ _____ _____    ______ ____
ROOT
ATOM      1  C   UNL     1       0.723  10.009  21.419  0.00  0.00    +0.000 C 
ATOM      2  C   UNL     1       0.133   8.995  22.430  0.00  0.00    +0.000 C 
ATOM      3  C   UNL     1      -0.572   9.844  23.461  0.00  0.00    +0.000 C 
ATOM      4  C   UNL     1      -1.058  11.042  22.670  0.00  0.00    +0.000 C 
ATOM      5  N   UNL     1      -0.316  11.060  21.409  0.00  0.00    +0.000 N 
ATOM      6  C   UNL     1      -0.298  12.301  20.771  0.00  0.00    +0.000 C 
ATOM      7  O   UNL     1      -1.014  13.212  21.207  0.00  0.00    +0.000 OA
ENDROOT
BRANCH   6   8
ATOM      8  C   UNL     1       0.628  12.560  19.568  0.00  0.00    +0.000 C 
ATOM      9  C   UNL     1       2.061  12.870  20.045  0.00  0.00    +0.000 C 
ATOM     10  O   UNL     1       2.215  14.173  20.620  0.00  0.00    +0.000 OA
ATOM     11  C   UNL     1       1.465  15.124  19.987  0.00  0.00    +0.000 A 
ATOM     12  C   UNL     1       1.698  16.451  20.356  0.00  0.00    +0.000 A 
ATOM     13  C   UNL     1       0.974  17.481  19.755  0.00  0.00    +0.000 A 
ATOM     14  C   UNL     1       0.036  17.185  18.767  0.00  0.00    +0.000 A 
ATOM     15  C   UNL     1      -0.195  15.858  18.399  0.00  0.00    +0.000 A 
ATOM     16  C   UNL     1       0.495  14.824  19.032  0.00  0.00    +0.000 A 
ATOM     17  O   UNL     1       0.154  13.551  18.663  0.00  0.00    +0.000 OA
ENDBRANCH   6   8
BRANCH   1  19
ATOM     18  N   UNL     1       1.773   7.978  20.457  0.00  0.00    +0.000 N 
ATOM     19  C   UNL     1       1.113   9.161  20.183  0.00  0.00    +0.000 C 
ATOM     20  O   UNL     1       1.038   9.622  19.050  0.00  0.00    +0.000 OA
ATOM     21  H   UNL     1       1.720   7.613  21.403  0.00  0.00    +0.000 HD
BRANCH  18  22
ATOM     22  C   UNL     1       2.479   7.227  19.443  0.00  0.00    +0.000 C 
BRANCH  22  26
ATOM     23  C   UNL     1       2.145   2.904  19.030  0.00  0.00    +0.000 C 
ATOM     24  C   UNL     1       2.122   3.699  17.721  0.00  0.00    +0.000 C 
ATOM     25  C   UNL     1       2.576   5.149  17.939  0.00  0.00    +0.000 C 
ATOM     26  C   UNL     1       1.806   5.881  19.056  0.00  0.00    +0.000 C 
ATOM     27  C   UNL     1       1.684   5.010  20.324  0.00  0.00    +0.000 C 
ATOM     28  C   UNL     1       1.228   3.577  20.051  0.00  0.00    +0.000 C 
BRANCH  23  29
ATOM     29  N   UNL     1       1.732   1.518  18.820  0.00  0.00    +0.000 NA
ATOM     30  H   UNL     1       2.426   0.886  19.217  0.00  0.00    +0.000 HD
ATOM     31  H   UNL     1       1.690   1.307  17.824  0.00  0.00    +0.000 HD
ENDBRANCH  23  29
ENDBRANCH  22  26
ENDBRANCH  18  22
ENDBRANCH   1  19
TORSDOF 5
ENDMDL
