MODEL 1
REMARK VINA RESULT:      -7.1      0.000      0.000
REMARK  Name = 
REMARK  10 active torsions:
REMARK  status: ('A' for Active; 'I' for Inactive)
REMARK    1  A    between atoms: C_2  and  N_3
REMARK    2  A    between atoms: N_5  and  C_6
REMARK    3  A    between atoms: C_6  and  C_7
REMARK    4  A    between atoms: C_7  and  C_8
REMARK    5  A    between atoms: C_8  and  C_9
REMARK    6  A    between atoms: C_9  and  C_10
REMARK    7  A    between atoms: N_15  and  C_16
REMARK    8  A    between atoms: C_16  and  C_17
REMARK    9  A    between atoms: C_17  and  C_18
REMARK   10  A    between atoms: C_18  and  C_19
REMARK                            x       y       z     vdW  Elec       q    Type
REMARK                         _______ _______ _______ _____ _____    ______ ____
ROOT
ATOM      1  N   UNL     1       2.277   4.977  20.666  0.00  0.00    +0.000 NA
ATOM      2  C   UNL     1       2.220   4.887  19.373  0.00  0.00    +0.000 C 
ATOM      3  N   UNL     1       2.321   6.003  18.597  0.00  0.00    +0.000 N 
ATOM      4  N   UNL     1       2.022   3.741  18.642  0.00  0.00    +0.000 N 
ATOM      5  H   UNL     1       2.179   5.917  17.603  0.00  0.00    +0.000 HD
ATOM      6  H   UNL     1       1.802   2.914  19.190  0.00  0.00    +0.000 HD
ENDROOT
BRANCH   1   8
ATOM      7  N   UNL     1       2.096   2.910  22.046  0.00  0.00    +0.000 NA
ATOM      8  C   UNL     1       2.201   3.863  21.394  0.00  0.00    +0.000 C 
ENDBRANCH   1   8
BRANCH   3   9
ATOM      9  C   UNL     1       2.418   7.357  19.105  0.00  0.00    +0.000 C 
BRANCH   9  10
ATOM     10  C   UNL     1       2.604   8.354  17.963  0.00  0.00    +0.000 C 
BRANCH  10  11
ATOM     11  C   UNL     1       1.369   9.236  17.758  0.00  0.00    +0.000 C 
BRANCH  11  12
ATOM     12  C   UNL     1       0.799   9.734  19.085  0.00  0.00    +0.000 C 
BRANCH  12  13
ATOM     13  C   UNL     1       1.243  11.122  19.389  0.00  0.00    +0.000 A 
ATOM     14  C   UNL     1       1.909  12.017  18.579  0.00  0.00    +0.000 A 
ATOM     15  N   UNL     1       2.079  13.141  19.343  0.00  0.00    +0.000 N 
ATOM     16  C   UNL     1       1.515  12.893  20.563  0.00  0.00    +0.000 A 
ATOM     17  N   UNL     1       0.998  11.688  20.619  0.00  0.00    +0.000 NA
ATOM     18  H   UNL     1       2.538  13.992  19.064  0.00  0.00    +0.000 HD
ENDBRANCH  12  13
ENDBRANCH  11  12
ENDBRANCH  10  11
ENDBRANCH   9  10
ENDBRANCH   3   9
BRANCH   4  19
ATOM     19  C   UNL     1       2.591   3.410  17.345  0.00  0.00    +0.000 C 
BRANCH  19  20
ATOM     20  C   UNL     1       4.120   3.421  17.335  0.00  0.00    +0.000 C 
BRANCH  20  21
ATOM     21  C   UNL     1       4.712   4.472  16.392  0.00  0.00    +0.000 C 
BRANCH  21  22
ATOM     22  C   UNL     1       5.803   5.294  17.040  0.00  0.00    +0.000 A 
ATOM     23  C   UNL     1       5.974   6.650  16.705  0.00  0.00    +0.000 A 
ATOM     24  C   UNL     1       6.959   7.414  17.329  0.00  0.00    +0.000 A 
ATOM     25  C   UNL     1       7.773   6.831  18.290  0.00  0.00    +0.000 A 
ATOM     26  F   UNL     1       8.721   7.565  18.889  0.00  0.00    +0.000 F 
ATOM     27  C   UNL     1       7.620   5.496  18.642  0.00  0.00    +0.000 A 
ATOM     28  C   UNL     1       6.632   4.727  18.018  0.00  0.00    +0.000 A 
ENDBRANCH  21  22
ENDBRANCH  20  21
ENDBRANCH  19  20
ENDBRANCH   4  19
TORSDOF 10
ENDMDL
MODEL 2
REMARK VINA RESULT:      -7.0      4.712      7.282
REMARK  Name = 
REMARK  10 active torsions:
REMARK  status: ('A' for Active; 'I' for Inactive)
REMARK    1  A    between atoms: C_2  and  N_3
REMARK    2  A    between atoms: N_5  and  C_6
REMARK    3  A    between atoms: C_6  and  C_7
REMARK    4  A    between atoms: C_7  and  C_8
REMARK    5  A    between atoms: C_8  and  C_9
REMARK    6  A    between atoms: C_9  and  C_10
REMARK    7  A    between atoms: N_15  and  C_16
REMARK    8  A    between atoms: C_16  and  C_17
REMARK    9  A    between atoms: C_17  and  C_18
REMARK   10  A    between atoms: C_18  and  C_19
REMARK                            x       y       z     vdW  Elec       q    Type
REMARK                         _______ _______ _______ _____ _____    ______ ____
ROOT
ATOM      1  N   UNL     1       6.817   5.820  15.832  0.00  0.00    +0.000 NA
ATOM      2  C   UNL     1       6.096   6.472  16.691  0.00  0.00    +0.000 C 
ATOM      3  N   UNL     1       6.654   7.445  17.465  0.00  0.00    +0.000 N 
ATOM      4  N   UNL     1       4.765   6.268  16.963  0.00  0.00    +0.000 N 
ATOM      5  H   UNL     1       6.095   7.870  18.188  0.00  0.00    +0.000 HD
ATOM      6  H   UNL     1       4.352   5.458  16.507  0.00  0.00    +0.000 HD
ENDROOT
BRANCH   1   8
ATOM      7  N   UNL     1       5.716   4.061  14.451  0.00  0.00    +0.000 NA
ATOM      8  C   UNL     1       6.234   4.891  15.073  0.00  0.00    +0.000 C 
ENDBRANCH   1   8
BRANCH   3   9
ATOM      9  C   UNL     1       8.062   7.791  17.471  0.00  0.00    +0.000 C 
BRANCH   9  10
ATOM     10  C   UNL     1       8.375   8.773  18.598  0.00  0.00    +0.000 C 
BRANCH  10  11
ATOM     11  C   UNL     1       8.886  10.116  18.068  0.00  0.00    +0.000 C 
BRANCH  11  12
ATOM     12  C   UNL     1       9.766  10.833  19.091  0.00  0.00    +0.000 C 
BRANCH  12  13
ATOM     13  C   UNL     1      10.654  11.839  18.443  0.00  0.00    +0.000 A 
ATOM     14  C   UNL     1      12.022  11.973  18.532  0.00  0.00    +0.000 A 
ATOM     15  N   UNL     1      12.333  13.055  17.752  0.00  0.00    +0.000 N 
ATOM     16  C   UNL     1      11.163  13.524  17.223  0.00  0.00    +0.000 A 
ATOM     17  N   UNL     1      10.135  12.808  17.616  0.00  0.00    +0.000 NA
ATOM     18  H   UNL     1      13.250  13.440  17.598  0.00  0.00    +0.000 HD
ENDBRANCH  12  13
ENDBRANCH  11  12
ENDBRANCH  10  11
ENDBRANCH   9  10
ENDBRANCH   3   9
BRANCH   4  19
ATOM     19  C   UNL     1       3.771   7.268  17.318  0.00  0.00    +0.000 C 
BRANCH  19  20
ATOM     20  C   UNL     1       2.645   6.717  18.192  0.00  0.00    +0.000 C 
BRANCH  20  21
ATOM     21  C   UNL     1       2.211   5.301  17.800  0.00  0.00    +0.000 C 
BRANCH  21  22
ATOM     22  C   UNL     1       1.994   4.402  18.996  0.00  0.00    +0.000 A 
ATOM     23  C   UNL     1       1.540   3.081  18.827  0.00  0.00    +0.000 A 
ATOM     24  C   UNL     1       1.373   2.244  19.930  0.00  0.00    +0.000 A 
ATOM     25  C   UNL     1       1.660   2.719  21.201  0.00  0.00    +0.000 A 
ATOM     26  F   UNL     1       1.497   1.915  22.261  0.00  0.00    +0.000 F 
ATOM     27  C   UNL     1       2.114   4.018  21.394  0.00  0.00    +0.000 A 
ATOM     28  C   UNL     1       2.284   4.860  20.290  0.00  0.00    +0.000 A 
ENDBRANCH  21  22
ENDBRANCH  20  21
ENDBRANCH  19  20
ENDBRANCH   4  19
TORSDOF 10
ENDMDL
MODEL 3
REMARK VINA RESULT:      -6.9      4.259      7.501
REMARK  Name = 
REMARK  10 active torsions:
REMARK  status: ('A' for Active; 'I' for Inactive)
REMARK    1  A    between atoms: C_2  and  N_3
REMARK    2  A    between atoms: N_5  and  C_6
REMARK    3  A    between atoms: C_6  and  C_7
REMARK    4  A    between atoms: C_7  and  C_8
REMARK    5  A    between atoms: C_8  and  C_9
REMARK    6  A    between atoms: C_9  and  C_10
REMARK    7  A    between atoms: N_15  and  C_16
REMARK    8  A    between atoms: C_16  and  C_17
REMARK    9  A    between atoms: C_17  and  C_18
REMARK   10  A    between atoms: C_18  and  C_19
REMARK                            x       y       z     vdW  Elec       q    Type
REMARK                         _______ _______ _______ _____ _____    ______ ____
ROOT
ATOM      1  N   UNL     1       6.002   5.560  15.637  0.00  0.00    +0.000 NA
ATOM      2  C   UNL     1       6.166   6.426  16.588  0.00  0.00    +0.000 C 
ATOM      3  N   UNL     1       5.207   6.594  17.543  0.00  0.00    +0.000 N 
ATOM      4  N   UNL     1       7.235   7.273  16.747  0.00  0.00    +0.000 N 
ATOM      5  H   UNL     1       5.317   7.337  18.215  0.00  0.00    +0.000 HD
ATOM      6  H   UNL     1       7.901   7.274  15.978  0.00  0.00    +0.000 HD
ENDROOT
BRANCH   1   8
ATOM      7  N   UNL     1       7.841   5.290  13.975  0.00  0.00    +0.000 NA
ATOM      8  C   UNL     1       6.971   5.402  14.734  0.00  0.00    +0.000 C 
ENDBRANCH   1   8
BRANCH   3   9
ATOM      9  C   UNL     1       3.926   5.917  17.556  0.00  0.00    +0.000 C 
BRANCH   9  10
ATOM     10  C   UNL     1       2.968   6.585  18.539  0.00  0.00    +0.000 C 
BRANCH  10  11
ATOM     11  C   UNL     1       2.109   5.566  19.293  0.00  0.00    +0.000 C 
BRANCH  11  12
ATOM     12  C   UNL     1       2.949   4.687  20.219  0.00  0.00    +0.000 C 
BRANCH  12  13
ATOM     13  C   UNL     1       3.288   3.384  19.583  0.00  0.00    +0.000 A 
ATOM     14  C   UNL     1       4.395   2.586  19.777  0.00  0.00    +0.000 A 
ATOM     15  N   UNL     1       4.217   1.511  18.948  0.00  0.00    +0.000 N 
ATOM     16  C   UNL     1       3.028   1.690  18.299  0.00  0.00    +0.000 A 
ATOM     17  N   UNL     1       2.442   2.806  18.665  0.00  0.00    +0.000 NA
ATOM     18  H   UNL     1       4.846   0.733  18.831  0.00  0.00    +0.000 HD
ENDBRANCH  12  13
ENDBRANCH  11  12
ENDBRANCH  10  11
ENDBRANCH   9  10
ENDBRANCH   3   9
BRANCH   4  19
ATOM     19  C   UNL     1       7.832   7.721  17.996  0.00  0.00    +0.000 C 
BRANCH  19  20
ATOM     20  C   UNL     1       8.227   9.198  17.980  0.00  0.00    +0.000 C 
BRANCH  20  21
ATOM     21  C   UNL     1       9.120   9.599  19.158  0.00  0.00    +0.000 C 
BRANCH  21  22
ATOM     22  C   UNL     1       9.744  10.965  18.983  0.00  0.00    +0.000 A 
ATOM     23  C   UNL     1       9.877  11.839  20.078  0.00  0.00    +0.000 A 
ATOM     24  C   UNL     1      10.482  13.084  19.920  0.00  0.00    +0.000 A 
ATOM     25  C   UNL     1      10.958  13.462  18.673  0.00  0.00    +0.000 A 
ATOM     26  F   UNL     1      11.538  14.661  18.520  0.00  0.00    +0.000 F 
ATOM     27  C   UNL     1      10.842  12.616  17.577  0.00  0.00    +0.000 A 
ATOM     28  C   UNL     1      10.237  11.365  17.732  0.00  0.00    +0.000 A 
ENDBRANCH  21  22
ENDBRANCH  20  21
ENDBRANCH  19  20
ENDBRANCH   4  19
TORSDOF 10
ENDMDL
MODEL 4
REMARK VINA RESULT:      -6.9      4.152      5.428
REMARK  Name = 
REMARK  10 active torsions:
REMARK  status: ('A' for Active; 'I' for Inactive)
REMARK    1  A    between atoms: C_2  and  N_3
REMARK    2  A    between atoms: N_5  and  C_6
REMARK    3  A    between atoms: C_6  and  C_7
REMARK    4  A    between atoms: C_7  and  C_8
REMARK    5  A    between atoms: C_8  and  C_9
REMARK    6  A    between atoms: C_9  and  C_10
REMARK    7  A    between atoms: N_15  and  C_16
REMARK    8  A    between atoms: C_16  and  C_17
REMARK    9  A    between atoms: C_17  and  C_18
REMARK   10  A    between atoms: C_18  and  C_19
REMARK                            x       y       z     vdW  Elec       q    Type
REMARK                         _______ _______ _______ _____ _____    ______ ____
ROOT
ATOM      1  N   UNL     1       4.386   2.094  19.476  0.00  0.00    +0.000 NA
ATOM      2  C   UNL     1       4.840   3.204  18.982  0.00  0.00    +0.000 C 
ATOM      3  N   UNL     1       4.265   3.754  17.875  0.00  0.00    +0.000 N 
ATOM      4  N   UNL     1       5.917   3.922  19.440  0.00  0.00    +0.000 N 
ATOM      5  H   UNL     1       4.695   4.564  17.458  0.00  0.00    +0.000 HD
ATOM      6  H   UNL     1       6.454   3.469  20.175  0.00  0.00    +0.000 HD
ENDROOT
BRANCH   1   8
ATOM      7  N   UNL     1       5.472   1.202  21.534  0.00  0.00    +0.000 NA
ATOM      8  C   UNL     1       4.955   1.596  20.574  0.00  0.00    +0.000 C 
ENDBRANCH   1   8
BRANCH   3   9
ATOM      9  C   UNL     1       3.187   3.151  17.117  0.00  0.00    +0.000 C 
BRANCH   9  10
ATOM     10  C   UNL     1       1.843   3.379  17.806  0.00  0.00    +0.000 C 
BRANCH  10  11
ATOM     11  C   UNL     1       1.458   4.861  17.846  0.00  0.00    +0.000 C 
BRANCH  11  12
ATOM     12  C   UNL     1       1.747   5.487  19.210  0.00  0.00    +0.000 C 
BRANCH  12  13
ATOM     13  C   UNL     1       1.741   4.469  20.296  0.00  0.00    +0.000 A 
ATOM     14  C   UNL     1       2.553   4.379  21.406  0.00  0.00    +0.000 A 
ATOM     15  N   UNL     1       2.134   3.259  22.073  0.00  0.00    +0.000 N 
ATOM     16  C   UNL     1       1.098   2.725  21.360  0.00  0.00    +0.000 A 
ATOM     17  N   UNL     1       0.834   3.435  20.287  0.00  0.00    +0.000 NA
ATOM     18  H   UNL     1       2.517   2.891  22.928  0.00  0.00    +0.000 HD
ENDBRANCH  12  13
ENDBRANCH  11  12
ENDBRANCH  10  11
ENDBRANCH   9  10
ENDBRANCH   3   9
BRANCH   4  19
ATOM     19  C   UNL     1       6.078   5.368  19.448  0.00  0.00    +0.000 C 
BRANCH  19  20
ATOM     20  C   UNL     1       7.513   5.816  19.171  0.00  0.00    +0.000 C 
BRANCH  20  21
ATOM     21  C   UNL     1       7.663   6.595  17.861  0.00  0.00    +0.000 C 
BRANCH  21  22
ATOM     22  C   UNL     1       6.948   5.937  16.703  0.00  0.00    +0.000 A 
ATOM     23  C   UNL     1       7.388   4.700  16.197  0.00  0.00    +0.000 A 
ATOM     24  C   UNL     1       6.706   4.080  15.152  0.00  0.00    +0.000 A 
ATOM     25  C   UNL     1       5.583   4.689  14.609  0.00  0.00    +0.000 A 
ATOM     26  F   UNL     1       4.929   4.094  13.601  0.00  0.00    +0.000 F 
ATOM     27  C   UNL     1       5.126   5.908  15.094  0.00  0.00    +0.000 A 
ATOM     28  C   UNL     1       5.808   6.532  16.144  0.00  0.00    +0.000 A 
ENDBRANCH  21  22
ENDBRANCH  20  21
ENDBRANCH  19  20
ENDBRANCH   4  19
TORSDOF 10
ENDMDL
MODEL 5
REMARK VINA RESULT:      -6.9      4.421      7.422
REMARK  Name = 
REMARK  10 active torsions:
REMARK  status: ('A' for Active; 'I' for Inactive)
REMARK    1  A    between atoms: C_2  and  N_3
REMARK    2  A    between atoms: N_5  and  C_6
REMARK    3  A    between atoms: C_6  and  C_7
REMARK    4  A    between atoms: C_7  and  C_8
REMARK    5  A    between atoms: C_8  and  C_9
REMARK    6  A    between atoms: C_9  and  C_10
REMARK    7  A    between atoms: N_15  and  C_16
REMARK    8  A    between atoms: C_16  and  C_17
REMARK    9  A    between atoms: C_17  and  C_18
REMARK   10  A    between atoms: C_18  and  C_19
REMARK                            x       y       z     vdW  Elec       q    Type
REMARK                         _______ _______ _______ _____ _____    ______ ____
ROOT
ATOM      1  N   UNL     1       6.224   5.104  15.241  0.00  0.00    +0.000 NA
ATOM      2  C   UNL     1       6.240   5.868  16.289  0.00  0.00    +0.000 C 
ATOM      3  N   UNL     1       5.298   5.724  17.263  0.00  0.00    +0.000 N 
ATOM      4  N   UNL     1       7.121   6.891  16.539  0.00  0.00    +0.000 N 
ATOM      5  H   UNL     1       5.277   6.391  18.019  0.00  0.00    +0.000 HD
ATOM      6  H   UNL     1       7.747   7.118  15.771  0.00  0.00    +0.000 HD
ENDROOT
BRANCH   1   8
ATOM      7  N   UNL     1       7.970   5.380  13.484  0.00  0.00    +0.000 NA
ATOM      8  C   UNL     1       7.175   5.253  14.318  0.00  0.00    +0.000 C 
ENDBRANCH   1   8
BRANCH   3   9
ATOM      9  C   UNL     1       4.181   4.802  17.205  0.00  0.00    +0.000 C 
BRANCH   9  10
ATOM     10  C   UNL     1       4.464   3.554  18.038  0.00  0.00    +0.000 C 
BRANCH  10  11
ATOM     11  C   UNL     1       3.574   2.375  17.633  0.00  0.00    +0.000 C 
BRANCH  11  12
ATOM     12  C   UNL     1       3.091   1.583  18.847  0.00  0.00    +0.000 C 
BRANCH  12  13
ATOM     13  C   UNL     1       2.458   2.467  19.865  0.00  0.00    +0.000 A 
ATOM     14  C   UNL     1       2.828   2.688  21.174  0.00  0.00    +0.000 A 
ATOM     15  N   UNL     1       1.912   3.579  21.665  0.00  0.00    +0.000 N 
ATOM     16  C   UNL     1       1.040   3.867  20.652  0.00  0.00    +0.000 A 
ATOM     17  N   UNL     1       1.347   3.217  19.554  0.00  0.00    +0.000 NA
ATOM     18  H   UNL     1       1.879   3.953  22.599  0.00  0.00    +0.000 HD
ENDBRANCH  12  13
ENDBRANCH  11  12
ENDBRANCH  10  11
ENDBRANCH   9  10
ENDBRANCH   3   9
BRANCH   4  19
ATOM     19  C   UNL     1       7.654   7.304  17.828  0.00  0.00    +0.000 C 
BRANCH  19  20
ATOM     20  C   UNL     1       8.159   8.747  17.839  0.00  0.00    +0.000 C 
BRANCH  20  21
ATOM     21  C   UNL     1       8.880   9.127  19.135  0.00  0.00    +0.000 C 
BRANCH  21  22
ATOM     22  C   UNL     1       9.423  10.538  19.112  0.00  0.00    +0.000 A 
ATOM     23  C   UNL     1       9.907  11.140  20.288  0.00  0.00    +0.000 A 
ATOM     24  C   UNL     1      10.437  12.428  20.257  0.00  0.00    +0.000 A 
ATOM     25  C   UNL     1      10.489  13.120  19.055  0.00  0.00    +0.000 A 
ATOM     26  F   UNL     1      10.996  14.361  19.025  0.00  0.00    +0.000 F 
ATOM     27  C   UNL     1      10.020  12.546  17.880  0.00  0.00    +0.000 A 
ATOM     28  C   UNL     1       9.489  11.253  17.907  0.00  0.00    +0.000 A 
ENDBRANCH  21  22
ENDBRANCH  20  21
ENDBRANCH  19  20
ENDBRANCH   4  19
TORSDOF 10
ENDMDL
MODEL 6
REMARK VINA RESULT:      -6.9      3.966      7.127
REMARK  Name = 
REMARK  10 active torsions:
REMARK  status: ('A' for Active; 'I' for Inactive)
REMARK    1  A    between atoms: C_2  and  N_3
REMARK    2  A    between atoms: N_5  and  C_6
REMARK    3  A    between atoms: C_6  and  C_7
REMARK    4  A    between atoms: C_7  and  C_8
REMARK    5  A    between atoms: C_8  and  C_9
REMARK    6  A    between atoms: C_9  and  C_10
REMARK    7  A    between atoms: N_15  and  C_16
REMARK    8  A    between atoms: C_16  and  C_17
REMARK    9  A    between atoms: C_17  and  C_18
REMARK   10  A    between atoms: C_18  and  C_19
REMARK                            x       y       z     vdW  Elec       q    Type
REMARK                         _______ _______ _______ _____ _____    ______ ____
ROOT
ATOM      1  N   UNL     1       5.184   5.636  15.811  0.00  0.00    +0.000 NA
ATOM      2  C   UNL     1       5.617   6.565  16.606  0.00  0.00    +0.000 C 
ATOM      3  N   UNL     1       4.759   7.212  17.444  0.00  0.00    +0.000 N 
ATOM      4  N   UNL     1       6.905   7.032  16.690  0.00  0.00    +0.000 N 
ATOM      5  H   UNL     1       5.103   7.992  17.982  0.00  0.00    +0.000 HD
ATOM      6  H   UNL     1       7.541   6.672  15.982  0.00  0.00    +0.000 HD
ENDROOT
BRANCH   1   8
ATOM      7  N   UNL     1       6.841   4.457  14.369  0.00  0.00    +0.000 NA
ATOM      8  C   UNL     1       6.054   5.004  15.022  0.00  0.00    +0.000 C 
ENDBRANCH   1   8
BRANCH   3   9
ATOM      9  C   UNL     1       3.326   7.002  17.484  0.00  0.00    +0.000 C 
BRANCH   9  10
ATOM     10  C   UNL     1       2.790   7.178  18.903  0.00  0.00    +0.000 C 
BRANCH  10  11
ATOM     11  C   UNL     1       2.632   5.840  19.631  0.00  0.00    +0.000 C 
BRANCH  11  12
ATOM     12  C   UNL     1       2.148   4.735  18.693  0.00  0.00    +0.000 C 
BRANCH  12  13
ATOM     13  C   UNL     1       2.998   3.516  18.794  0.00  0.00    +0.000 A 
ATOM     14  C   UNL     1       3.316   2.598  17.818  0.00  0.00    +0.000 A 
ATOM     15  N   UNL     1       4.118   1.675  18.435  0.00  0.00    +0.000 N 
ATOM     16  C   UNL     1       4.259   2.065  19.737  0.00  0.00    +0.000 A 
ATOM     17  N   UNL     1       3.602   3.174  19.982  0.00  0.00    +0.000 NA
ATOM     18  H   UNL     1       4.526   0.857  18.013  0.00  0.00    +0.000 HD
ENDBRANCH  12  13
ENDBRANCH  11  12
ENDBRANCH  10  11
ENDBRANCH   9  10
ENDBRANCH   3   9
BRANCH   4  19
ATOM     19  C   UNL     1       7.605   7.489  17.880  0.00  0.00    +0.000 C 
BRANCH  19  20
ATOM     20  C   UNL     1       8.139   8.916  17.756  0.00  0.00    +0.000 C 
BRANCH  20  21
ATOM     21  C   UNL     1       8.938   9.373  18.980  0.00  0.00    +0.000 C 
BRANCH  21  22
ATOM     22  C   UNL     1       9.427  10.799  18.862  0.00  0.00    +0.000 A 
ATOM     23  C   UNL     1       8.898  11.661  17.883  0.00  0.00    +0.000 A 
ATOM     24  C   UNL     1       9.327  12.984  17.800  0.00  0.00    +0.000 A 
ATOM     25  C   UNL     1      10.281  13.454  18.691  0.00  0.00    +0.000 A 
ATOM     26  F   UNL     1      10.696  14.726  18.608  0.00  0.00    +0.000 F 
ATOM     27  C   UNL     1      10.815  12.624  19.669  0.00  0.00    +0.000 A 
ATOM     28  C   UNL     1      10.386  11.296  19.757  0.00  0.00    +0.000 A 
ENDBRANCH  21  22
ENDBRANCH  20  21
ENDBRANCH  19  20
ENDBRANCH   4  19
TORSDOF 10
ENDMDL
MODEL 7
REMARK VINA RESULT:      -6.8      4.324      7.527
REMARK  Name = 
REMARK  10 active torsions:
REMARK  status: ('A' for Active; 'I' for Inactive)
REMARK    1  A    between atoms: C_2  and  N_3
REMARK    2  A    between atoms: N_5  and  C_6
REMARK    3  A    between atoms: C_6  and  C_7
REMARK    4  A    between atoms: C_7  and  C_8
REMARK    5  A    between atoms: C_8  and  C_9
REMARK    6  A    between atoms: C_9  and  C_10
REMARK    7  A    between atoms: N_15  and  C_16
REMARK    8  A    between atoms: C_16  and  C_17
REMARK    9  A    between atoms: C_17  and  C_18
REMARK   10  A    between atoms: C_18  and  C_19
REMARK                            x       y       z     vdW  Elec       q    Type
REMARK                         _______ _______ _______ _____ _____    ______ ____
ROOT
ATOM      1  N   UNL     1       6.221   5.255  16.524  0.00  0.00    +0.000 NA
ATOM      2  C   UNL     1       6.498   6.157  17.413  0.00  0.00    +0.000 C 
ATOM      3  N   UNL     1       5.884   6.140  18.630  0.00  0.00    +0.000 N 
ATOM      4  N   UNL     1       7.361   7.215  17.262  0.00  0.00    +0.000 N 
ATOM      5  H   UNL     1       6.048   6.905  19.266  0.00  0.00    +0.000 HD
ATOM      6  H   UNL     1       7.728   7.340  16.322  0.00  0.00    +0.000 HD
ENDROOT
BRANCH   1   8
ATOM      7  N   UNL     1       7.436   5.274  14.348  0.00  0.00    +0.000 NA
ATOM      8  C   UNL     1       6.859   5.285  15.353  0.00  0.00    +0.000 C 
ENDBRANCH   1   8
BRANCH   3   9
ATOM      9  C   UNL     1       4.846   5.207  19.020  0.00  0.00    +0.000 C 
BRANCH   9  10
ATOM     10  C   UNL     1       3.509   5.924  19.193  0.00  0.00    +0.000 C 
BRANCH  10  11
ATOM     11  C   UNL     1       2.714   5.383  20.385  0.00  0.00    +0.000 C 
BRANCH  11  12
ATOM     12  C   UNL     1       1.576   4.465  19.942  0.00  0.00    +0.000 C 
BRANCH  12  13
ATOM     13  C   UNL     1       2.083   3.287  19.185  0.00  0.00    +0.000 A 
ATOM     14  C   UNL     1       1.817   2.909  17.887  0.00  0.00    +0.000 A 
ATOM     15  N   UNL     1       2.528   1.756  17.690  0.00  0.00    +0.000 N 
ATOM     16  C   UNL     1       3.193   1.485  18.853  0.00  0.00    +0.000 A 
ATOM     17  N   UNL     1       2.950   2.393  19.770  0.00  0.00    +0.000 NA
ATOM     18  H   UNL     1       2.555   1.203  16.849  0.00  0.00    +0.000 HD
ENDBRANCH  12  13
ENDBRANCH  11  12
ENDBRANCH  10  11
ENDBRANCH   9  10
ENDBRANCH   3   9
BRANCH   4  19
ATOM     19  C   UNL     1       8.221   7.808  18.274  0.00  0.00    +0.000 C 
BRANCH  19  20
ATOM     20  C   UNL     1       8.408   9.315  18.100  0.00  0.00    +0.000 C 
BRANCH  20  21
ATOM     21  C   UNL     1       9.133   9.976  19.276  0.00  0.00    +0.000 C 
BRANCH  21  22
ATOM     22  C   UNL     1       9.773  11.294  18.904  0.00  0.00    +0.000 A 
ATOM     23  C   UNL     1       9.739  12.385  19.793  0.00  0.00    +0.000 A 
ATOM     24  C   UNL     1      10.359  13.588  19.461  0.00  0.00    +0.000 A 
ATOM     25  C   UNL     1      11.016  13.708  18.245  0.00  0.00    +0.000 A 
ATOM     26  F   UNL     1      11.610  14.866  17.924  0.00  0.00    +0.000 F 
ATOM     27  C   UNL     1      11.067  12.645  17.351  0.00  0.00    +0.000 A 
ATOM     28  C   UNL     1      10.448  11.436  17.682  0.00  0.00    +0.000 A 
ENDBRANCH  21  22
ENDBRANCH  20  21
ENDBRANCH  19  20
ENDBRANCH   4  19
TORSDOF 10
ENDMDL
MODEL 8
REMARK VINA RESULT:      -6.8      4.461      6.807
REMARK  Name = 
REMARK  10 active torsions:
REMARK  status: ('A' for Active; 'I' for Inactive)
REMARK    1  A    between atoms: C_2  and  N_3
REMARK    2  A    between atoms: N_5  and  C_6
REMARK    3  A    between atoms: C_6  and  C_7
REMARK    4  A    between atoms: C_7  and  C_8
REMARK    5  A    between atoms: C_8  and  C_9
REMARK    6  A    between atoms: C_9  and  C_10
REMARK    7  A    between atoms: N_15  and  C_16
REMARK    8  A    between atoms: C_16  and  C_17
REMARK    9  A    between atoms: C_17  and  C_18
REMARK   10  A    between atoms: C_18  and  C_19
REMARK                            x       y       z     vdW  Elec       q    Type
REMARK                         _______ _______ _______ _____ _____    ______ ____
ROOT
ATOM      1  N   UNL     1       7.053   5.618  16.307  0.00  0.00    +0.000 NA
ATOM      2  C   UNL     1       6.215   6.293  17.032  0.00  0.00    +0.000 C 
ATOM      3  N   UNL     1       6.654   7.298  17.841  0.00  0.00    +0.000 N 
ATOM      4  N   UNL     1       4.860   6.086  17.120  0.00  0.00    +0.000 N 
ATOM      5  H   UNL     1       5.997   7.742  18.462  0.00  0.00    +0.000 HD
ATOM      6  H   UNL     1       4.520   5.256  16.640  0.00  0.00    +0.000 HD
ENDROOT
BRANCH   1   8
ATOM      7  N   UNL     1       6.221   3.825  14.788  0.00  0.00    +0.000 NA
ATOM      8  C   UNL     1       6.587   4.658  15.507  0.00  0.00    +0.000 C 
ENDBRANCH   1   8
BRANCH   3   9
ATOM      9  C   UNL     1       8.045   7.657  18.033  0.00  0.00    +0.000 C 
BRANCH   9  10
ATOM     10  C   UNL     1       8.264   9.146  17.773  0.00  0.00    +0.000 C 
BRANCH  10  11
ATOM     11  C   UNL     1       9.027   9.826  18.913  0.00  0.00    +0.000 C 
BRANCH  11  12
ATOM     12  C   UNL     1       9.591  11.182  18.490  0.00  0.00    +0.000 C 
BRANCH  12  13
ATOM     13  C   UNL     1       9.615  12.146  19.625  0.00  0.00    +0.000 A 
ATOM     14  C   UNL     1      10.308  12.071  20.813  0.00  0.00    +0.000 A 
ATOM     15  N   UNL     1       9.974  13.208  21.500  0.00  0.00    +0.000 N 
ATOM     16  C   UNL     1       9.112  13.920  20.715  0.00  0.00    +0.000 A 
ATOM     17  N   UNL     1       8.881  13.309  19.576  0.00  0.00    +0.000 NA
ATOM     18  H   UNL     1      10.298  13.472  22.417  0.00  0.00    +0.000 HD
ENDBRANCH  12  13
ENDBRANCH  11  12
ENDBRANCH  10  11
ENDBRANCH   9  10
ENDBRANCH   3   9
BRANCH   4  19
ATOM     19  C   UNL     1       3.821   7.089  17.295  0.00  0.00    +0.000 C 
BRANCH  19  20
ATOM     20  C   UNL     1       2.551   6.535  17.940  0.00  0.00    +0.000 C 
BRANCH  20  21
ATOM     21  C   UNL     1       2.357   5.034  17.707  0.00  0.00    +0.000 C 
BRANCH  21  22
ATOM     22  C   UNL     1       2.036   4.280  18.977  0.00  0.00    +0.000 A 
ATOM     23  C   UNL     1       2.589   4.680  20.208  0.00  0.00    +0.000 A 
ATOM     24  C   UNL     1       2.265   4.003  21.382  0.00  0.00    +0.000 A 
ATOM     25  C   UNL     1       1.389   2.928  21.335  0.00  0.00    +0.000 A 
ATOM     26  F   UNL     1       1.079   2.275  22.464  0.00  0.00    +0.000 F 
ATOM     27  C   UNL     1       0.827   2.516  20.133  0.00  0.00    +0.000 A 
ATOM     28  C   UNL     1       1.148   3.195  18.953  0.00  0.00    +0.000 A 
ENDBRANCH  21  22
ENDBRANCH  20  21
ENDBRANCH  19  20
ENDBRANCH   4  19
TORSDOF 10
ENDMDL
MODEL 9
REMARK VINA RESULT:      -6.7      4.190      6.203
REMARK  Name = 
REMARK  10 active torsions:
REMARK  status: ('A' for Active; 'I' for Inactive)
REMARK    1  A    between atoms: C_2  and  N_3
REMARK    2  A    between atoms: N_5  and  C_6
REMARK    3  A    between atoms: C_6  and  C_7
REMARK    4  A    between atoms: C_7  and  C_8
REMARK    5  A    between atoms: C_8  and  C_9
REMARK    6  A    between atoms: C_9  and  C_10
REMARK    7  A    between atoms: N_15  and  C_16
REMARK    8  A    between atoms: C_16  and  C_17
REMARK    9  A    between atoms: C_17  and  C_18
REMARK   10  A    between atoms: C_18  and  C_19
REMARK                            x       y       z     vdW  Elec       q    Type
REMARK                         _______ _______ _______ _____ _____    ______ ____
ROOT
ATOM      1  N   UNL     1       6.723   4.808  15.636  0.00  0.00    +0.000 NA
ATOM      2  C   UNL     1       6.683   5.592  16.669  0.00  0.00    +0.000 C 
ATOM      3  N   UNL     1       5.994   5.226  17.787  0.00  0.00    +0.000 N 
ATOM      4  N   UNL     1       7.252   6.837  16.772  0.00  0.00    +0.000 N 
ATOM      5  H   UNL     1       5.901   5.892  18.538  0.00  0.00    +0.000 HD
ATOM      6  H   UNL     1       7.653   7.200  15.911  0.00  0.00    +0.000 HD
ENDROOT
BRANCH   1   8
ATOM      7  N   UNL     1       8.001   5.520  13.618  0.00  0.00    +0.000 NA
ATOM      8  C   UNL     1       7.427   5.184  14.568  0.00  0.00    +0.000 C 
ENDBRANCH   1   8
BRANCH   3   9
ATOM      9  C   UNL     1       5.203   4.018  17.914  0.00  0.00    +0.000 C 
BRANCH   9  10
ATOM     10  C   UNL     1       3.722   4.313  17.692  0.00  0.00    +0.000 C 
BRANCH  10  11
ATOM     11  C   UNL     1       3.430   5.817  17.661  0.00  0.00    +0.000 C 
BRANCH  11  12
ATOM     12  C   UNL     1       3.077   6.356  19.046  0.00  0.00    +0.000 C 
BRANCH  12  13
ATOM     13  C   UNL     1       2.332   7.643  18.962  0.00  0.00    +0.000 A 
ATOM     14  C   UNL     1       2.210   8.507  17.896  0.00  0.00    +0.000 A 
ATOM     15  N   UNL     1       1.427   9.535  18.349  0.00  0.00    +0.000 N 
ATOM     16  C   UNL     1       1.104   9.258  19.648  0.00  0.00    +0.000 A 
ATOM     17  N   UNL     1       1.628   8.122  20.043  0.00  0.00    +0.000 NA
ATOM     18  H   UNL     1       1.144  10.349  17.828  0.00  0.00    +0.000 HD
ENDBRANCH  12  13
ENDBRANCH  11  12
ENDBRANCH  10  11
ENDBRANCH   9  10
ENDBRANCH   3   9
BRANCH   4  19
ATOM     19  C   UNL     1       7.842   7.445  17.955  0.00  0.00    +0.000 C 
BRANCH  19  20
ATOM     20  C   UNL     1       8.057   8.953  17.815  0.00  0.00    +0.000 C 
BRANCH  20  21
ATOM     21  C   UNL     1       8.914   9.549  18.935  0.00  0.00    +0.000 C 
BRANCH  21  22
ATOM     22  C   UNL     1       9.517  10.885  18.564  0.00  0.00    +0.000 A 
ATOM     23  C   UNL     1      10.853  11.185  18.890  0.00  0.00    +0.000 A 
ATOM     24  C   UNL     1      11.415  12.404  18.517  0.00  0.00    +0.000 A 
ATOM     25  C   UNL     1      10.651  13.327  17.816  0.00  0.00    +0.000 A 
ATOM     26  F   UNL     1      11.191  14.500  17.460  0.00  0.00    +0.000 F 
ATOM     27  C   UNL     1       9.331  13.052  17.479  0.00  0.00    +0.000 A 
ATOM     28  C   UNL     1       8.764  11.829  17.851  0.00  0.00    +0.000 A 
ENDBRANCH  21  22
ENDBRANCH  20  21
ENDBRANCH  19  20
ENDBRANCH   4  19
TORSDOF 10
ENDMDL
