MODEL 1
REMARK VINA RESULT:      -8.2      0.000      0.000
REMARK  Name = 
REMARK  9 active torsions:
REMARK  status: ('A' for Active; 'I' for Inactive)
REMARK    1  A    between atoms: C_1  and  C_2
REMARK    2  A    between atoms: C_2  and  C_3
REMARK    3  A    between atoms: C_3  and  C_4
REMARK    4  A    between atoms: C_3  and  C_23
REMARK    5  A    between atoms: C_4  and  O_6
REMARK    6  A    between atoms: O_6  and  C_7
REMARK    7  A    between atoms: C_7  and  C_8
REMARK    8  A    between atoms: N_10  and  C_11
REMARK    9  A    between atoms: C_16  and  C_17
REMARK                            x       y       z     vdW  Elec       q    Type
REMARK                         _______ _______ _______ _____ _____    ______ ____
ROOT
ATOM      1  C   UNL     1       2.595   6.751  18.331  0.00  0.00    +0.000 C 
ATOM      2  O   UNL     1       1.841   6.043  17.667  0.00  0.00    +0.000 OA
ATOM      3  N   UNL     1       3.237   6.356  19.506  0.00  0.00    +0.000 N 
ATOM      4  H   UNL     1       4.112   6.825  19.713  0.00  0.00    +0.000 HD
ENDROOT
BRANCH   3   5
ATOM      5  C   UNL     1       3.128   5.024  19.986  0.00  0.00    +0.000 A 
ATOM      6  C   UNL     1       2.213   4.779  21.027  0.00  0.00    +0.000 A 
ATOM      7  C   UNL     1       2.094   3.512  21.594  0.00  0.00    +0.000 A 
ATOM      8  C   UNL     1       2.857   2.467  21.097  0.00  0.00    +0.000 A 
ATOM      9  C   UNL     1       3.759   2.698  20.054  0.00  0.00    +0.000 A 
ATOM     10  C   UNL     1       3.954   3.982  19.491  0.00  0.00    +0.000 A 
BRANCH  10  11
ATOM     11  C   UNL     1       4.968   4.144  18.406  0.00  0.00    +0.000 A 
ATOM     12  C   UNL     1       4.713   3.798  17.066  0.00  0.00    +0.000 A 
ATOM     13  C   UNL     1       5.651   4.023  16.052  0.00  0.00    +0.000 A 
ATOM     14  C   UNL     1       6.904   4.536  16.364  0.00  0.00    +0.000 A 
ATOM     15  C   UNL     1       7.216   4.824  17.686  0.00  0.00    +0.000 A 
ATOM     16  C   UNL     1       6.256   4.645  18.688  0.00  0.00    +0.000 A 
ENDBRANCH  10  11
ENDBRANCH   3   5
BRANCH   1  17
ATOM     17  C   UNL     1       2.928   8.188  17.905  0.00  0.00    +0.000 C 
BRANCH  17  18
ATOM     18  O   UNL     1       1.817   8.907  17.360  0.00  0.00    +0.000 OA
BRANCH  18  19
ATOM     19  C   UNL     1       1.400   9.971  18.107  0.00  0.00    +0.000 C 
ATOM     20  O   UNL     1       2.054  10.994  18.260  0.00  0.00    +0.000 OA
BRANCH  19  21
ATOM     21  C   UNL     1       0.019   9.707  18.712  0.00  0.00    +0.000 C 
BRANCH  21  22
ATOM     22  C   UNL     1       0.035   9.807  20.239  0.00  0.00    +0.000 A 
ATOM     23  C   UNL     1       0.771   8.893  21.005  0.00  0.00    +0.000 A 
ATOM     24  C   UNL     1       0.731   8.939  22.403  0.00  0.00    +0.000 A 
ATOM     25  C   UNL     1      -0.039   9.901  23.051  0.00  0.00    +0.000 A 
ATOM     26  C   UNL     1      -0.763  10.825  22.305  0.00  0.00    +0.000 A 
ATOM     27  C   UNL     1      -0.719  10.788  20.910  0.00  0.00    +0.000 A 
ENDBRANCH  21  22
BRANCH  21  29
ATOM     28  C   UNL     1      -1.909  10.042  17.053  0.00  0.00    +0.000 C 
ATOM     29  C   UNL     1      -1.036  10.671  18.127  0.00  0.00    +0.000 C 
ENDBRANCH  21  29
ENDBRANCH  19  21
ENDBRANCH  18  19
ENDBRANCH  17  18
ENDBRANCH   1  17
TORSDOF 8
ENDMDL
MODEL 2
REMARK VINA RESULT:      -8.1      1.409      1.669
REMARK  Name = 
REMARK  9 active torsions:
REMARK  status: ('A' for Active; 'I' for Inactive)
REMARK    1  A    between atoms: C_1  and  C_2
REMARK    2  A    between atoms: C_2  and  C_3
REMARK    3  A    between atoms: C_3  and  C_4
REMARK    4  A    between atoms: C_3  and  C_23
REMARK    5  A    between atoms: C_4  and  O_6
REMARK    6  A    between atoms: O_6  and  C_7
REMARK    7  A    between atoms: C_7  and  C_8
REMARK    8  A    between atoms: N_10  and  C_11
REMARK    9  A    between atoms: C_16  and  C_17
REMARK                            x       y       z     vdW  Elec       q    Type
REMARK                         _______ _______ _______ _____ _____    ______ ____
ROOT
ATOM      1  C   UNL     1       2.716   6.777  18.669  0.00  0.00    +0.000 C 
ATOM      2  O   UNL     1       2.958   6.509  19.845  0.00  0.00    +0.000 OA
ATOM      3  N   UNL     1       2.464   5.836  17.670  0.00  0.00    +0.000 N 
ATOM      4  H   UNL     1       1.884   6.150  16.900  0.00  0.00    +0.000 HD
ENDROOT
BRANCH   3   5
ATOM      5  C   UNL     1       2.381   4.451  17.973  0.00  0.00    +0.000 A 
ATOM      6  C   UNL     1       1.150   3.961  18.447  0.00  0.00    +0.000 A 
ATOM      7  C   UNL     1       1.007   2.627  18.826  0.00  0.00    +0.000 A 
ATOM      8  C   UNL     1       2.081   1.761  18.693  0.00  0.00    +0.000 A 
ATOM      9  C   UNL     1       3.304   2.237  18.211  0.00  0.00    +0.000 A 
ATOM     10  C   UNL     1       3.508   3.596  17.872  0.00  0.00    +0.000 A 
BRANCH  10  11
ATOM     11  C   UNL     1       4.860   4.023  17.401  0.00  0.00    +0.000 A 
ATOM     12  C   UNL     1       5.865   4.473  18.277  0.00  0.00    +0.000 A 
ATOM     13  C   UNL     1       7.148   4.801  17.824  0.00  0.00    +0.000 A 
ATOM     14  C   UNL     1       7.440   4.760  16.467  0.00  0.00    +0.000 A 
ATOM     15  C   UNL     1       6.450   4.388  15.565  0.00  0.00    +0.000 A 
ATOM     16  C   UNL     1       5.185   4.011  16.029  0.00  0.00    +0.000 A 
ENDBRANCH  10  11
ENDBRANCH   3   5
BRANCH   1  17
ATOM     17  C   UNL     1       2.646   8.229  18.175  0.00  0.00    +0.000 C 
BRANCH  17  18
ATOM     18  O   UNL     1       1.317   8.691  17.909  0.00  0.00    +0.000 OA
BRANCH  18  19
ATOM     19  C   UNL     1       1.066   9.972  18.308  0.00  0.00    +0.000 C 
ATOM     20  O   UNL     1       1.886  10.878  18.247  0.00  0.00    +0.000 OA
BRANCH  19  21
ATOM     21  C   UNL     1      -0.367  10.113  18.828  0.00  0.00    +0.000 C 
BRANCH  21  22
ATOM     22  C   UNL     1      -0.419  10.157  20.356  0.00  0.00    +0.000 A 
ATOM     23  C   UNL     1      -0.065   9.032  21.114  0.00  0.00    +0.000 A 
ATOM     24  C   UNL     1      -0.178   9.048  22.508  0.00  0.00    +0.000 A 
ATOM     25  C   UNL     1      -0.641  10.187  23.161  0.00  0.00    +0.000 A 
ATOM     26  C   UNL     1      -0.982  11.317  22.425  0.00  0.00    +0.000 A 
ATOM     27  C   UNL     1      -0.862  11.308  21.034  0.00  0.00    +0.000 A 
ENDBRANCH  21  22
BRANCH  21  29
ATOM     28  C   UNL     1      -2.373  11.067  17.545  0.00  0.00    +0.000 C 
ATOM     29  C   UNL     1      -1.052  11.364  18.235  0.00  0.00    +0.000 C 
ENDBRANCH  21  29
ENDBRANCH  19  21
ENDBRANCH  18  19
ENDBRANCH  17  18
ENDBRANCH   1  17
TORSDOF 8
ENDMDL
MODEL 3
REMARK VINA RESULT:      -8.0      1.339      1.635
REMARK  Name = 
REMARK  9 active torsions:
REMARK  status: ('A' for Active; 'I' for Inactive)
REMARK    1  A    between atoms: C_1  and  C_2
REMARK    2  A    between atoms: C_2  and  C_3
REMARK    3  A    between atoms: C_3  and  C_4
REMARK    4  A    between atoms: C_3  and  C_23
REMARK    5  A    between atoms: C_4  and  O_6
REMARK    6  A    between atoms: O_6  and  C_7
REMARK    7  A    between atoms: C_7  and  C_8
REMARK    8  A    between atoms: N_10  and  C_11
REMARK    9  A    between atoms: C_16  and  C_17
REMARK                            x       y       z     vdW  Elec       q    Type
REMARK                         _______ _______ _______ _____ _____    ______ ____
ROOT
ATOM      1  C   UNL     1       2.717   6.817  18.578  0.00  0.00    +0.000 C 
ATOM      2  O   UNL     1       2.947   6.629  19.771  0.00  0.00    +0.000 OA
ATOM      3  N   UNL     1       2.481   5.811  17.639  0.00  0.00    +0.000 N 
ATOM      4  H   UNL     1       1.908   6.072  16.845  0.00  0.00    +0.000 HD
ENDROOT
BRANCH   3   5
ATOM      5  C   UNL     1       2.401   4.449  18.032  0.00  0.00    +0.000 A 
ATOM      6  C   UNL     1       1.170   3.986  18.533  0.00  0.00    +0.000 A 
ATOM      7  C   UNL     1       1.030   2.680  18.996  0.00  0.00    +0.000 A 
ATOM      8  C   UNL     1       2.107   1.810  18.924  0.00  0.00    +0.000 A 
ATOM      9  C   UNL     1       3.330   2.258  18.416  0.00  0.00    +0.000 A 
ATOM     10  C   UNL     1       3.531   3.593  17.990  0.00  0.00    +0.000 A 
BRANCH  10  11
ATOM     11  C   UNL     1       4.883   3.994  17.497  0.00  0.00    +0.000 A 
ATOM     12  C   UNL     1       5.255   3.913  16.143  0.00  0.00    +0.000 A 
ATOM     13  C   UNL     1       6.502   4.360  15.690  0.00  0.00    +0.000 A 
ATOM     14  C   UNL     1       7.443   4.834  16.596  0.00  0.00    +0.000 A 
ATOM     15  C   UNL     1       7.136   4.862  17.950  0.00  0.00    +0.000 A 
ATOM     16  C   UNL     1       5.869   4.463  18.390  0.00  0.00    +0.000 A 
ENDBRANCH  10  11
ENDBRANCH   3   5
BRANCH   1  17
ATOM     17  C   UNL     1       2.645   8.233  17.989  0.00  0.00    +0.000 C 
BRANCH  17  18
ATOM     18  O   UNL     1       1.313   8.733  17.832  0.00  0.00    +0.000 OA
BRANCH  18  19
ATOM     19  C   UNL     1       1.121  10.006  18.288  0.00  0.00    +0.000 C 
ATOM     20  O   UNL     1       1.983  10.874  18.268  0.00  0.00    +0.000 OA
BRANCH  19  21
ATOM     21  C   UNL     1      -0.305  10.189  18.813  0.00  0.00    +0.000 C 
BRANCH  21  22
ATOM     22  C   UNL     1      -0.367  10.110  20.340  0.00  0.00    +0.000 A 
ATOM     23  C   UNL     1      -0.964  11.137  21.083  0.00  0.00    +0.000 A 
ATOM     24  C   UNL     1      -0.960  11.100  22.482  0.00  0.00    +0.000 A 
ATOM     25  C   UNL     1      -0.365  10.036  23.153  0.00  0.00    +0.000 A 
ATOM     26  C   UNL     1       0.218   9.000  22.430  0.00  0.00    +0.000 A 
ATOM     27  C   UNL     1       0.209   9.029  21.034  0.00  0.00    +0.000 A 
ENDBRANCH  21  22
BRANCH  21  29
ATOM     28  C   UNL     1      -2.147  11.356  17.462  0.00  0.00    +0.000 C 
ATOM     29  C   UNL     1      -0.908  11.525  18.325  0.00  0.00    +0.000 C 
ENDBRANCH  21  29
ENDBRANCH  19  21
ENDBRANCH  18  19
ENDBRANCH  17  18
ENDBRANCH   1  17
TORSDOF 8
ENDMDL
MODEL 4
REMARK VINA RESULT:      -7.9      1.433      1.943
REMARK  Name = 
REMARK  9 active torsions:
REMARK  status: ('A' for Active; 'I' for Inactive)
REMARK    1  A    between atoms: C_1  and  C_2
REMARK    2  A    between atoms: C_2  and  C_3
REMARK    3  A    between atoms: C_3  and  C_4
REMARK    4  A    between atoms: C_3  and  C_23
REMARK    5  A    between atoms: C_4  and  O_6
REMARK    6  A    between atoms: O_6  and  C_7
REMARK    7  A    between atoms: C_7  and  C_8
REMARK    8  A    between atoms: N_10  and  C_11
REMARK    9  A    between atoms: C_16  and  C_17
REMARK                            x       y       z     vdW  Elec       q    Type
REMARK                         _______ _______ _______ _____ _____    ______ ____
ROOT
ATOM      1  C   UNL     1       2.495   6.790  18.676  0.00  0.00    +0.000 C 
ATOM      2  O   UNL     1       2.570   6.594  19.887  0.00  0.00    +0.000 OA
ATOM      3  N   UNL     1       2.512   5.791  17.701  0.00  0.00    +0.000 N 
ATOM      4  H   UNL     1       2.034   6.009  16.834  0.00  0.00    +0.000 HD
ENDROOT
BRANCH   3   5
ATOM      5  C   UNL     1       2.531   4.417  18.061  0.00  0.00    +0.000 A 
ATOM      6  C   UNL     1       1.293   3.764  18.203  0.00  0.00    +0.000 A 
ATOM      7  C   UNL     1       1.226   2.434  18.615  0.00  0.00    +0.000 A 
ATOM      8  C   UNL     1       2.399   1.733  18.848  0.00  0.00    +0.000 A 
ATOM      9  C   UNL     1       3.634   2.370  18.696  0.00  0.00    +0.000 A 
ATOM     10  C   UNL     1       3.744   3.735  18.338  0.00  0.00    +0.000 A 
BRANCH  10  11
ATOM     11  C   UNL     1       5.104   4.344  18.237  0.00  0.00    +0.000 A 
ATOM     12  C   UNL     1       5.694   5.068  19.289  0.00  0.00    +0.000 A 
ATOM     13  C   UNL     1       6.998   5.570  19.202  0.00  0.00    +0.000 A 
ATOM     14  C   UNL     1       7.722   5.425  18.025  0.00  0.00    +0.000 A 
ATOM     15  C   UNL     1       7.145   4.777  16.941  0.00  0.00    +0.000 A 
ATOM     16  C   UNL     1       5.861   4.232  17.053  0.00  0.00    +0.000 A 
ENDBRANCH  10  11
ENDBRANCH   3   5
BRANCH   1  17
ATOM     17  C   UNL     1       2.350   8.205  18.099  0.00  0.00    +0.000 C 
BRANCH  17  18
ATOM     18  O   UNL     1       2.130   9.218  19.087  0.00  0.00    +0.000 OA
BRANCH  18  19
ATOM     19  C   UNL     1       1.322  10.243  18.687  0.00  0.00    +0.000 C 
ATOM     20  O   UNL     1       1.732  11.263  18.149  0.00  0.00    +0.000 OA
BRANCH  19  21
ATOM     21  C   UNL     1      -0.145   9.939  18.999  0.00  0.00    +0.000 C 
BRANCH  21  22
ATOM     22  C   UNL     1      -0.470  10.141  20.480  0.00  0.00    +0.000 A 
ATOM     23  C   UNL     1      -0.982  11.364  20.935  0.00  0.00    +0.000 A 
ATOM     24  C   UNL     1      -1.214  11.575  22.299  0.00  0.00    +0.000 A 
ATOM     25  C   UNL     1      -0.943  10.568  23.221  0.00  0.00    +0.000 A 
ATOM     26  C   UNL     1      -0.449   9.343  22.783  0.00  0.00    +0.000 A 
ATOM     27  C   UNL     1      -0.224   9.125  21.422  0.00  0.00    +0.000 A 
ENDBRANCH  21  22
BRANCH  21  29
ATOM     28  C   UNL     1      -2.084   9.980  17.319  0.00  0.00    +0.000 C 
ATOM     29  C   UNL     1      -1.087  10.796  18.125  0.00  0.00    +0.000 C 
ENDBRANCH  21  29
ENDBRANCH  19  21
ENDBRANCH  18  19
ENDBRANCH  17  18
ENDBRANCH   1  17
TORSDOF 8
ENDMDL
MODEL 5
REMARK VINA RESULT:      -7.8      1.555      3.198
REMARK  Name = 
REMARK  9 active torsions:
REMARK  status: ('A' for Active; 'I' for Inactive)
REMARK    1  A    between atoms: C_1  and  C_2
REMARK    2  A    between atoms: C_2  and  C_3
REMARK    3  A    between atoms: C_3  and  C_4
REMARK    4  A    between atoms: C_3  and  C_23
REMARK    5  A    between atoms: C_4  and  O_6
REMARK    6  A    between atoms: O_6  and  C_7
REMARK    7  A    between atoms: C_7  and  C_8
REMARK    8  A    between atoms: N_10  and  C_11
REMARK    9  A    between atoms: C_16  and  C_17
REMARK                            x       y       z     vdW  Elec       q    Type
REMARK                         _______ _______ _______ _____ _____    ______ ____
ROOT
ATOM      1  C   UNL     1       2.540   6.574  18.818  0.00  0.00    +0.000 C 
ATOM      2  O   UNL     1       2.691   6.278  20.002  0.00  0.00    +0.000 OA
ATOM      3  N   UNL     1       2.429   5.657  17.772  0.00  0.00    +0.000 N 
ATOM      4  H   UNL     1       1.904   5.968  16.962  0.00  0.00    +0.000 HD
ENDROOT
BRANCH   3   5
ATOM      5  C   UNL     1       2.395   4.260  18.024  0.00  0.00    +0.000 A 
ATOM      6  C   UNL     1       1.186   3.712  18.492  0.00  0.00    +0.000 A 
ATOM      7  C   UNL     1       1.091   2.361  18.821  0.00  0.00    +0.000 A 
ATOM      8  C   UNL     1       2.191   1.537  18.646  0.00  0.00    +0.000 A 
ATOM      9  C   UNL     1       3.392   2.070  18.169  0.00  0.00    +0.000 A 
ATOM     10  C   UNL     1       3.548   3.447  17.879  0.00  0.00    +0.000 A 
BRANCH  10  11
ATOM     11  C   UNL     1       4.880   3.936  17.411  0.00  0.00    +0.000 A 
ATOM     12  C   UNL     1       5.836   4.491  18.280  0.00  0.00    +0.000 A 
ATOM     13  C   UNL     1       7.105   4.877  17.834  0.00  0.00    +0.000 A 
ATOM     14  C   UNL     1       7.427   4.788  16.486  0.00  0.00    +0.000 A 
ATOM     15  C   UNL     1       6.482   4.310  15.587  0.00  0.00    +0.000 A 
ATOM     16  C   UNL     1       5.233   3.877  16.047  0.00  0.00    +0.000 A 
ENDBRANCH  10  11
ENDBRANCH   3   5
BRANCH   1  17
ATOM     17  C   UNL     1       2.436   8.037  18.364  0.00  0.00    +0.000 C 
BRANCH  17  18
ATOM     18  O   UNL     1       1.425   8.788  19.044  0.00  0.00    +0.000 OA
BRANCH  18  19
ATOM     19  C   UNL     1       1.214  10.044  18.552  0.00  0.00    +0.000 C 
ATOM     20  O   UNL     1       1.877  10.543  17.653  0.00  0.00    +0.000 OA
BRANCH  19  21
ATOM     21  C   UNL     1       0.046  10.725  19.269  0.00  0.00    +0.000 C 
BRANCH  21  22
ATOM     22  C   UNL     1      -1.221  10.740  18.412  0.00  0.00    +0.000 A 
ATOM     23  C   UNL     1      -2.272  11.617  18.712  0.00  0.00    +0.000 A 
ATOM     24  C   UNL     1      -3.460  11.584  17.972  0.00  0.00    +0.000 A 
ATOM     25  C   UNL     1      -3.609  10.680  16.924  0.00  0.00    +0.000 A 
ATOM     26  C   UNL     1      -2.568   9.814  16.604  0.00  0.00    +0.000 A 
ATOM     27  C   UNL     1      -1.378   9.849  17.334  0.00  0.00    +0.000 A 
ENDBRANCH  21  22
BRANCH  21  29
ATOM     28  C   UNL     1      -0.164  11.003  21.811  0.00  0.00    +0.000 C 
ATOM     29  C   UNL     1      -0.239  10.050  20.629  0.00  0.00    +0.000 C 
ENDBRANCH  21  29
ENDBRANCH  19  21
ENDBRANCH  18  19
ENDBRANCH  17  18
ENDBRANCH   1  17
TORSDOF 8
ENDMDL
MODEL 6
REMARK VINA RESULT:      -7.8      1.536      1.685
REMARK  Name = 
REMARK  9 active torsions:
REMARK  status: ('A' for Active; 'I' for Inactive)
REMARK    1  A    between atoms: C_1  and  C_2
REMARK    2  A    between atoms: C_2  and  C_3
REMARK    3  A    between atoms: C_3  and  C_4
REMARK    4  A    between atoms: C_3  and  C_23
REMARK    5  A    between atoms: C_4  and  O_6
REMARK    6  A    between atoms: O_6  and  C_7
REMARK    7  A    between atoms: C_7  and  C_8
REMARK    8  A    between atoms: N_10  and  C_11
REMARK    9  A    between atoms: C_16  and  C_17
REMARK                            x       y       z     vdW  Elec       q    Type
REMARK                         _______ _______ _______ _____ _____    ______ ____
ROOT
ATOM      1  C   UNL     1       2.795   6.548  18.648  0.00  0.00    +0.000 C 
ATOM      2  O   UNL     1       3.343   6.254  19.709  0.00  0.00    +0.000 OA
ATOM      3  N   UNL     1       2.341   5.630  17.700  0.00  0.00    +0.000 N 
ATOM      4  H   UNL     1       1.569   5.937  17.119  0.00  0.00    +0.000 HD
ENDROOT
BRANCH   3   5
ATOM      5  C   UNL     1       2.405   4.233  17.945  0.00  0.00    +0.000 A 
ATOM      6  C   UNL     1       1.279   3.622  18.527  0.00  0.00    +0.000 A 
ATOM      7  C   UNL     1       1.288   2.268  18.856  0.00  0.00    +0.000 A 
ATOM      8  C   UNL     1       2.407   1.502  18.567  0.00  0.00    +0.000 A 
ATOM      9  C   UNL     1       3.525   2.099  17.977  0.00  0.00    +0.000 A 
ATOM     10  C   UNL     1       3.579   3.482  17.681  0.00  0.00    +0.000 A 
BRANCH  10  11
ATOM     11  C   UNL     1       4.830   4.041  17.087  0.00  0.00    +0.000 A 
ATOM     12  C   UNL     1       5.027   4.158  15.699  0.00  0.00    +0.000 A 
ATOM     13  C   UNL     1       6.177   4.750  15.162  0.00  0.00    +0.000 A 
ATOM     14  C   UNL     1       7.198   5.176  16.003  0.00  0.00    +0.000 A 
ATOM     15  C   UNL     1       7.068   5.012  17.376  0.00  0.00    +0.000 A 
ATOM     16  C   UNL     1       5.894   4.467  17.908  0.00  0.00    +0.000 A 
ENDBRANCH  10  11
ENDBRANCH   3   5
BRANCH   1  17
ATOM     17  C   UNL     1       2.531   8.010  18.260  0.00  0.00    +0.000 C 
BRANCH  17  18
ATOM     18  O   UNL     1       1.814   8.756  19.250  0.00  0.00    +0.000 OA
BRANCH  18  19
ATOM     19  C   UNL     1       1.190   9.877  18.783  0.00  0.00    +0.000 C 
ATOM     20  O   UNL     1       1.761  10.767  18.167  0.00  0.00    +0.000 OA
BRANCH  19  21
ATOM     21  C   UNL     1      -0.300   9.858  19.128  0.00  0.00    +0.000 C 
BRANCH  21  22
ATOM     22  C   UNL     1      -0.579  10.488  20.495  0.00  0.00    +0.000 A 
ATOM     23  C   UNL     1      -0.391   9.749  21.670  0.00  0.00    +0.000 A 
ATOM     24  C   UNL     1      -0.711  10.300  22.916  0.00  0.00    +0.000 A 
ATOM     25  C   UNL     1      -1.218  11.593  23.002  0.00  0.00    +0.000 A 
ATOM     26  C   UNL     1      -1.396  12.345  21.845  0.00  0.00    +0.000 A 
ATOM     27  C   UNL     1      -1.070  11.803  20.601  0.00  0.00    +0.000 A 
ENDBRANCH  21  22
BRANCH  21  29
ATOM     28  C   UNL     1      -2.476   9.909  17.769  0.00  0.00    +0.000 C 
ATOM     29  C   UNL     1      -1.132  10.566  18.036  0.00  0.00    +0.000 C 
ENDBRANCH  21  29
ENDBRANCH  19  21
ENDBRANCH  18  19
ENDBRANCH  17  18
ENDBRANCH   1  17
TORSDOF 8
ENDMDL
MODEL 7
REMARK VINA RESULT:      -7.8      1.043      1.199
REMARK  Name = 
REMARK  9 active torsions:
REMARK  status: ('A' for Active; 'I' for Inactive)
REMARK    1  A    between atoms: C_1  and  C_2
REMARK    2  A    between atoms: C_2  and  C_3
REMARK    3  A    between atoms: C_3  and  C_4
REMARK    4  A    between atoms: C_3  and  C_23
REMARK    5  A    between atoms: C_4  and  O_6
REMARK    6  A    between atoms: O_6  and  C_7
REMARK    7  A    between atoms: C_7  and  C_8
REMARK    8  A    between atoms: N_10  and  C_11
REMARK    9  A    between atoms: C_16  and  C_17
REMARK                            x       y       z     vdW  Elec       q    Type
REMARK                         _______ _______ _______ _____ _____    ______ ____
ROOT
ATOM      1  C   UNL     1       2.369   7.445  18.843  0.00  0.00    +0.000 C 
ATOM      2  O   UNL     1       2.233   7.646  20.049  0.00  0.00    +0.000 OA
ATOM      3  N   UNL     1       2.579   6.195  18.259  0.00  0.00    +0.000 N 
ATOM      4  H   UNL     1       2.258   6.092  17.303  0.00  0.00    +0.000 HD
ENDROOT
BRANCH   3   5
ATOM      5  C   UNL     1       2.561   5.010  19.041  0.00  0.00    +0.000 A 
ATOM      6  C   UNL     1       1.467   4.814  19.904  0.00  0.00    +0.000 A 
ATOM      7  C   UNL     1       1.408   3.708  20.748  0.00  0.00    +0.000 A 
ATOM      8  C   UNL     1       2.423   2.763  20.708  0.00  0.00    +0.000 A 
ATOM      9  C   UNL     1       3.507   2.943  19.844  0.00  0.00    +0.000 A 
ATOM     10  C   UNL     1       3.634   4.082  19.013  0.00  0.00    +0.000 A 
BRANCH  10  11
ATOM     11  C   UNL     1       4.846   4.210  18.150  0.00  0.00    +0.000 A 
ATOM     12  C   UNL     1       4.860   3.834  16.795  0.00  0.00    +0.000 A 
ATOM     13  C   UNL     1       5.984   4.028  15.984  0.00  0.00    +0.000 A 
ATOM     14  C   UNL     1       7.156   4.537  16.529  0.00  0.00    +0.000 A 
ATOM     15  C   UNL     1       7.202   4.853  17.881  0.00  0.00    +0.000 A 
ATOM     16  C   UNL     1       6.058   4.706  18.674  0.00  0.00    +0.000 A 
ENDBRANCH  10  11
ENDBRANCH   3   5
BRANCH   1  17
ATOM     17  C   UNL     1       2.299   8.593  17.826  0.00  0.00    +0.000 C 
BRANCH  17  18
ATOM     18  O   UNL     1       0.986   9.135  17.648  0.00  0.00    +0.000 OA
BRANCH  18  19
ATOM     19  C   UNL     1       0.698  10.210  18.438  0.00  0.00    +0.000 C 
ATOM     20  O   UNL     1       1.491  11.109  18.682  0.00  0.00    +0.000 OA
BRANCH  19  21
ATOM     21  C   UNL     1      -0.738  10.134  18.964  0.00  0.00    +0.000 C 
BRANCH  21  22
ATOM     22  C   UNL     1      -0.861  10.708  20.377  0.00  0.00    +0.000 A 
ATOM     23  C   UNL     1      -0.366   9.999  21.479  0.00  0.00    +0.000 A 
ATOM     24  C   UNL     1      -0.539  10.490  22.778  0.00  0.00    +0.000 A 
ATOM     25  C   UNL     1      -1.205  11.694  22.990  0.00  0.00    +0.000 A 
ATOM     26  C   UNL     1      -1.689  12.418  21.905  0.00  0.00    +0.000 A 
ATOM     27  C   UNL     1      -1.510  11.936  20.606  0.00  0.00    +0.000 A 
ENDBRANCH  21  22
BRANCH  21  29
ATOM     28  C   UNL     1      -2.744   9.927  17.377  0.00  0.00    +0.000 C 
ATOM     29  C   UNL     1      -1.717  10.853  18.009  0.00  0.00    +0.000 C 
ENDBRANCH  21  29
ENDBRANCH  19  21
ENDBRANCH  18  19
ENDBRANCH  17  18
ENDBRANCH   1  17
TORSDOF 8
ENDMDL
MODEL 8
REMARK VINA RESULT:      -7.8      1.003      1.595
REMARK  Name = 
REMARK  9 active torsions:
REMARK  status: ('A' for Active; 'I' for Inactive)
REMARK    1  A    between atoms: C_1  and  C_2
REMARK    2  A    between atoms: C_2  and  C_3
REMARK    3  A    between atoms: C_3  and  C_4
REMARK    4  A    between atoms: C_3  and  C_23
REMARK    5  A    between atoms: C_4  and  O_6
REMARK    6  A    between atoms: O_6  and  C_7
REMARK    7  A    between atoms: C_7  and  C_8
REMARK    8  A    between atoms: N_10  and  C_11
REMARK    9  A    between atoms: C_16  and  C_17
REMARK                            x       y       z     vdW  Elec       q    Type
REMARK                         _______ _______ _______ _____ _____    ______ ____
ROOT
ATOM      1  C   UNL     1       2.226   7.205  18.902  0.00  0.00    +0.000 C 
ATOM      2  O   UNL     1       2.455   7.370  20.099  0.00  0.00    +0.000 OA
ATOM      3  N   UNL     1       2.172   5.967  18.260  0.00  0.00    +0.000 N 
ATOM      4  H   UNL     1       1.585   5.920  17.435  0.00  0.00    +0.000 HD
ENDROOT
BRANCH   3   5
ATOM      5  C   UNL     1       2.295   4.757  18.994  0.00  0.00    +0.000 A 
ATOM      6  C   UNL     1       1.233   4.400  19.845  0.00  0.00    +0.000 A 
ATOM      7  C   UNL     1       1.306   3.261  20.645  0.00  0.00    +0.000 A 
ATOM      8  C   UNL     1       2.424   2.445  20.569  0.00  0.00    +0.000 A 
ATOM      9  C   UNL     1       3.478   2.785  19.716  0.00  0.00    +0.000 A 
ATOM     10  C   UNL     1       3.469   3.963  18.932  0.00  0.00    +0.000 A 
BRANCH  10  11
ATOM     11  C   UNL     1       4.656   4.267  18.078  0.00  0.00    +0.000 A 
ATOM     12  C   UNL     1       5.807   4.908  18.573  0.00  0.00    +0.000 A 
ATOM     13  C   UNL     1       6.937   5.120  17.774  0.00  0.00    +0.000 A 
ATOM     14  C   UNL     1       6.919   4.761  16.433  0.00  0.00    +0.000 A 
ATOM     15  C   UNL     1       5.774   4.189  15.892  0.00  0.00    +0.000 A 
ATOM     16  C   UNL     1       4.667   3.933  16.708  0.00  0.00    +0.000 A 
ENDBRANCH  10  11
ENDBRANCH   3   5
BRANCH   1  17
ATOM     17  C   UNL     1       1.950   8.392  17.967  0.00  0.00    +0.000 C 
BRANCH  17  18
ATOM     18  O   UNL     1       2.427   9.647  18.462  0.00  0.00    +0.000 OA
BRANCH  18  19
ATOM     19  C   UNL     1       1.484  10.633  18.528  0.00  0.00    +0.000 C 
ATOM     20  O   UNL     1       1.725  11.819  18.351  0.00  0.00    +0.000 OA
BRANCH  19  21
ATOM     21  C   UNL     1       0.104  10.050  18.844  0.00  0.00    +0.000 C 
BRANCH  21  22
ATOM     22  C   UNL     1      -0.227  10.141  20.335  0.00  0.00    +0.000 A 
ATOM     23  C   UNL     1      -0.577  11.369  20.913  0.00  0.00    +0.000 A 
ATOM     24  C   UNL     1      -0.813  11.467  22.289  0.00  0.00    +0.000 A 
ATOM     25  C   UNL     1      -0.707  10.342  23.101  0.00  0.00    +0.000 A 
ATOM     26  C   UNL     1      -0.375   9.112  22.540  0.00  0.00    +0.000 A 
ATOM     27  C   UNL     1      -0.147   9.008  21.166  0.00  0.00    +0.000 A 
ENDBRANCH  21  22
BRANCH  21  29
ATOM     28  C   UNL     1      -1.962   9.778  17.348  0.00  0.00    +0.000 C 
ATOM     29  C   UNL     1      -0.995  10.745  18.011  0.00  0.00    +0.000 C 
ENDBRANCH  21  29
ENDBRANCH  19  21
ENDBRANCH  18  19
ENDBRANCH  17  18
ENDBRANCH   1  17
TORSDOF 8
ENDMDL
MODEL 9
REMARK VINA RESULT:      -7.7      2.067      3.052
REMARK  Name = 
REMARK  9 active torsions:
REMARK  status: ('A' for Active; 'I' for Inactive)
REMARK    1  A    between atoms: C_1  and  C_2
REMARK    2  A    between atoms: C_2  and  C_3
REMARK    3  A    between atoms: C_3  and  C_4
REMARK    4  A    between atoms: C_3  and  C_23
REMARK    5  A    between atoms: C_4  and  O_6
REMARK    6  A    between atoms: O_6  and  C_7
REMARK    7  A    between atoms: C_7  and  C_8
REMARK    8  A    between atoms: N_10  and  C_11
REMARK    9  A    between atoms: C_16  and  C_17
REMARK                            x       y       z     vdW  Elec       q    Type
REMARK                         _______ _______ _______ _____ _____    ______ ____
ROOT
ATOM      1  C   UNL     1       2.902   6.711  18.550  0.00  0.00    +0.000 C 
ATOM      2  O   UNL     1       3.332   6.427  19.667  0.00  0.00    +0.000 OA
ATOM      3  N   UNL     1       2.490   5.784  17.592  0.00  0.00    +0.000 N 
ATOM      4  H   UNL     1       1.794   6.108  16.931  0.00  0.00    +0.000 HD
ENDROOT
BRANCH   3   5
ATOM      5  C   UNL     1       2.455   4.395  17.885  0.00  0.00    +0.000 A 
ATOM      6  C   UNL     1       1.280   3.880  18.463  0.00  0.00    +0.000 A 
ATOM      7  C   UNL     1       1.192   2.541  18.837  0.00  0.00    +0.000 A 
ATOM      8  C   UNL     1       2.262   1.693  18.597  0.00  0.00    +0.000 A 
ATOM      9  C   UNL     1       3.429   2.193  18.011  0.00  0.00    +0.000 A 
ATOM     10  C   UNL     1       3.581   3.558  17.671  0.00  0.00    +0.000 A 
BRANCH  10  11
ATOM     11  C   UNL     1       4.877   4.012  17.084  0.00  0.00    +0.000 A 
ATOM     12  C   UNL     1       5.963   4.438  17.871  0.00  0.00    +0.000 A 
ATOM     13  C   UNL     1       7.193   4.792  17.305  0.00  0.00    +0.000 A 
ATOM     14  C   UNL     1       7.349   4.799  15.925  0.00  0.00    +0.000 A 
ATOM     15  C   UNL     1       6.277   4.451  15.113  0.00  0.00    +0.000 A 
ATOM     16  C   UNL     1       5.065   4.049  15.686  0.00  0.00    +0.000 A 
ENDBRANCH  10  11
ENDBRANCH   3   5
BRANCH   1  17
ATOM     17  C   UNL     1       2.755   8.169  18.094  0.00  0.00    +0.000 C 
BRANCH  17  18
ATOM     18  O   UNL     1       1.398   8.593  17.924  0.00  0.00    +0.000 OA
BRANCH  18  19
ATOM     19  C   UNL     1       0.934   9.433  18.895  0.00  0.00    +0.000 C 
ATOM     20  O   UNL     1       0.943   9.164  20.089  0.00  0.00    +0.000 OA
BRANCH  19  21
ATOM     21  C   UNL     1       0.414  10.738  18.288  0.00  0.00    +0.000 C 
BRANCH  21  22
ATOM     22  C   UNL     1      -1.111  10.743  18.160  0.00  0.00    +0.000 A 
ATOM     23  C   UNL     1      -1.752   9.875  17.266  0.00  0.00    +0.000 A 
ATOM     24  C   UNL     1      -3.140   9.926  17.097  0.00  0.00    +0.000 A 
ATOM     25  C   UNL     1      -3.902  10.839  17.821  0.00  0.00    +0.000 A 
ATOM     26  C   UNL     1      -3.282  11.696  18.724  0.00  0.00    +0.000 A 
ATOM     27  C   UNL     1      -1.898  11.643  18.902  0.00  0.00    +0.000 A 
ENDBRANCH  21  22
BRANCH  21  29
ATOM     28  C   UNL     1       2.095  12.662  18.524  0.00  0.00    +0.000 C 
ATOM     29  C   UNL     1       0.883  11.958  19.112  0.00  0.00    +0.000 C 
ENDBRANCH  21  29
ENDBRANCH  19  21
ENDBRANCH  18  19
ENDBRANCH  17  18
ENDBRANCH   1  17
TORSDOF 8
ENDMDL
