MODEL 1
REMARK VINA RESULT:      -9.4      0.000      0.000
REMARK  Name = 
REMARK  7 active torsions:
REMARK  status: ('A' for Active; 'I' for Inactive)
REMARK    1  A    between atoms: C_1  and  C_2
REMARK    2  A    between atoms: C_4  and  C_5
REMARK    3  A    between atoms: C_6  and  N_7
REMARK    4  A    between atoms: N_10  and  C_11
REMARK    5  A    between atoms: N_10  and  C_25
REMARK    6  A    between atoms: C_11  and  C_12
REMARK    7  A    between atoms: C_32  and  C_33
REMARK                            x       y       z     vdW  Elec       q    Type
REMARK                         _______ _______ _______ _____ _____    ______ ____
ROOT
ATOM      1  N   UNL     1      -1.930  11.197  19.376  0.00  0.00    +0.000 N 
ATOM      2  C   UNL     1      -0.856  12.059  19.509  0.00  0.00    +0.000 C 
ATOM      3  O   UNL     1      -0.921  13.251  19.195  0.00  0.00    +0.000 OA
ATOM      4  N   UNL     1       0.345  11.506  20.010  0.00  0.00    +0.000 N 
ATOM      5  H   UNL     1      -1.655  10.269  19.104  0.00  0.00    +0.000 HD
ENDROOT
BRANCH   1  11
ATOM      6  C   UNL     1      -6.874  12.970  16.956  0.00  0.00    +0.000 C 
ATOM      7  C   UNL     1      -5.604  12.494  17.600  0.00  0.00    +0.000 A 
ATOM      8  C   UNL     1      -4.677  11.737  16.886  0.00  0.00    +0.000 A 
ATOM      9  C   UNL     1      -3.475  11.294  17.480  0.00  0.00    +0.000 A 
ATOM     10  C   UNL     1      -2.516  10.525  16.611  0.00  0.00    +0.000 C 
ATOM     11  C   UNL     1      -3.186  11.622  18.825  0.00  0.00    +0.000 A 
ATOM     12  C   UNL     1      -4.156  12.325  19.573  0.00  0.00    +0.000 A 
ATOM     13  C   UNL     1      -4.034  12.617  21.045  0.00  0.00    +0.000 C 
ATOM     14  C   UNL     1      -5.338  12.778  18.940  0.00  0.00    +0.000 A 
ENDBRANCH   1  11
BRANCH   4  15
ATOM     15  C   UNL     1       1.476  12.478  20.165  0.00  0.00    +0.000 C 
ATOM     16  C   UNL     1       2.201  12.756  18.833  0.00  0.00    +0.000 C 
ATOM     17  C   UNL     1       2.074  14.173  18.272  0.00  0.00    +0.000 C 
ATOM     18  C   UNL     1       3.103  15.131  18.870  0.00  0.00    +0.000 C 
ATOM     19  C   UNL     1       2.812  15.607  20.291  0.00  0.00    +0.000 C 
ATOM     20  C   UNL     1       2.489  14.517  21.313  0.00  0.00    +0.000 C 
ATOM     21  C   UNL     1       1.198  13.729  21.022  0.00  0.00    +0.000 C 
ENDBRANCH   4  15
BRANCH   4  22
ATOM     22  C   UNL     1       0.470  10.142  20.573  0.00  0.00    +0.000 C 
BRANCH  22  23
ATOM     23  C   UNL     1       1.237   9.129  19.741  0.00  0.00    +0.000 A 
ATOM     24  C   UNL     1       1.556   9.430  18.391  0.00  0.00    +0.000 A 
ATOM     25  C   UNL     1       2.349   8.575  17.609  0.00  0.00    +0.000 A 
ATOM     26  C   UNL     1       2.837   7.418  18.188  0.00  0.00    +0.000 A 
ATOM     27  C   UNL     1       2.448   7.072  19.496  0.00  0.00    +0.000 A 
ATOM     28  C   UNL     1       1.624   7.887  20.258  0.00  0.00    +0.000 A 
ATOM     29  C   UNL     1       3.147   5.803  19.940  0.00  0.00    +0.000 C 
ATOM     30  C   UNL     1       4.068   5.534  18.769  0.00  0.00    +0.000 A 
ATOM     31  C   UNL     1       5.071   4.585  18.683  0.00  0.00    +0.000 A 
ATOM     32  C   UNL     1       5.861   4.572  17.532  0.00  0.00    +0.000 A 
ATOM     33  C   UNL     1       5.620   5.479  16.485  0.00  0.00    +0.000 A 
ATOM     34  C   UNL     1       4.596   6.431  16.578  0.00  0.00    +0.000 A 
ATOM     35  C   UNL     1       3.833   6.467  17.734  0.00  0.00    +0.000 A 
ENDBRANCH  22  23
ENDBRANCH   4  22
TORSDOF 4
ENDMDL
MODEL 2
REMARK VINA RESULT:      -9.4      0.959      2.139
REMARK  Name = 
REMARK  7 active torsions:
REMARK  status: ('A' for Active; 'I' for Inactive)
REMARK    1  A    between atoms: C_1  and  C_2
REMARK    2  A    between atoms: C_4  and  C_5
REMARK    3  A    between atoms: C_6  and  N_7
REMARK    4  A    between atoms: N_10  and  C_11
REMARK    5  A    between atoms: N_10  and  C_25
REMARK    6  A    between atoms: C_11  and  C_12
REMARK    7  A    between atoms: C_32  and  C_33
REMARK                            x       y       z     vdW  Elec       q    Type
REMARK                         _______ _______ _______ _____ _____    ______ ____
ROOT
ATOM      1  N   UNL     1      -1.684  11.762  19.477  0.00  0.00    +0.000 N 
ATOM      2  C   UNL     1      -0.727  12.737  19.256  0.00  0.00    +0.000 C 
ATOM      3  O   UNL     1      -0.974  13.780  18.642  0.00  0.00    +0.000 OA
ATOM      4  N   UNL     1       0.571  12.478  19.753  0.00  0.00    +0.000 N 
ATOM      5  H   UNL     1      -1.309  10.831  19.436  0.00  0.00    +0.000 HD
ENDROOT
BRANCH   1  11
ATOM      6  C   UNL     1      -7.158  12.175  17.660  0.00  0.00    +0.000 C 
ATOM      7  C   UNL     1      -5.730  12.084  18.112  0.00  0.00    +0.000 A 
ATOM      8  C   UNL     1      -5.334  12.593  19.348  0.00  0.00    +0.000 A 
ATOM      9  C   UNL     1      -3.996  12.502  19.788  0.00  0.00    +0.000 A 
ATOM     10  C   UNL     1      -3.679  13.038  21.159  0.00  0.00    +0.000 C 
ATOM     11  C   UNL     1      -3.023  11.880  18.972  0.00  0.00    +0.000 A 
ATOM     12  C   UNL     1      -3.404  11.430  17.689  0.00  0.00    +0.000 A 
ATOM     13  C   UNL     1      -2.442  10.876  16.671  0.00  0.00    +0.000 C 
ATOM     14  C   UNL     1      -4.759  11.510  17.290  0.00  0.00    +0.000 A 
ENDBRANCH   1  11
BRANCH   4  15
ATOM     15  C   UNL     1       1.571  13.570  19.518  0.00  0.00    +0.000 C 
ATOM     16  C   UNL     1       2.084  14.194  20.831  0.00  0.00    +0.000 C 
ATOM     17  C   UNL     1       3.559  13.964  21.164  0.00  0.00    +0.000 C 
ATOM     18  C   UNL     1       4.474  14.985  20.487  0.00  0.00    +0.000 C 
ATOM     19  C   UNL     1       4.716  14.765  18.996  0.00  0.00    +0.000 C 
ATOM     20  C   UNL     1       3.472  14.560  18.134  0.00  0.00    +0.000 C 
ATOM     21  C   UNL     1       2.664  13.291  18.466  0.00  0.00    +0.000 C 
ENDBRANCH   4  15
BRANCH   4  22
ATOM     22  C   UNL     1       0.919  11.348  20.645  0.00  0.00    +0.000 C 
BRANCH  22  23
ATOM     23  C   UNL     1       1.307  10.044  19.972  0.00  0.00    +0.000 A 
ATOM     24  C   UNL     1       1.735  10.054  18.619  0.00  0.00    +0.000 A 
ATOM     25  C   UNL     1       2.201   8.894  17.980  0.00  0.00    +0.000 A 
ATOM     26  C   UNL     1       2.250   7.719  18.706  0.00  0.00    +0.000 A 
ATOM     27  C   UNL     1       1.742   7.685  20.018  0.00  0.00    +0.000 A 
ATOM     28  C   UNL     1       1.233   8.815  20.639  0.00  0.00    +0.000 A 
ATOM     29  C   UNL     1       1.953   6.317  20.635  0.00  0.00    +0.000 C 
ATOM     30  C   UNL     1       2.748   5.613  19.556  0.00  0.00    +0.000 A 
ATOM     31  C   UNL     1       3.366   4.377  19.630  0.00  0.00    +0.000 A 
ATOM     32  C   UNL     1       4.125   3.959  18.535  0.00  0.00    +0.000 A 
ATOM     33  C   UNL     1       4.230   4.762  17.386  0.00  0.00    +0.000 A 
ATOM     34  C   UNL     1       3.594   6.008  17.317  0.00  0.00    +0.000 A 
ATOM     35  C   UNL     1       2.868   6.439  18.415  0.00  0.00    +0.000 A 
ENDBRANCH  22  23
ENDBRANCH   4  22
TORSDOF 4
ENDMDL
MODEL 3
REMARK VINA RESULT:      -9.3      0.155      1.499
REMARK  Name = 
REMARK  7 active torsions:
REMARK  status: ('A' for Active; 'I' for Inactive)
REMARK    1  A    between atoms: C_1  and  C_2
REMARK    2  A    between atoms: C_4  and  C_5
REMARK    3  A    between atoms: C_6  and  N_7
REMARK    4  A    between atoms: N_10  and  C_11
REMARK    5  A    between atoms: N_10  and  C_25
REMARK    6  A    between atoms: C_11  and  C_12
REMARK    7  A    between atoms: C_32  and  C_33
REMARK                            x       y       z     vdW  Elec       q    Type
REMARK                         _______ _______ _______ _____ _____    ______ ____
ROOT
ATOM      1  N   UNL     1      -1.994  11.220  19.364  0.00  0.00    +0.000 N 
ATOM      2  C   UNL     1      -0.926  12.086  19.519  0.00  0.00    +0.000 C 
ATOM      3  O   UNL     1      -0.988  13.277  19.202  0.00  0.00    +0.000 OA
ATOM      4  N   UNL     1       0.266  11.537  20.046  0.00  0.00    +0.000 N 
ATOM      5  H   UNL     1      -1.711  10.293  19.100  0.00  0.00    +0.000 HD
ENDROOT
BRANCH   1  11
ATOM      6  C   UNL     1      -7.121  12.841  17.235  0.00  0.00    +0.000 C 
ATOM      7  C   UNL     1      -5.778  12.437  17.772  0.00  0.00    +0.000 A 
ATOM      8  C   UNL     1      -5.429  12.690  19.098  0.00  0.00    +0.000 A 
ATOM      9  C   UNL     1      -4.174  12.305  19.615  0.00  0.00    +0.000 A 
ATOM     10  C   UNL     1      -3.911  12.578  21.072  0.00  0.00    +0.000 C 
ATOM     11  C   UNL     1      -3.239  11.641  18.787  0.00  0.00    +0.000 A 
ATOM     12  C   UNL     1      -3.559  11.450  17.425  0.00  0.00    +0.000 A 
ATOM     13  C   UNL     1      -2.605  10.884  16.407  0.00  0.00    +0.000 C 
ATOM     14  C   UNL     1      -4.838  11.823  16.945  0.00  0.00    +0.000 A 
ENDBRANCH   1  11
BRANCH   4  15
ATOM     15  C   UNL     1       1.390  12.513  20.223  0.00  0.00    +0.000 C 
ATOM     16  C   UNL     1       2.176  12.752  18.918  0.00  0.00    +0.000 C 
ATOM     17  C   UNL     1       2.077  14.151  18.310  0.00  0.00    +0.000 C 
ATOM     18  C   UNL     1       3.080  15.126  18.925  0.00  0.00    +0.000 C 
ATOM     19  C   UNL     1       2.726  15.644  20.317  0.00  0.00    +0.000 C 
ATOM     20  C   UNL     1       2.354  14.586  21.355  0.00  0.00    +0.000 C 
ATOM     21  C   UNL     1       1.076  13.789  21.030  0.00  0.00    +0.000 C 
ENDBRANCH   4  15
BRANCH   4  22
ATOM     22  C   UNL     1       0.384  10.174  20.614  0.00  0.00    +0.000 C 
BRANCH  22  23
ATOM     23  C   UNL     1       1.153   9.157  19.790  0.00  0.00    +0.000 A 
ATOM     24  C   UNL     1       1.489   9.457  18.444  0.00  0.00    +0.000 A 
ATOM     25  C   UNL     1       2.285   8.597  17.669  0.00  0.00    +0.000 A 
ATOM     26  C   UNL     1       2.759   7.437  18.253  0.00  0.00    +0.000 A 
ATOM     27  C   UNL     1       2.354   7.093  19.557  0.00  0.00    +0.000 A 
ATOM     28  C   UNL     1       1.527   7.913  20.310  0.00  0.00    +0.000 A 
ATOM     29  C   UNL     1       3.040   5.820  20.008  0.00  0.00    +0.000 C 
ATOM     30  C   UNL     1       3.972   5.545  18.847  0.00  0.00    +0.000 A 
ATOM     31  C   UNL     1       4.970   4.590  18.771  0.00  0.00    +0.000 A 
ATOM     32  C   UNL     1       5.773   4.573  17.629  0.00  0.00    +0.000 A 
ATOM     33  C   UNL     1       5.549   5.482  16.580  0.00  0.00    +0.000 A 
ATOM     34  C   UNL     1       4.530   6.440  16.663  0.00  0.00    +0.000 A 
ATOM     35  C   UNL     1       3.754   6.480  17.809  0.00  0.00    +0.000 A 
ENDBRANCH  22  23
ENDBRANCH   4  22
TORSDOF 4
ENDMDL
MODEL 4
REMARK VINA RESULT:      -9.3      0.961      1.534
REMARK  Name = 
REMARK  7 active torsions:
REMARK  status: ('A' for Active; 'I' for Inactive)
REMARK    1  A    between atoms: C_1  and  C_2
REMARK    2  A    between atoms: C_4  and  C_5
REMARK    3  A    between atoms: C_6  and  N_7
REMARK    4  A    between atoms: N_10  and  C_11
REMARK    5  A    between atoms: N_10  and  C_25
REMARK    6  A    between atoms: C_11  and  C_12
REMARK    7  A    between atoms: C_32  and  C_33
REMARK                            x       y       z     vdW  Elec       q    Type
REMARK                         _______ _______ _______ _____ _____    ______ ____
ROOT
ATOM      1  N   UNL     1      -1.672  11.773  19.592  0.00  0.00    +0.000 N 
ATOM      2  C   UNL     1      -0.720  12.750  19.354  0.00  0.00    +0.000 C 
ATOM      3  O   UNL     1      -0.981  13.795  18.750  0.00  0.00    +0.000 OA
ATOM      4  N   UNL     1       0.588  12.489  19.821  0.00  0.00    +0.000 N 
ATOM      5  H   UNL     1      -1.297  10.843  19.539  0.00  0.00    +0.000 HD
ENDROOT
BRANCH   1  11
ATOM      6  C   UNL     1      -7.022  12.307  17.463  0.00  0.00    +0.000 C 
ATOM      7  C   UNL     1      -5.642  12.153  18.034  0.00  0.00    +0.000 A 
ATOM      8  C   UNL     1      -4.638  11.500  17.321  0.00  0.00    +0.000 A 
ATOM      9  C   UNL     1      -3.335  11.360  17.845  0.00  0.00    +0.000 A 
ATOM     10  C   UNL     1      -2.308  10.682  16.976  0.00  0.00    +0.000 C 
ATOM     11  C   UNL     1      -3.021  11.892  19.117  0.00  0.00    +0.000 A 
ATOM     12  C   UNL     1      -4.054  12.488  19.874  0.00  0.00    +0.000 A 
ATOM     13  C   UNL     1      -3.888  12.969  21.291  0.00  0.00    +0.000 C 
ATOM     14  C   UNL     1      -5.342  12.637  19.308  0.00  0.00    +0.000 A 
ENDBRANCH   1  11
BRANCH   4  15
ATOM     15  C   UNL     1       1.583  13.583  19.569  0.00  0.00    +0.000 C 
ATOM     16  C   UNL     1       2.120  14.205  20.873  0.00  0.00    +0.000 C 
ATOM     17  C   UNL     1       3.601  13.977  21.177  0.00  0.00    +0.000 C 
ATOM     18  C   UNL     1       4.502  14.999  20.485  0.00  0.00    +0.000 C 
ATOM     19  C   UNL     1       4.716  14.782  18.990  0.00  0.00    +0.000 C 
ATOM     20  C   UNL     1       3.456  14.577  18.151  0.00  0.00    +0.000 C 
ATOM     21  C   UNL     1       2.656  13.306  18.496  0.00  0.00    +0.000 C 
ENDBRANCH   4  15
BRANCH   4  22
ATOM     22  C   UNL     1       0.956  11.356  20.701  0.00  0.00    +0.000 C 
BRANCH  22  23
ATOM     23  C   UNL     1       1.326  10.053  20.014  0.00  0.00    +0.000 A 
ATOM     24  C   UNL     1       1.741  10.070  18.657  0.00  0.00    +0.000 A 
ATOM     25  C   UNL     1       2.190   8.911  18.004  0.00  0.00    +0.000 A 
ATOM     26  C   UNL     1       2.235   7.729  18.721  0.00  0.00    +0.000 A 
ATOM     27  C   UNL     1       1.739   7.690  20.038  0.00  0.00    +0.000 A 
ATOM     28  C   UNL     1       1.247   8.820  20.672  0.00  0.00    +0.000 A 
ATOM     29  C   UNL     1       1.943   6.315  20.642  0.00  0.00    +0.000 C 
ATOM     30  C   UNL     1       2.721   5.612  19.550  0.00  0.00    +0.000 A 
ATOM     31  C   UNL     1       3.328   4.370  19.608  0.00  0.00    +0.000 A 
ATOM     32  C   UNL     1       4.073   3.954  18.503  0.00  0.00    +0.000 A 
ATOM     33  C   UNL     1       4.175   4.765  17.359  0.00  0.00    +0.000 A 
ATOM     34  C   UNL     1       3.549   6.017  17.306  0.00  0.00    +0.000 A 
ATOM     35  C   UNL     1       2.838   6.446  18.414  0.00  0.00    +0.000 A 
ENDBRANCH  22  23
ENDBRANCH   4  22
TORSDOF 4
ENDMDL
MODEL 5
REMARK VINA RESULT:      -9.0      1.882      3.474
REMARK  Name = 
REMARK  7 active torsions:
REMARK  status: ('A' for Active; 'I' for Inactive)
REMARK    1  A    between atoms: C_1  and  C_2
REMARK    2  A    between atoms: C_4  and  C_5
REMARK    3  A    between atoms: C_6  and  N_7
REMARK    4  A    between atoms: N_10  and  C_11
REMARK    5  A    between atoms: N_10  and  C_25
REMARK    6  A    between atoms: C_11  and  C_12
REMARK    7  A    between atoms: C_32  and  C_33
REMARK                            x       y       z     vdW  Elec       q    Type
REMARK                         _______ _______ _______ _____ _____    ______ ____
ROOT
ATOM      1  N   UNL     1      -2.710  12.604  20.516  0.00  0.00    +0.000 N 
ATOM      2  C   UNL     1      -1.618  13.454  20.487  0.00  0.00    +0.000 C 
ATOM      3  O   UNL     1      -1.468  14.366  21.304  0.00  0.00    +0.000 OA
ATOM      4  N   UNL     1      -0.676  13.243  19.454  0.00  0.00    +0.000 N 
ATOM      5  H   UNL     1      -3.024  12.339  19.599  0.00  0.00    +0.000 HD
ENDROOT
BRANCH   1  11
ATOM      6  C   UNL     1      -7.024  13.397  24.284  0.00  0.00    +0.000 C 
ATOM      7  C   UNL     1      -5.905  13.166  23.311  0.00  0.00    +0.000 A 
ATOM      8  C   UNL     1      -6.085  13.378  21.945  0.00  0.00    +0.000 A 
ATOM      9  C   UNL     1      -5.035  13.174  21.024  0.00  0.00    +0.000 A 
ATOM     10  C   UNL     1      -5.316  13.477  19.576  0.00  0.00    +0.000 C 
ATOM     11  C   UNL     1      -3.765  12.751  21.479  0.00  0.00    +0.000 A 
ATOM     12  C   UNL     1      -3.600  12.463  22.852  0.00  0.00    +0.000 A 
ATOM     13  C   UNL     1      -2.345  11.877  23.444  0.00  0.00    +0.000 C 
ATOM     14  C   UNL     1      -4.664  12.705  23.753  0.00  0.00    +0.000 A 
ENDBRANCH   1  11
BRANCH   4  15
ATOM     15  C   UNL     1       0.505  14.166  19.473  0.00  0.00    +0.000 C 
ATOM     16  C   UNL     1       1.847  13.407  19.491  0.00  0.00    +0.000 C 
ATOM     17  C   UNL     1       2.726  13.548  18.249  0.00  0.00    +0.000 C 
ATOM     18  C   UNL     1       3.598  14.803  18.292  0.00  0.00    +0.000 C 
ATOM     19  C   UNL     1       2.876  16.116  18.000  0.00  0.00    +0.000 C 
ATOM     20  C   UNL     1       1.593  16.370  18.791  0.00  0.00    +0.000 C 
ATOM     21  C   UNL     1       0.457  15.368  18.508  0.00  0.00    +0.000 C 
ENDBRANCH   4  15
BRANCH   4  22
ATOM     22  C   UNL     1      -0.678  12.077  18.540  0.00  0.00    +0.000 C 
BRANCH  22  23
ATOM     23  C   UNL     1       0.114  10.861  18.986  0.00  0.00    +0.000 A 
ATOM     24  C   UNL     1      -0.112  10.312  20.275  0.00  0.00    +0.000 A 
ATOM     25  C   UNL     1       0.519   9.131  20.699  0.00  0.00    +0.000 A 
ATOM     26  C   UNL     1       1.371   8.489  19.819  0.00  0.00    +0.000 A 
ATOM     27  C   UNL     1       1.667   9.079  18.576  0.00  0.00    +0.000 A 
ATOM     28  C   UNL     1       1.087  10.271  18.171  0.00  0.00    +0.000 A 
ATOM     29  C   UNL     1       2.571   8.175  17.761  0.00  0.00    +0.000 C 
ATOM     30  C   UNL     1       2.657   6.949  18.645  0.00  0.00    +0.000 A 
ATOM     31  C   UNL     1       3.223   5.724  18.340  0.00  0.00    +0.000 A 
ATOM     32  C   UNL     1       3.110   4.699  19.282  0.00  0.00    +0.000 A 
ATOM     33  C   UNL     1       2.466   4.922  20.511  0.00  0.00    +0.000 A 
ATOM     34  C   UNL     1       1.903   6.168  20.815  0.00  0.00    +0.000 A 
ATOM     35  C   UNL     1       1.985   7.176  19.868  0.00  0.00    +0.000 A 
ENDBRANCH  22  23
ENDBRANCH   4  22
TORSDOF 4
ENDMDL
MODEL 6
REMARK VINA RESULT:      -8.9      1.461      5.903
REMARK  Name = 
REMARK  7 active torsions:
REMARK  status: ('A' for Active; 'I' for Inactive)
REMARK    1  A    between atoms: C_1  and  C_2
REMARK    2  A    between atoms: C_4  and  C_5
REMARK    3  A    between atoms: C_6  and  N_7
REMARK    4  A    between atoms: N_10  and  C_11
REMARK    5  A    between atoms: N_10  and  C_25
REMARK    6  A    between atoms: C_11  and  C_12
REMARK    7  A    between atoms: C_32  and  C_33
REMARK                            x       y       z     vdW  Elec       q    Type
REMARK                         _______ _______ _______ _____ _____    ______ ____
ROOT
ATOM      1  N   UNL     1       0.977  13.523  20.144  0.00  0.00    +0.000 N 
ATOM      2  C   UNL     1      -0.134  13.358  19.337  0.00  0.00    +0.000 C 
ATOM      3  O   UNL     1      -0.277  13.969  18.274  0.00  0.00    +0.000 OA
ATOM      4  N   UNL     1      -1.126  12.461  19.796  0.00  0.00    +0.000 N 
ATOM      5  H   UNL     1       0.759  13.477  21.124  0.00  0.00    +0.000 HD
ENDROOT
BRANCH   1  11
ATOM      6  C   UNL     1       5.355  17.065  18.829  0.00  0.00    +0.000 C 
ATOM      7  C   UNL     1       4.202  16.163  19.160  0.00  0.00    +0.000 A 
ATOM      8  C   UNL     1       4.052  14.928  18.531  0.00  0.00    +0.000 A 
ATOM      9  C   UNL     1       2.978  14.068  18.844  0.00  0.00    +0.000 A 
ATOM     10  C   UNL     1       2.932  12.735  18.146  0.00  0.00    +0.000 C 
ATOM     11  C   UNL     1       2.026  14.448  19.818  0.00  0.00    +0.000 A 
ATOM     12  C   UNL     1       2.132  15.729  20.403  0.00  0.00    +0.000 A 
ATOM     13  C   UNL     1       1.113  16.309  21.348  0.00  0.00    +0.000 C 
ATOM     14  C   UNL     1       3.237  16.555  20.088  0.00  0.00    +0.000 A 
ENDBRANCH   1  11
BRANCH   4  15
ATOM     15  C   UNL     1      -2.301  12.290  18.880  0.00  0.00    +0.000 C 
ATOM     16  C   UNL     1      -2.012  11.307  17.728  0.00  0.00    +0.000 C 
ATOM     17  C   UNL     1      -2.802   9.998  17.736  0.00  0.00    +0.000 C 
ATOM     18  C   UNL     1      -4.175  10.142  17.079  0.00  0.00    +0.000 C 
ATOM     19  C   UNL     1      -5.234  10.853  17.919  0.00  0.00    +0.000 C 
ATOM     20  C   UNL     1      -4.825  12.194  18.524  0.00  0.00    +0.000 C 
ATOM     21  C   UNL     1      -3.678  12.112  19.550  0.00  0.00    +0.000 C 
ENDBRANCH   4  15
BRANCH   4  22
ATOM     22  C   UNL     1      -0.968  11.558  20.960  0.00  0.00    +0.000 C 
BRANCH  22  23
ATOM     23  C   UNL     1      -0.051  10.363  20.775  0.00  0.00    +0.000 A 
ATOM     24  C   UNL     1       0.051   9.392  21.805  0.00  0.00    +0.000 A 
ATOM     25  C   UNL     1       0.805   8.218  21.646  0.00  0.00    +0.000 A 
ATOM     26  C   UNL     1       1.450   8.010  20.441  0.00  0.00    +0.000 A 
ATOM     27  C   UNL     1       1.426   9.012  19.452  0.00  0.00    +0.000 A 
ATOM     28  C   UNL     1       0.725  10.196  19.622  0.00  0.00    +0.000 A 
ATOM     29  C   UNL     1       2.146   8.543  18.203  0.00  0.00    +0.000 C 
ATOM     30  C   UNL     1       2.480   7.111  18.561  0.00  0.00    +0.000 A 
ATOM     31  C   UNL     1       3.002   6.132  17.734  0.00  0.00    +0.000 A 
ATOM     32  C   UNL     1       3.149   4.845  18.256  0.00  0.00    +0.000 A 
ATOM     33  C   UNL     1       2.803   4.568  19.589  0.00  0.00    +0.000 A 
ATOM     34  C   UNL     1       2.283   5.568  20.422  0.00  0.00    +0.000 A 
ATOM     35  C   UNL     1       2.105   6.836  19.896  0.00  0.00    +0.000 A 
ENDBRANCH  22  23
ENDBRANCH   4  22
TORSDOF 4
ENDMDL
MODEL 7
REMARK VINA RESULT:      -8.7      1.330      6.041
REMARK  Name = 
REMARK  7 active torsions:
REMARK  status: ('A' for Active; 'I' for Inactive)
REMARK    1  A    between atoms: C_1  and  C_2
REMARK    2  A    between atoms: C_4  and  C_5
REMARK    3  A    between atoms: C_6  and  N_7
REMARK    4  A    between atoms: N_10  and  C_11
REMARK    5  A    between atoms: N_10  and  C_25
REMARK    6  A    between atoms: C_11  and  C_12
REMARK    7  A    between atoms: C_32  and  C_33
REMARK                            x       y       z     vdW  Elec       q    Type
REMARK                         _______ _______ _______ _____ _____    ______ ____
ROOT
ATOM      1  N   UNL     1       0.984  13.381  20.378  0.00  0.00    +0.000 N 
ATOM      2  C   UNL     1      -0.096  13.303  19.516  0.00  0.00    +0.000 C 
ATOM      3  O   UNL     1      -0.198  14.021  18.517  0.00  0.00    +0.000 OA
ATOM      4  N   UNL     1      -1.102  12.365  19.842  0.00  0.00    +0.000 N 
ATOM      5  H   UNL     1       0.728  13.235  21.339  0.00  0.00    +0.000 HD
ENDROOT
BRANCH   1  11
ATOM      6  C   UNL     1       5.090  17.391  19.666  0.00  0.00    +0.000 C 
ATOM      7  C   UNL     1       4.043  16.333  19.857  0.00  0.00    +0.000 A 
ATOM      8  C   UNL     1       3.123  16.412  20.901  0.00  0.00    +0.000 A 
ATOM      9  C   UNL     1       2.127  15.428  21.082  0.00  0.00    +0.000 A 
ATOM     10  C   UNL     1       1.150  15.630  22.209  0.00  0.00    +0.000 C 
ATOM     11  C   UNL     1       2.042  14.333  20.190  0.00  0.00    +0.000 A 
ATOM     12  C   UNL     1       3.018  14.209  19.177  0.00  0.00    +0.000 A 
ATOM     13  C   UNL     1       3.124  13.027  18.251  0.00  0.00    +0.000 C 
ATOM     14  C   UNL     1       3.985  15.228  19.006  0.00  0.00    +0.000 A 
ENDBRANCH   1  11
BRANCH   4  15
ATOM     15  C   UNL     1      -2.240  12.291  18.869  0.00  0.00    +0.000 C 
ATOM     16  C   UNL     1      -1.909  11.424  17.637  0.00  0.00    +0.000 C 
ATOM     17  C   UNL     1      -2.701  10.125  17.486  0.00  0.00    +0.000 C 
ATOM     18  C   UNL     1      -4.047  10.341  16.794  0.00  0.00    +0.000 C 
ATOM     19  C   UNL     1      -5.136  10.973  17.658  0.00  0.00    +0.000 C 
ATOM     20  C   UNL     1      -4.748  12.246  18.408  0.00  0.00    +0.000 C 
ATOM     21  C   UNL     1      -3.643  12.056  19.464  0.00  0.00    +0.000 C 
ENDBRANCH   4  15
BRANCH   4  22
ATOM     22  C   UNL     1      -0.987  11.346  20.911  0.00  0.00    +0.000 C 
BRANCH  22  23
ATOM     23  C   UNL     1       0.003  10.219  20.675  0.00  0.00    +0.000 A 
ATOM     24  C   UNL     1       0.186   9.227  21.673  0.00  0.00    +0.000 A 
ATOM     25  C   UNL     1       1.012   8.110  21.465  0.00  0.00    +0.000 A 
ATOM     26  C   UNL     1       1.646   7.980  20.243  0.00  0.00    +0.000 A 
ATOM     27  C   UNL     1       1.539   9.007  19.286  0.00  0.00    +0.000 A 
ATOM     28  C   UNL     1       0.766  10.137  19.504  0.00  0.00    +0.000 A 
ATOM     29  C   UNL     1       2.263   8.623  18.011  0.00  0.00    +0.000 C 
ATOM     30  C   UNL     1       2.696   7.205  18.319  0.00  0.00    +0.000 A 
ATOM     31  C   UNL     1       3.265   6.288  17.454  0.00  0.00    +0.000 A 
ATOM     32  C   UNL     1       3.505   4.998  17.934  0.00  0.00    +0.000 A 
ATOM     33  C   UNL     1       3.203   4.660  19.264  0.00  0.00    +0.000 A 
ATOM     34  C   UNL     1       2.635   5.599  20.136  0.00  0.00    +0.000 A 
ATOM     35  C   UNL     1       2.365   6.868  19.652  0.00  0.00    +0.000 A 
ENDBRANCH  22  23
ENDBRANCH   4  22
TORSDOF 4
ENDMDL
MODEL 8
REMARK VINA RESULT:      -8.7      1.263      5.641
REMARK  Name = 
REMARK  7 active torsions:
REMARK  status: ('A' for Active; 'I' for Inactive)
REMARK    1  A    between atoms: C_1  and  C_2
REMARK    2  A    between atoms: C_4  and  C_5
REMARK    3  A    between atoms: C_6  and  N_7
REMARK    4  A    between atoms: N_10  and  C_11
REMARK    5  A    between atoms: N_10  and  C_25
REMARK    6  A    between atoms: C_11  and  C_12
REMARK    7  A    between atoms: C_32  and  C_33
REMARK                            x       y       z     vdW  Elec       q    Type
REMARK                         _______ _______ _______ _____ _____    ______ ____
ROOT
ATOM      1  N   UNL     1       1.477  13.175  20.112  0.00  0.00    +0.000 N 
ATOM      2  C   UNL     1       0.247  13.221  19.478  0.00  0.00    +0.000 C 
ATOM      3  O   UNL     1      -0.063  14.127  18.700  0.00  0.00    +0.000 OA
ATOM      4  N   UNL     1      -0.661  12.180  19.779  0.00  0.00    +0.000 N 
ATOM      5  H   UNL     1       1.421  12.815  21.048  0.00  0.00    +0.000 HD
ENDROOT
BRANCH   1  11
ATOM      6  C   UNL     1       5.609  17.147  19.340  0.00  0.00    +0.000 C 
ATOM      7  C   UNL     1       4.518  16.134  19.536  0.00  0.00    +0.000 A 
ATOM      8  C   UNL     1       4.331  15.093  18.628  0.00  0.00    +0.000 A 
ATOM      9  C   UNL     1       3.316  14.130  18.810  0.00  0.00    +0.000 A 
ATOM     10  C   UNL     1       3.227  13.018  17.800  0.00  0.00    +0.000 C 
ATOM     11  C   UNL     1       2.464  14.203  19.936  0.00  0.00    +0.000 A 
ATOM     12  C   UNL     1       2.601  15.297  20.819  0.00  0.00    +0.000 A 
ATOM     13  C   UNL     1       1.675  15.567  21.974  0.00  0.00    +0.000 C 
ATOM     14  C   UNL     1       3.648  16.229  20.623  0.00  0.00    +0.000 A 
ENDBRANCH   1  11
BRANCH   4  15
ATOM     15  C   UNL     1      -1.971  12.250  19.052  0.00  0.00    +0.000 C 
ATOM     16  C   UNL     1      -1.942  11.490  17.711  0.00  0.00    +0.000 C 
ATOM     17  C   UNL     1      -2.830  10.249  17.613  0.00  0.00    +0.000 C 
ATOM     18  C   UNL     1      -4.269  10.591  17.226  0.00  0.00    +0.000 C 
ATOM     19  C   UNL     1      -5.126  11.186  18.341  0.00  0.00    +0.000 C 
ATOM     20  C   UNL     1      -4.518  12.363  19.102  0.00  0.00    +0.000 C 
ATOM     21  C   UNL     1      -3.242  12.024  19.895  0.00  0.00    +0.000 C 
ENDBRANCH   4  15
BRANCH   4  22
ATOM     22  C   UNL     1      -0.321  10.966  20.557  0.00  0.00    +0.000 C 
BRANCH  22  23
ATOM     23  C   UNL     1       0.495   9.905  19.840  0.00  0.00    +0.000 A 
ATOM     24  C   UNL     1       0.986  10.162  18.534  0.00  0.00    +0.000 A 
ATOM     25  C   UNL     1       1.828   9.258  17.867  0.00  0.00    +0.000 A 
ATOM     26  C   UNL     1       2.193   8.096  18.520  0.00  0.00    +0.000 A 
ATOM     27  C   UNL     1       1.636   7.795  19.778  0.00  0.00    +0.000 A 
ATOM     28  C   UNL     1       0.763   8.660  20.420  0.00  0.00    +0.000 A 
ATOM     29  C   UNL     1       2.221   6.508  20.324  0.00  0.00    +0.000 C 
ATOM     30  C   UNL     1       3.263   6.176  19.277  0.00  0.00    +0.000 A 
ATOM     31  C   UNL     1       4.227   5.185  19.328  0.00  0.00    +0.000 A 
ATOM     32  C   UNL     1       5.148   5.114  18.281  0.00  0.00    +0.000 A 
ATOM     33  C   UNL     1       5.073   6.007  17.198  0.00  0.00    +0.000 A 
ATOM     34  C   UNL     1       4.087   7.002  17.151  0.00  0.00    +0.000 A 
ATOM     35  C   UNL     1       3.194   7.095  18.205  0.00  0.00    +0.000 A 
ENDBRANCH  22  23
ENDBRANCH   4  22
TORSDOF 4
ENDMDL
MODEL 9
REMARK VINA RESULT:      -8.6      2.122      3.611
REMARK  Name = 
REMARK  7 active torsions:
REMARK  status: ('A' for Active; 'I' for Inactive)
REMARK    1  A    between atoms: C_1  and  C_2
REMARK    2  A    between atoms: C_4  and  C_5
REMARK    3  A    between atoms: C_6  and  N_7
REMARK    4  A    between atoms: N_10  and  C_11
REMARK    5  A    between atoms: N_10  and  C_25
REMARK    6  A    between atoms: C_11  and  C_12
REMARK    7  A    between atoms: C_32  and  C_33
REMARK                            x       y       z     vdW  Elec       q    Type
REMARK                         _______ _______ _______ _____ _____    ______ ____
ROOT
ATOM      1  N   UNL     1      -2.297  12.758  20.567  0.00  0.00    +0.000 N 
ATOM      2  C   UNL     1      -1.192  13.592  20.558  0.00  0.00    +0.000 C 
ATOM      3  O   UNL     1      -1.018  14.470  21.408  0.00  0.00    +0.000 OA
ATOM      4  N   UNL     1      -0.266  13.407  19.506  0.00  0.00    +0.000 N 
ATOM      5  H   UNL     1      -2.626  12.535  19.645  0.00  0.00    +0.000 HD
ENDROOT
BRANCH   1  11
ATOM      6  C   UNL     1      -6.454  13.035  24.578  0.00  0.00    +0.000 C 
ATOM      7  C   UNL     1      -5.372  12.989  23.538  0.00  0.00    +0.000 A 
ATOM      8  C   UNL     1      -4.154  12.362  23.796  0.00  0.00    +0.000 A 
ATOM      9  C   UNL     1      -3.135  12.303  22.821  0.00  0.00    +0.000 A 
ATOM     10  C   UNL     1      -1.875  11.561  23.179  0.00  0.00    +0.000 C 
ATOM     11  C   UNL     1      -3.339  12.884  21.548  0.00  0.00    +0.000 A 
ATOM     12  C   UNL     1      -4.541  13.585  21.308  0.00  0.00    +0.000 A 
ATOM     13  C   UNL     1      -4.826  14.361  20.050  0.00  0.00    +0.000 C 
ATOM     14  C   UNL     1      -5.553  13.600  22.297  0.00  0.00    +0.000 A 
ENDBRANCH   1  11
BRANCH   4  15
ATOM     15  C   UNL     1       0.930  14.311  19.547  0.00  0.00    +0.000 C 
ATOM     16  C   UNL     1       2.260  13.531  19.522  0.00  0.00    +0.000 C 
ATOM     17  C   UNL     1       3.128  13.706  18.276  0.00  0.00    +0.000 C 
ATOM     18  C   UNL     1       4.020  14.946  18.356  0.00  0.00    +0.000 C 
ATOM     19  C   UNL     1       3.315  16.279  18.123  0.00  0.00    +0.000 C 
ATOM     20  C   UNL     1       2.045  16.522  18.937  0.00  0.00    +0.000 C 
ATOM     21  C   UNL     1       0.891  15.550  18.629  0.00  0.00    +0.000 C 
ENDBRANCH   4  15
BRANCH   4  22
ATOM     22  C   UNL     1      -0.297  12.278  18.548  0.00  0.00    +0.000 C 
BRANCH  22  23
ATOM     23  C   UNL     1       0.405  11.002  18.977  0.00  0.00    +0.000 A 
ATOM     24  C   UNL     1       0.149  10.461  20.263  0.00  0.00    +0.000 A 
ATOM     25  C   UNL     1       0.692   9.232  20.672  0.00  0.00    +0.000 A 
ATOM     26  C   UNL     1       1.485   8.534  19.779  0.00  0.00    +0.000 A 
ATOM     27  C   UNL     1       1.814   9.111  18.538  0.00  0.00    +0.000 A 
ATOM     28  C   UNL     1       1.323  10.347  18.148  0.00  0.00    +0.000 A 
ATOM     29  C   UNL     1       2.639   8.148  17.708  0.00  0.00    +0.000 C 
ATOM     30  C   UNL     1       2.640   6.911  18.581  0.00  0.00    +0.000 A 
ATOM     31  C   UNL     1       3.108   5.649  18.261  0.00  0.00    +0.000 A 
ATOM     32  C   UNL     1       2.926   4.628  19.196  0.00  0.00    +0.000 A 
ATOM     33  C   UNL     1       2.311   4.888  20.433  0.00  0.00    +0.000 A 
ATOM     34  C   UNL     1       1.848   6.172  20.752  0.00  0.00    +0.000 A 
ATOM     35  C   UNL     1       1.998   7.178  19.812  0.00  0.00    +0.000 A 
ENDBRANCH  22  23
ENDBRANCH   4  22
TORSDOF 4
ENDMDL
