MODEL 1
REMARK VINA RESULT:      -6.2      0.000      0.000
REMARK  Name = 
REMARK  7 active torsions:
REMARK  status: ('A' for Active; 'I' for Inactive)
REMARK    1  A    between atoms: C_1  and  S_2
REMARK    2  A    between atoms: S_2  and  C_3
REMARK    3  A    between atoms: C_3  and  C_4
REMARK    4  A    between atoms: C_4  and  C_5
REMARK    5  A    between atoms: C_14  and  S_15
REMARK    6  A    between atoms: S_15  and  C_16
REMARK    7  A    between atoms: C_22  and  O_23
REMARK                            x       y       z     vdW  Elec       q    Type
REMARK                         _______ _______ _______ _____ _____    ______ ____
ROOT
ATOM      1  C   UNL     1      -2.318  13.570  21.925  0.00  0.00    +0.000 C 
ATOM      2  N   UNL     1      -3.399  14.111  22.742  0.00  0.00    +0.000 N 
ATOM      3  C   UNL     1      -4.334  13.035  22.931  0.00  0.00    +0.000 C 
ATOM      4  O   UNL     1      -4.241  12.129  23.745  0.00  0.00    +0.000 OA
ATOM      5  C   UNL     1      -5.423  13.149  21.851  0.00  0.00    +0.000 C 
ATOM      6  C   UNL     1      -6.069  11.961  21.109  0.00  0.00    +0.000 C 
ATOM      7  C   UNL     1      -6.418  12.632  19.781  0.00  0.00    +0.000 C 
ATOM      8  C   UNL     1      -7.531  12.498  19.034  0.00  0.00    +0.000 C 
ATOM      9  C   UNL     1      -7.915  13.573  18.125  0.00  0.00    +0.000 C 
ATOM     10  C   UNL     1      -7.470  14.827  18.334  0.00  0.00    +0.000 C 
ATOM     11  C   UNL     1      -6.432  15.100  19.401  0.00  0.00    +0.000 C 
ATOM     12  C   UNL     1      -5.505  13.831  19.564  0.00  0.00    +0.000 C 
ATOM     13  N   UNL     1      -4.652  13.786  20.751  0.00  0.00    +0.000 N 
ATOM     14  C   UNL     1      -3.307  13.075  20.639  0.00  0.00    +0.000 C 
ATOM     15  O   UNL     1      -2.953  12.381  19.695  0.00  0.00    +0.000 OA
ATOM     16  H   UNL     1      -3.822  14.885  22.236  0.00  0.00    +0.000 HD
ENDROOT
BRANCH   1  18
ATOM     17  C   UNL     1      -0.195  15.426  22.347  0.00  0.00    +0.000 C 
ATOM     18  S   UNL     1      -1.232  14.772  20.965  0.00  0.00    +0.000 S 
ENDBRANCH   1  18
BRANCH   5  19
ATOM     19  S   UNL     1      -6.693  14.249  22.649  0.00  0.00    +0.000 S 
ATOM     20  C   UNL     1      -7.771  12.993  23.417  0.00  0.00    +0.000 C 
ENDBRANCH   5  19
BRANCH  11  21
ATOM     21  O   UNL     1      -5.678  16.254  19.051  0.00  0.00    +0.000 OA
ATOM     22  H   UNL     1      -4.775  15.955  18.845  0.00  0.00    +0.000 HD
ENDBRANCH  11  21
BRANCH   1  23
ATOM     23  C   UNL     1      -1.402  12.884  22.996  0.00  0.00    +0.000 C 
BRANCH  23  24
ATOM     24  C   UNL     1      -0.745  11.530  22.513  0.00  0.00    +0.000 A 
ATOM     25  C   UNL     1      -0.939  10.285  23.158  0.00  0.00    +0.000 A 
ATOM     26  C   UNL     1      -0.367   9.094  22.719  0.00  0.00    +0.000 A 
ATOM     27  C   UNL     1       0.425   9.103  21.581  0.00  0.00    +0.000 A 
ATOM     28  C   UNL     1       0.630  10.306  20.903  0.00  0.00    +0.000 A 
ATOM     29  C   UNL     1       0.052  11.508  21.360  0.00  0.00    +0.000 A 
ENDBRANCH  23  24
ENDBRANCH   1  23
TORSDOF 5
ENDMDL
MODEL 2
REMARK VINA RESULT:      -5.8      3.316      5.666
REMARK  Name = 
REMARK  7 active torsions:
REMARK  status: ('A' for Active; 'I' for Inactive)
REMARK    1  A    between atoms: C_1  and  S_2
REMARK    2  A    between atoms: S_2  and  C_3
REMARK    3  A    between atoms: C_3  and  C_4
REMARK    4  A    between atoms: C_4  and  C_5
REMARK    5  A    between atoms: C_14  and  S_15
REMARK    6  A    between atoms: S_15  and  C_16
REMARK    7  A    between atoms: C_22  and  O_23
REMARK                            x       y       z     vdW  Elec       q    Type
REMARK                         _______ _______ _______ _____ _____    ______ ____
ROOT
ATOM      1  C   UNL     1       0.104  10.935  18.716  0.00  0.00    +0.000 C 
ATOM      2  N   UNL     1       0.191  12.342  18.340  0.00  0.00    +0.000 N 
ATOM      3  C   UNL     1       0.946  12.988  19.379  0.00  0.00    +0.000 C 
ATOM      4  O   UNL     1       2.162  12.996  19.493  0.00  0.00    +0.000 OA
ATOM      5  C   UNL     1      -0.045  13.575  20.399  0.00  0.00    +0.000 C 
ATOM      6  C   UNL     1       0.151  13.581  21.929  0.00  0.00    +0.000 C 
ATOM      7  C   UNL     1      -1.307  13.548  22.386  0.00  0.00    +0.000 C 
ATOM      8  C   UNL     1      -1.891  14.223  23.394  0.00  0.00    +0.000 C 
ATOM      9  C   UNL     1      -3.327  14.479  23.345  0.00  0.00    +0.000 C 
ATOM     10  C   UNL     1      -3.977  14.466  22.166  0.00  0.00    +0.000 C 
ATOM     11  C   UNL     1      -3.266  14.012  20.909  0.00  0.00    +0.000 C 
ATOM     12  C   UNL     1      -2.169  12.941  21.288  0.00  0.00    +0.000 C 
ATOM     13  N   UNL     1      -1.177  12.622  20.261  0.00  0.00    +0.000 N 
ATOM     14  C   UNL     1      -0.607  11.207  20.231  0.00  0.00    +0.000 C 
ATOM     15  O   UNL     1      -0.771  10.363  21.103  0.00  0.00    +0.000 OA
ATOM     16  H   UNL     1      -0.754  12.714  18.282  0.00  0.00    +0.000 HD
ENDROOT
BRANCH   1  18
ATOM     17  C   UNL     1      -2.228  11.212  17.099  0.00  0.00    +0.000 C 
ATOM     18  S   UNL     1      -1.274   9.891  17.970  0.00  0.00    +0.000 S 
ENDBRANCH   1  18
BRANCH   5  19
ATOM     19  S   UNL     1      -0.377  15.279  19.730  0.00  0.00    +0.000 S 
ATOM     20  C   UNL     1       0.955  16.214  20.556  0.00  0.00    +0.000 C 
ENDBRANCH   5  19
BRANCH  11  21
ATOM     21  O   UNL     1      -4.212  13.485  19.987  0.00  0.00    +0.000 OA
ATOM     22  H   UNL     1      -3.863  13.645  19.094  0.00  0.00    +0.000 HD
ENDBRANCH  11  21
BRANCH   1  23
ATOM     23  C   UNL     1       1.457  10.361  18.171  0.00  0.00    +0.000 C 
BRANCH  23  24
ATOM     24  C   UNL     1       1.791   8.902  18.681  0.00  0.00    +0.000 A 
ATOM     25  C   UNL     1       1.569   8.460  20.007  0.00  0.00    +0.000 A 
ATOM     26  C   UNL     1       1.854   7.169  20.446  0.00  0.00    +0.000 A 
ATOM     27  C   UNL     1       2.368   6.247  19.547  0.00  0.00    +0.000 A 
ATOM     28  C   UNL     1       2.587   6.636  18.224  0.00  0.00    +0.000 A 
ATOM     29  C   UNL     1       2.302   7.946  17.792  0.00  0.00    +0.000 A 
ENDBRANCH  23  24
ENDBRANCH   1  23
TORSDOF 5
ENDMDL
MODEL 3
REMARK VINA RESULT:      -5.6      3.523      5.846
REMARK  Name = 
REMARK  7 active torsions:
REMARK  status: ('A' for Active; 'I' for Inactive)
REMARK    1  A    between atoms: C_1  and  S_2
REMARK    2  A    between atoms: S_2  and  C_3
REMARK    3  A    between atoms: C_3  and  C_4
REMARK    4  A    between atoms: C_4  and  C_5
REMARK    5  A    between atoms: C_14  and  S_15
REMARK    6  A    between atoms: S_15  and  C_16
REMARK    7  A    between atoms: C_22  and  O_23
REMARK                            x       y       z     vdW  Elec       q    Type
REMARK                         _______ _______ _______ _____ _____    ______ ____
ROOT
ATOM      1  C   UNL     1       0.218  11.155  18.766  0.00  0.00    +0.000 C 
ATOM      2  N   UNL     1       0.311  12.539  18.312  0.00  0.00    +0.000 N 
ATOM      3  C   UNL     1       1.131  13.221  19.276  0.00  0.00    +0.000 C 
ATOM      4  O   UNL     1       2.351  13.210  19.327  0.00  0.00    +0.000 OA
ATOM      5  C   UNL     1       0.206  13.882  20.312  0.00  0.00    +0.000 C 
ATOM      6  C   UNL     1       0.480  13.962  21.828  0.00  0.00    +0.000 C 
ATOM      7  C   UNL     1      -0.953  13.985  22.359  0.00  0.00    +0.000 C 
ATOM      8  C   UNL     1      -1.471  14.724  23.358  0.00  0.00    +0.000 C 
ATOM      9  C   UNL     1      -2.902  15.008  23.369  0.00  0.00    +0.000 C 
ATOM     10  C   UNL     1      -3.612  14.947  22.226  0.00  0.00    +0.000 C 
ATOM     11  C   UNL     1      -2.976  14.414  20.960  0.00  0.00    +0.000 C 
ATOM     12  C   UNL     1      -1.881  13.340  21.339  0.00  0.00    +0.000 C 
ATOM     13  N   UNL     1      -0.950  12.948  20.282  0.00  0.00    +0.000 N 
ATOM     14  C   UNL     1      -0.409  11.521  20.298  0.00  0.00    +0.000 C 
ATOM     15  O   UNL     1      -0.543  10.727  21.220  0.00  0.00    +0.000 OA
ATOM     16  H   UNL     1      -0.628  12.928  18.282  0.00  0.00    +0.000 HD
ENDROOT
BRANCH   1  18
ATOM     17  C   UNL     1      -2.180  11.395  17.242  0.00  0.00    +0.000 C 
ATOM     18  S   UNL     1      -1.216  10.105  18.146  0.00  0.00    +0.000 S 
ENDBRANCH   1  18
BRANCH   5  19
ATOM     19  S   UNL     1      -0.128  15.556  19.572  0.00  0.00    +0.000 S 
ATOM     20  C   UNL     1       1.260  16.504  20.281  0.00  0.00    +0.000 C 
ENDBRANCH   5  19
BRANCH  11  21
ATOM     21  O   UNL     1      -3.978  13.861  20.117  0.00  0.00    +0.000 OA
ATOM     22  H   UNL     1      -3.734  12.934  19.950  0.00  0.00    +0.000 HD
ENDBRANCH  11  21
BRANCH   1  23
ATOM     23  C   UNL     1       1.530  10.525  18.184  0.00  0.00    +0.000 C 
BRANCH  23  24
ATOM     24  C   UNL     1       1.801   9.043  18.663  0.00  0.00    +0.000 A 
ATOM     25  C   UNL     1       2.325   8.028  17.827  0.00  0.00    +0.000 A 
ATOM     26  C   UNL     1       2.573   6.728  18.260  0.00  0.00    +0.000 A 
ATOM     27  C   UNL     1       2.316   6.393  19.581  0.00  0.00    +0.000 A 
ATOM     28  C   UNL     1       1.814   7.368  20.444  0.00  0.00    +0.000 A 
ATOM     29  C   UNL     1       1.560   8.679  19.995  0.00  0.00    +0.000 A 
ENDBRANCH  23  24
ENDBRANCH   1  23
TORSDOF 5
ENDMDL
MODEL 4
REMARK VINA RESULT:      -5.6      4.240      6.674
REMARK  Name = 
REMARK  7 active torsions:
REMARK  status: ('A' for Active; 'I' for Inactive)
REMARK    1  A    between atoms: C_1  and  S_2
REMARK    2  A    between atoms: S_2  and  C_3
REMARK    3  A    between atoms: C_3  and  C_4
REMARK    4  A    between atoms: C_4  and  C_5
REMARK    5  A    between atoms: C_14  and  S_15
REMARK    6  A    between atoms: S_15  and  C_16
REMARK    7  A    between atoms: C_22  and  O_23
REMARK                            x       y       z     vdW  Elec       q    Type
REMARK                         _______ _______ _______ _____ _____    ______ ____
ROOT
ATOM      1  C   UNL     1      -0.487  11.857  20.744  0.00  0.00    +0.000 C 
ATOM      2  N   UNL     1      -1.327  12.970  20.314  0.00  0.00    +0.000 N 
ATOM      3  C   UNL     1      -0.631  13.599  19.225  0.00  0.00    +0.000 C 
ATOM      4  O   UNL     1      -0.618  13.227  18.062  0.00  0.00    +0.000 OA
ATOM      5  C   UNL     1       0.196  14.764  19.794  0.00  0.00    +0.000 C 
ATOM      6  C   UNL     1       1.612  15.161  19.329  0.00  0.00    +0.000 C 
ATOM      7  C   UNL     1       2.159  15.765  20.623  0.00  0.00    +0.000 C 
ATOM      8  C   UNL     1       2.915  16.867  20.786  0.00  0.00    +0.000 C 
ATOM      9  C   UNL     1       2.888  17.569  22.065  0.00  0.00    +0.000 C 
ATOM     10  C   UNL     1       1.836  17.425  22.893  0.00  0.00    +0.000 C 
ATOM     11  C   UNL     1       0.761  16.403  22.590  0.00  0.00    +0.000 C 
ATOM     12  C   UNL     1       1.402  15.188  21.811  0.00  0.00    +0.000 C 
ATOM     13  N   UNL     1       0.476  14.259  21.163  0.00  0.00    +0.000 N 
ATOM     14  C   UNL     1       0.892  12.795  21.054  0.00  0.00    +0.000 C 
ATOM     15  O   UNL     1       2.009  12.360  21.298  0.00  0.00    +0.000 OA
ATOM     16  H   UNL     1      -1.440  13.605  21.100  0.00  0.00    +0.000 HD
ENDROOT
BRANCH   1  18
ATOM     17  C   UNL     1      -2.287  12.044  22.947  0.00  0.00    +0.000 C 
ATOM     18  S   UNL     1      -0.726  11.172  22.481  0.00  0.00    +0.000 S 
ENDBRANCH   1  18
BRANCH   5  19
ATOM     19  S   UNL     1      -0.990  16.196  19.721  0.00  0.00    +0.000 S 
ATOM     20  C   UNL     1      -0.430  17.001  18.182  0.00  0.00    +0.000 C 
ENDBRANCH   5  19
BRANCH  11  21
ATOM     21  O   UNL     1       0.148  15.980  23.802  0.00  0.00    +0.000 OA
ATOM     22  H   UNL     1      -0.145  15.062  23.670  0.00  0.00    +0.000 HD
ENDBRANCH  11  21
BRANCH   1  23
ATOM     23  C   UNL     1      -0.900  10.722  19.745  0.00  0.00    +0.000 C 
BRANCH  23  24
ATOM     24  C   UNL     1       0.275   9.734  19.368  0.00  0.00    +0.000 A 
ATOM     25  C   UNL     1       0.874   8.835  20.283  0.00  0.00    +0.000 A 
ATOM     26  C   UNL     1       1.900   7.959  19.940  0.00  0.00    +0.000 A 
ATOM     27  C   UNL     1       2.365   7.939  18.634  0.00  0.00    +0.000 A 
ATOM     28  C   UNL     1       1.792   8.798  17.695  0.00  0.00    +0.000 A 
ATOM     29  C   UNL     1       0.758   9.686  18.053  0.00  0.00    +0.000 A 
ENDBRANCH  23  24
ENDBRANCH   1  23
TORSDOF 5
ENDMDL
MODEL 5
REMARK VINA RESULT:      -5.5      3.472      6.955
REMARK  Name = 
REMARK  7 active torsions:
REMARK  status: ('A' for Active; 'I' for Inactive)
REMARK    1  A    between atoms: C_1  and  S_2
REMARK    2  A    between atoms: S_2  and  C_3
REMARK    3  A    between atoms: C_3  and  C_4
REMARK    4  A    between atoms: C_4  and  C_5
REMARK    5  A    between atoms: C_14  and  S_15
REMARK    6  A    between atoms: S_15  and  C_16
REMARK    7  A    between atoms: C_22  and  O_23
REMARK                            x       y       z     vdW  Elec       q    Type
REMARK                         _______ _______ _______ _____ _____    ______ ____
ROOT
ATOM      1  C   UNL     1       1.494  14.636  19.263  0.00  0.00    +0.000 C 
ATOM      2  N   UNL     1       0.225  14.197  18.693  0.00  0.00    +0.000 N 
ATOM      3  C   UNL     1      -0.762  14.386  19.721  0.00  0.00    +0.000 C 
ATOM      4  O   UNL     1      -1.315  15.436  20.010  0.00  0.00    +0.000 OA
ATOM      5  C   UNL     1      -0.925  13.059  20.480  0.00  0.00    +0.000 C 
ATOM      6  C   UNL     1      -1.130  12.923  22.003  0.00  0.00    +0.000 C 
ATOM      7  C   UNL     1      -0.491  11.554  22.238  0.00  0.00    +0.000 C 
ATOM      8  C   UNL     1      -0.912  10.552  23.033  0.00  0.00    +0.000 C 
ATOM      9  C   UNL     1      -0.504   9.184  22.734  0.00  0.00    +0.000 C 
ATOM     10  C   UNL     1      -0.119   8.850  21.487  0.00  0.00    +0.000 C 
ATOM     11  C   UNL     1       0.066   9.922  20.434  0.00  0.00    +0.000 C 
ATOM     12  C   UNL     1       0.513  11.267  21.131  0.00  0.00    +0.000 C 
ATOM     13  N   UNL     1       0.436  12.484  20.323  0.00  0.00    +0.000 N 
ATOM     14  C   UNL     1       1.453  13.588  20.596  0.00  0.00    +0.000 C 
ATOM     15  O   UNL     1       2.215  13.624  21.553  0.00  0.00    +0.000 OA
ATOM     16  H   UNL     1       0.313  13.216  18.439  0.00  0.00    +0.000 HD
ENDROOT
BRANCH   1  18
ATOM     17  C   UNL     1       3.535  15.466  17.453  0.00  0.00    +0.000 C 
ATOM     18  S   UNL     1       3.090  14.004  18.490  0.00  0.00    +0.000 S 
ENDBRANCH   1  18
BRANCH   5  19
ATOM     19  S   UNL     1      -2.254  12.183  19.516  0.00  0.00    +0.000 S 
ATOM     20  C   UNL     1      -3.738  12.792  20.386  0.00  0.00    +0.000 C 
ENDBRANCH   5  19
BRANCH  11  21
ATOM     21  O   UNL     1       1.022   9.490  19.474  0.00  0.00    +0.000 OA
ATOM     22  H   UNL     1       1.045  10.160  18.770  0.00  0.00    +0.000 HD
ENDBRANCH  11  21
BRANCH   1  23
ATOM     23  C   UNL     1       1.451  16.184  19.019  0.00  0.00    +0.000 C 
BRANCH  23  24
ATOM     24  C   UNL     1       1.813  17.048  20.292  0.00  0.00    +0.000 A 
ATOM     25  C   UNL     1       0.890  17.882  20.967  0.00  0.00    +0.000 A 
ATOM     26  C   UNL     1       1.212  18.631  22.096  0.00  0.00    +0.000 A 
ATOM     27  C   UNL     1       2.497  18.557  22.613  0.00  0.00    +0.000 A 
ATOM     28  C   UNL     1       3.436  17.734  21.987  0.00  0.00    +0.000 A 
ATOM     29  C   UNL     1       3.101  16.986  20.842  0.00  0.00    +0.000 A 
ENDBRANCH  23  24
ENDBRANCH   1  23
TORSDOF 5
ENDMDL
MODEL 6
REMARK VINA RESULT:      -5.5      9.720     13.851
REMARK  Name = 
REMARK  7 active torsions:
REMARK  status: ('A' for Active; 'I' for Inactive)
REMARK    1  A    between atoms: C_1  and  S_2
REMARK    2  A    between atoms: S_2  and  C_3
REMARK    3  A    between atoms: C_3  and  C_4
REMARK    4  A    between atoms: C_4  and  C_5
REMARK    5  A    between atoms: C_14  and  S_15
REMARK    6  A    between atoms: S_15  and  C_16
REMARK    7  A    between atoms: C_22  and  O_23
REMARK                            x       y       z     vdW  Elec       q    Type
REMARK                         _______ _______ _______ _____ _____    ______ ____
ROOT
ATOM      1  C   UNL     1       6.902  15.964  20.199  0.00  0.00    +0.000 C 
ATOM      2  N   UNL     1       8.171  16.480  20.703  0.00  0.00    +0.000 N 
ATOM      3  C   UNL     1       8.939  16.852  19.546  0.00  0.00    +0.000 C 
ATOM      4  O   UNL     1       8.831  17.887  18.907  0.00  0.00    +0.000 OA
ATOM      5  C   UNL     1       9.849  15.669  19.174  0.00  0.00    +0.000 C 
ATOM      6  C   UNL     1      10.172  15.212  17.736  0.00  0.00    +0.000 C 
ATOM      7  C   UNL     1      10.412  13.722  17.976  0.00  0.00    +0.000 C 
ATOM      8  C   UNL     1      11.357  12.923  17.446  0.00  0.00    +0.000 C 
ATOM      9  C   UNL     1      11.761  11.719  18.166  0.00  0.00    +0.000 C 
ATOM     10  C   UNL     1      11.561  11.627  19.494  0.00  0.00    +0.000 C 
ATOM     11  C   UNL     1      10.760  12.686  20.221  0.00  0.00    +0.000 C 
ATOM     12  C   UNL     1       9.680  13.288  19.238  0.00  0.00    +0.000 C 
ATOM     13  N   UNL     1       9.028  14.528  19.657  0.00  0.00    +0.000 N 
ATOM     14  C   UNL     1       7.585  14.761  19.218  0.00  0.00    +0.000 C 
ATOM     15  O   UNL     1       6.981  14.086  18.395  0.00  0.00    +0.000 OA
ATOM     16  H   UNL     1       8.628  15.740  21.230  0.00  0.00    +0.000 HD
ENDROOT
BRANCH   1  18
ATOM     17  C   UNL     1       5.898  15.843  22.865  0.00  0.00    +0.000 C 
ATOM     18  S   UNL     1       5.886  14.838  21.315  0.00  0.00    +0.000 S 
ENDBRANCH   1  18
BRANCH   5  19
ATOM     19  S   UNL     1      11.388  15.994  20.166  0.00  0.00    +0.000 S 
ATOM     20  C   UNL     1      12.333  17.003  18.975  0.00  0.00    +0.000 C 
ENDBRANCH   5  19
BRANCH  11  21
ATOM     21  O   UNL     1      10.155  12.120  21.377  0.00  0.00    +0.000 OA
ATOM     22  H   UNL     1      10.616  11.284  21.562  0.00  0.00    +0.000 HD
ENDBRANCH  11  21
BRANCH   1  23
ATOM     23  C   UNL     1       6.068  17.275  19.993  0.00  0.00    +0.000 C 
BRANCH  23  24
ATOM     24  C   UNL     1       4.592  17.028  19.484  0.00  0.00    +0.000 A 
ATOM     25  C   UNL     1       3.435  17.392  20.215  0.00  0.00    +0.000 A 
ATOM     26  C   UNL     1       2.137  17.182  19.755  0.00  0.00    +0.000 A 
ATOM     27  C   UNL     1       1.946  16.602  18.510  0.00  0.00    +0.000 A 
ATOM     28  C   UNL     1       3.060  16.242  17.748  0.00  0.00    +0.000 A 
ATOM     29  C   UNL     1       4.369  16.452  18.226  0.00  0.00    +0.000 A 
ENDBRANCH  23  24
ENDBRANCH   1  23
TORSDOF 5
ENDMDL
MODEL 7
REMARK VINA RESULT:      -5.4      4.124      7.638
REMARK  Name = 
REMARK  7 active torsions:
REMARK  status: ('A' for Active; 'I' for Inactive)
REMARK    1  A    between atoms: C_1  and  S_2
REMARK    2  A    between atoms: S_2  and  C_3
REMARK    3  A    between atoms: C_3  and  C_4
REMARK    4  A    between atoms: C_4  and  C_5
REMARK    5  A    between atoms: C_14  and  S_15
REMARK    6  A    between atoms: S_15  and  C_16
REMARK    7  A    between atoms: C_22  and  O_23
REMARK                            x       y       z     vdW  Elec       q    Type
REMARK                         _______ _______ _______ _____ _____    ______ ____
ROOT
ATOM      1  C   UNL     1      -0.345  12.236  20.724  0.00  0.00    +0.000 C 
ATOM      2  N   UNL     1      -0.363  13.472  21.499  0.00  0.00    +0.000 N 
ATOM      3  C   UNL     1      -0.415  14.544  20.542  0.00  0.00    +0.000 C 
ATOM      4  O   UNL     1      -1.411  14.952  19.965  0.00  0.00    +0.000 OA
ATOM      5  C   UNL     1       1.023  15.020  20.278  0.00  0.00    +0.000 C 
ATOM      6  C   UNL     1       1.581  15.446  18.904  0.00  0.00    +0.000 C 
ATOM      7  C   UNL     1       3.053  15.076  19.086  0.00  0.00    +0.000 C 
ATOM      8  C   UNL     1       4.148  15.756  18.699  0.00  0.00    +0.000 C 
ATOM      9  C   UNL     1       5.409  15.540  19.402  0.00  0.00    +0.000 C 
ATOM     10  C   UNL     1       5.408  15.050  20.657  0.00  0.00    +0.000 C 
ATOM     11  C   UNL     1       4.121  14.555  21.281  0.00  0.00    +0.000 C 
ATOM     12  C   UNL     1       3.175  13.993  20.149  0.00  0.00    +0.000 C 
ATOM     13  N   UNL     1       1.777  13.762  20.513  0.00  0.00    +0.000 N 
ATOM     14  C   UNL     1       1.035  12.625  19.817  0.00  0.00    +0.000 C 
ATOM     15  O   UNL     1       1.449  12.002  18.848  0.00  0.00    +0.000 OA
ATOM     16  H   UNL     1       0.488  13.511  22.055  0.00  0.00    +0.000 HD
ENDROOT
BRANCH   1  18
ATOM     17  C   UNL     1      -0.852  10.548  22.965  0.00  0.00    +0.000 C 
ATOM     18  S   UNL     1       0.318  10.675  21.541  0.00  0.00    +0.000 S 
ENDBRANCH   1  18
BRANCH   5  19
ATOM     19  S   UNL     1       1.276  16.333  21.572  0.00  0.00    +0.000 S 
ATOM     20  C   UNL     1       0.959  17.831  20.579  0.00  0.00    +0.000 C 
ENDBRANCH   5  19
BRANCH  11  21
ATOM     21  O   UNL     1       4.414  13.561  22.256  0.00  0.00    +0.000 OA
ATOM     22  H   UNL     1       4.058  12.720  21.924  0.00  0.00    +0.000 HD
ENDBRANCH  11  21
BRANCH   1  23
ATOM     23  C   UNL     1      -1.868  11.994  20.446  0.00  0.00    +0.000 C 
BRANCH  23  24
ATOM     24  C   UNL     1      -2.176  11.387  19.019  0.00  0.00    +0.000 A 
ATOM     25  C   UNL     1      -1.407  10.363  18.416  0.00  0.00    +0.000 A 
ATOM     26  C   UNL     1      -1.692   9.824  17.164  0.00  0.00    +0.000 A 
ATOM     27  C   UNL     1      -2.792  10.290  16.461  0.00  0.00    +0.000 A 
ATOM     28  C   UNL     1      -3.588  11.289  17.026  0.00  0.00    +0.000 A 
ATOM     29  C   UNL     1      -3.287  11.832  18.290  0.00  0.00    +0.000 A 
ENDBRANCH  23  24
ENDBRANCH   1  23
TORSDOF 5
ENDMDL
MODEL 8
REMARK VINA RESULT:      -5.4      3.584      6.154
REMARK  Name = 
REMARK  7 active torsions:
REMARK  status: ('A' for Active; 'I' for Inactive)
REMARK    1  A    between atoms: C_1  and  S_2
REMARK    2  A    between atoms: S_2  and  C_3
REMARK    3  A    between atoms: C_3  and  C_4
REMARK    4  A    between atoms: C_4  and  C_5
REMARK    5  A    between atoms: C_14  and  S_15
REMARK    6  A    between atoms: S_15  and  C_16
REMARK    7  A    between atoms: C_22  and  O_23
REMARK                            x       y       z     vdW  Elec       q    Type
REMARK                         _______ _______ _______ _____ _____    ______ ____
ROOT
ATOM      1  C   UNL     1      -0.439  11.678  19.611  0.00  0.00    +0.000 C 
ATOM      2  N   UNL     1      -0.551  11.902  21.049  0.00  0.00    +0.000 N 
ATOM      3  C   UNL     1      -1.715  12.725  21.235  0.00  0.00    +0.000 C 
ATOM      4  O   UNL     1      -2.875  12.345  21.256  0.00  0.00    +0.000 OA
ATOM      5  C   UNL     1      -1.261  14.194  21.290  0.00  0.00    +0.000 C 
ATOM      6  C   UNL     1      -2.016  15.384  20.663  0.00  0.00    +0.000 C 
ATOM      7  C   UNL     1      -0.845  16.320  20.369  0.00  0.00    +0.000 C 
ATOM      8  C   UNL     1      -0.771  17.655  20.528  0.00  0.00    +0.000 C 
ATOM      9  C   UNL     1       0.534  18.282  20.709  0.00  0.00    +0.000 C 
ATOM     10  C   UNL     1       1.576  17.557  21.159  0.00  0.00    +0.000 C 
ATOM     11  C   UNL     1       1.451  16.056  21.312  0.00  0.00    +0.000 C 
ATOM     12  C   UNL     1       0.434  15.506  20.236  0.00  0.00    +0.000 C 
ATOM     13  N   UNL     1      -0.051  14.139  20.428  0.00  0.00    +0.000 N 
ATOM     14  C   UNL     1      -0.389  13.319  19.186  0.00  0.00    +0.000 C 
ATOM     15  O   UNL     1      -0.462  13.762  18.048  0.00  0.00    +0.000 OA
ATOM     16  H   UNL     1       0.293  12.376  21.363  0.00  0.00    +0.000 HD
ENDROOT
BRANCH   1  18
ATOM     17  C   UNL     1       1.208   9.373  19.288  0.00  0.00    +0.000 C 
ATOM     18  S   UNL     1       1.236  11.180  18.910  0.00  0.00    +0.000 S 
ENDBRANCH   1  18
BRANCH   5  19
ATOM     19  S   UNL     1      -0.915  14.461  23.098  0.00  0.00    +0.000 S 
ATOM     20  C   UNL     1      -2.530  15.115  23.642  0.00  0.00    +0.000 C 
ENDBRANCH   5  19
BRANCH  11  21
ATOM     21  O   UNL     1       2.732  15.453  21.174  0.00  0.00    +0.000 OA
ATOM     22  H   UNL     1       3.168  15.502  22.042  0.00  0.00    +0.000 HD
ENDBRANCH  11  21
BRANCH   1  23
ATOM     23  C   UNL     1      -1.406  10.465  19.387  0.00  0.00    +0.000 C 
BRANCH  23  24
ATOM     24  C   UNL     1      -2.283  10.572  18.077  0.00  0.00    +0.000 A 
ATOM     25  C   UNL     1      -3.430  11.395  17.961  0.00  0.00    +0.000 A 
ATOM     26  C   UNL     1      -4.191  11.494  16.799  0.00  0.00    +0.000 A 
ATOM     27  C   UNL     1      -3.814  10.770  15.679  0.00  0.00    +0.000 A 
ATOM     28  C   UNL     1      -2.680   9.958  15.744  0.00  0.00    +0.000 A 
ATOM     29  C   UNL     1      -1.920   9.858  16.926  0.00  0.00    +0.000 A 
ENDBRANCH  23  24
ENDBRANCH   1  23
TORSDOF 5
ENDMDL
MODEL 9
REMARK VINA RESULT:      -5.3      4.632      6.798
REMARK  Name = 
REMARK  7 active torsions:
REMARK  status: ('A' for Active; 'I' for Inactive)
REMARK    1  A    between atoms: C_1  and  S_2
REMARK    2  A    between atoms: S_2  and  C_3
REMARK    3  A    between atoms: C_3  and  C_4
REMARK    4  A    between atoms: C_4  and  C_5
REMARK    5  A    between atoms: C_14  and  S_15
REMARK    6  A    between atoms: S_15  and  C_16
REMARK    7  A    between atoms: C_22  and  O_23
REMARK                            x       y       z     vdW  Elec       q    Type
REMARK                         _______ _______ _______ _____ _____    ______ ____
ROOT
ATOM      1  C   UNL     1       0.646  11.238  18.988  0.00  0.00    +0.000 C 
ATOM      2  N   UNL     1       0.633  12.460  18.190  0.00  0.00    +0.000 N 
ATOM      3  C   UNL     1       1.805  13.199  18.573  0.00  0.00    +0.000 C 
ATOM      4  O   UNL     1       2.944  13.011  18.174  0.00  0.00    +0.000 OA
ATOM      5  C   UNL     1       1.402  14.202  19.668  0.00  0.00    +0.000 C 
ATOM      6  C   UNL     1       2.256  14.566  20.900  0.00  0.00    +0.000 C 
ATOM      7  C   UNL     1       1.153  14.923  21.895  0.00  0.00    +0.000 C 
ATOM      8  C   UNL     1       1.114  15.931  22.787  0.00  0.00    +0.000 C 
ATOM      9  C   UNL     1      -0.178  16.428  23.249  0.00  0.00    +0.000 C 
ATOM     10  C   UNL     1      -1.283  16.231  22.504  0.00  0.00    +0.000 C 
ATOM     11  C   UNL     1      -1.229  15.346  21.278  0.00  0.00    +0.000 C 
ATOM     12  C   UNL     1      -0.138  14.224  21.492  0.00  0.00    +0.000 C 
ATOM     13  N   UNL     1       0.276  13.473  20.307  0.00  0.00    +0.000 N 
ATOM     14  C   UNL     1       0.696  12.018  20.493  0.00  0.00    +0.000 C 
ATOM     15  O   UNL     1       0.890  11.473  21.572  0.00  0.00    +0.000 OA
ATOM     16  H   UNL     1      -0.218  12.973  18.408  0.00  0.00    +0.000 HD
ENDROOT
BRANCH   1  18
ATOM     17  C   UNL     1      -1.508  10.146  17.473  0.00  0.00    +0.000 C 
ATOM     18  S   UNL     1      -0.975  10.311  19.234  0.00  0.00    +0.000 S 
ENDBRANCH   1  18
BRANCH   5  19
ATOM     19  S   UNL     1       0.902  15.708  18.696  0.00  0.00    +0.000 S 
ATOM     20  C   UNL     1       2.504  16.576  18.599  0.00  0.00    +0.000 C 
ENDBRANCH   5  19
BRANCH  11  21
ATOM     21  O   UNL     1      -2.513  14.784  21.036  0.00  0.00    +0.000 OA
ATOM     22  H   UNL     1      -2.819  14.395  21.873  0.00  0.00    +0.000 HD
ENDBRANCH  11  21
BRANCH   1  23
ATOM     23  C   UNL     1       1.584  10.302  18.150  0.00  0.00    +0.000 C 
BRANCH  23  24
ATOM     24  C   UNL     1       1.820   8.879  18.796  0.00  0.00    +0.000 A 
ATOM     25  C   UNL     1       1.490   8.557  20.135  0.00  0.00    +0.000 A 
ATOM     26  C   UNL     1       1.690   7.297  20.693  0.00  0.00    +0.000 A 
ATOM     27  C   UNL     1       2.224   6.285  19.909  0.00  0.00    +0.000 A 
ATOM     28  C   UNL     1       2.549   6.555  18.579  0.00  0.00    +0.000 A 
ATOM     29  C   UNL     1       2.350   7.835  18.025  0.00  0.00    +0.000 A 
ENDBRANCH  23  24
ENDBRANCH   1  23
TORSDOF 5
ENDMDL
