MODEL 1
REMARK VINA RESULT:      -8.6      0.000      0.000
REMARK  Name = 
REMARK  8 active torsions:
REMARK  status: ('A' for Active; 'I' for Inactive)
REMARK    1  A    between atoms: C_1  and  O_2
REMARK    2  A    between atoms: O_2  and  C_3
REMARK    3  A    between atoms: C_6  and  C_7
REMARK    4  A    between atoms: N_11  and  C_12
REMARK    5  A    between atoms: C_14  and  N_15
REMARK    6  A    between atoms: C_17  and  N_18
REMARK    7  A    between atoms: C_22  and  O_23
REMARK    8  A    between atoms: O_23  and  C_24
REMARK                            x       y       z     vdW  Elec       q    Type
REMARK                         _______ _______ _______ _____ _____    ______ ____
ROOT
ATOM      1  C   UNL     1       2.304   7.488  18.552  0.00  0.00    +0.000 C 
ATOM      2  C   UNL     1       2.106   7.617  20.059  0.00  0.00    +0.000 C 
ATOM      3  C   UNL     1       1.131   8.752  20.166  0.00  0.00    +0.000 C 
ATOM      4  O   UNL     1       0.434   8.938  21.151  0.00  0.00    +0.000 OA
ATOM      5  N   UNL     1       1.194   9.487  18.971  0.00  0.00    +0.000 N 
ATOM      6  C   UNL     1       2.176   8.925  18.058  0.00  0.00    +0.000 C 
ENDROOT
BRANCH   1  10
ATOM      7  C   UNL     1       5.697   5.048  17.408  0.00  0.00    +0.000 A 
ATOM      8  C   UNL     1       5.268   6.152  16.660  0.00  0.00    +0.000 A 
ATOM      9  C   UNL     1       4.213   6.939  17.090  0.00  0.00    +0.000 A 
ATOM     10  C   UNL     1       3.510   6.630  18.262  0.00  0.00    +0.000 A 
ATOM     11  C   UNL     1       3.889   5.482  18.971  0.00  0.00    +0.000 A 
ATOM     12  C   UNL     1       4.978   4.676  18.554  0.00  0.00    +0.000 A 
BRANCH   7  14
ATOM     13  C   UNL     1       7.014   4.318  15.585  0.00  0.00    +0.000 C 
ATOM     14  O   UNL     1       6.769   4.308  16.989  0.00  0.00    +0.000 OA
ENDBRANCH   7  14
BRANCH  12  15
ATOM     15  O   UNL     1       5.162   3.560  19.337  0.00  0.00    +0.000 OA
BRANCH  15  16
ATOM     16  C   UNL     1       4.196   2.508  19.363  0.00  0.00    +0.000 C 
ATOM     17  C   UNL     1       3.041   2.839  20.302  0.00  0.00    +0.000 C 
ATOM     18  C   UNL     1       1.816   2.167  19.707  0.00  0.00    +0.000 C 
ATOM     19  C   UNL     1       2.048   2.126  18.205  0.00  0.00    +0.000 C 
ATOM     20  C   UNL     1       3.533   2.398  17.979  0.00  0.00    +0.000 C 
ENDBRANCH  15  16
ENDBRANCH  12  15
ENDBRANCH   1  10
BRANCH   5  21
ATOM     21  C   UNL     1       0.510  10.708  18.747  0.00  0.00    +0.000 A 
ATOM     22  C   UNL     1       1.167  11.928  18.963  0.00  0.00    +0.000 A 
ATOM     23  C   UNL     1       0.533  13.154  18.751  0.00  0.00    +0.000 A 
ATOM     24  C   UNL     1      -0.774  13.151  18.264  0.00  0.00    +0.000 A 
ATOM     25  C   UNL     1      -1.488  11.956  18.121  0.00  0.00    +0.000 A 
ATOM     26  C   UNL     1      -0.816  10.739  18.301  0.00  0.00    +0.000 A 
BRANCH  23  27
ATOM     27  N   UNL     1       1.281  14.340  18.789  0.00  0.00    +0.000 N 
ATOM     28  H   UNL     1       2.114  14.313  18.208  0.00  0.00    +0.000 HD
ATOM     29  H   UNL     1       1.481  14.670  19.726  0.00  0.00    +0.000 HD
ENDBRANCH  23  27
BRANCH  25  30
ATOM     30  N   UNL     1      -2.786  11.976  17.588  0.00  0.00    +0.000 N 
ATOM     31  H   UNL     1      -3.508  11.791  18.278  0.00  0.00    +0.000 HD
ATOM     32  H   UNL     1      -2.897  11.397  16.761  0.00  0.00    +0.000 HD
ENDBRANCH  25  30
ENDBRANCH   5  21
TORSDOF 7
ENDMDL
MODEL 2
REMARK VINA RESULT:      -8.5      0.107      1.591
REMARK  Name = 
REMARK  8 active torsions:
REMARK  status: ('A' for Active; 'I' for Inactive)
REMARK    1  A    between atoms: C_1  and  O_2
REMARK    2  A    between atoms: O_2  and  C_3
REMARK    3  A    between atoms: C_6  and  C_7
REMARK    4  A    between atoms: N_11  and  C_12
REMARK    5  A    between atoms: C_14  and  N_15
REMARK    6  A    between atoms: C_17  and  N_18
REMARK    7  A    between atoms: C_22  and  O_23
REMARK    8  A    between atoms: O_23  and  C_24
REMARK                            x       y       z     vdW  Elec       q    Type
REMARK                         _______ _______ _______ _____ _____    ______ ____
ROOT
ATOM      1  C   UNL     1       2.298   7.547  18.535  0.00  0.00    +0.000 C 
ATOM      2  C   UNL     1       2.070   7.658  20.039  0.00  0.00    +0.000 C 
ATOM      3  C   UNL     1       1.115   8.810  20.142  0.00  0.00    +0.000 C 
ATOM      4  O   UNL     1       0.401   8.996  21.115  0.00  0.00    +0.000 OA
ATOM      5  N   UNL     1       1.218   9.561  18.959  0.00  0.00    +0.000 N 
ATOM      6  C   UNL     1       2.208   8.993  18.059  0.00  0.00    +0.000 C 
ENDROOT
BRANCH   1  10
ATOM      7  C   UNL     1       5.659   5.047  17.427  0.00  0.00    +0.000 A 
ATOM      8  C   UNL     1       5.239   6.141  16.659  0.00  0.00    +0.000 A 
ATOM      9  C   UNL     1       4.194   6.947  17.077  0.00  0.00    +0.000 A 
ATOM     10  C   UNL     1       3.494   6.671  18.258  0.00  0.00    +0.000 A 
ATOM     11  C   UNL     1       3.863   5.533  18.988  0.00  0.00    +0.000 A 
ATOM     12  C   UNL     1       4.941   4.707  18.584  0.00  0.00    +0.000 A 
BRANCH   7  14
ATOM     13  C   UNL     1       7.122   4.465  15.664  0.00  0.00    +0.000 C 
ATOM     14  O   UNL     1       6.721   4.287  17.020  0.00  0.00    +0.000 OA
ENDBRANCH   7  14
BRANCH  12  15
ATOM     15  O   UNL     1       5.117   3.606  19.389  0.00  0.00    +0.000 OA
BRANCH  15  16
ATOM     16  C   UNL     1       4.169   2.535  19.394  0.00  0.00    +0.000 C 
ATOM     17  C   UNL     1       2.957   2.873  20.255  0.00  0.00    +0.000 C 
ATOM     18  C   UNL     1       1.780   2.159  19.614  0.00  0.00    +0.000 C 
ATOM     19  C   UNL     1       2.099   2.075  18.129  0.00  0.00    +0.000 C 
ATOM     20  C   UNL     1       3.589   2.370  17.979  0.00  0.00    +0.000 C 
ENDBRANCH  15  16
ENDBRANCH  12  15
ENDBRANCH   1  10
BRANCH   5  21
ATOM     21  C   UNL     1       0.563  10.799  18.739  0.00  0.00    +0.000 A 
ATOM     22  C   UNL     1      -0.766  10.818  18.290  0.00  0.00    +0.000 A 
ATOM     23  C   UNL     1      -1.450  12.014  18.065  0.00  0.00    +0.000 A 
ATOM     24  C   UNL     1      -0.799  13.215  18.343  0.00  0.00    +0.000 A 
ATOM     25  C   UNL     1       0.552  13.236  18.707  0.00  0.00    +0.000 A 
ATOM     26  C   UNL     1       1.203  12.023  18.967  0.00  0.00    +0.000 A 
BRANCH  23  27
ATOM     27  N   UNL     1      -2.829  11.989  17.807  0.00  0.00    +0.000 N 
ATOM     28  H   UNL     1      -3.308  12.843  18.079  0.00  0.00    +0.000 HD
ATOM     29  H   UNL     1      -3.297  11.161  18.157  0.00  0.00    +0.000 HD
ENDBRANCH  23  27
BRANCH  25  30
ATOM     30  N   UNL     1       1.172  14.454  19.025  0.00  0.00    +0.000 N 
ATOM     31  H   UNL     1       1.430  15.000  18.209  0.00  0.00    +0.000 HD
ATOM     32  H   UNL     1       1.946  14.361  19.677  0.00  0.00    +0.000 HD
ENDBRANCH  25  30
ENDBRANCH   5  21
TORSDOF 7
ENDMDL
MODEL 3
REMARK VINA RESULT:      -8.5      0.833      1.058
REMARK  Name = 
REMARK  8 active torsions:
REMARK  status: ('A' for Active; 'I' for Inactive)
REMARK    1  A    between atoms: C_1  and  O_2
REMARK    2  A    between atoms: O_2  and  C_3
REMARK    3  A    between atoms: C_6  and  C_7
REMARK    4  A    between atoms: N_11  and  C_12
REMARK    5  A    between atoms: C_14  and  N_15
REMARK    6  A    between atoms: C_17  and  N_18
REMARK    7  A    between atoms: C_22  and  O_23
REMARK    8  A    between atoms: O_23  and  C_24
REMARK                            x       y       z     vdW  Elec       q    Type
REMARK                         _______ _______ _______ _____ _____    ______ ____
ROOT
ATOM      1  C   UNL     1       2.089   7.296  18.330  0.00  0.00    +0.000 C 
ATOM      2  C   UNL     1       2.178   7.485  19.841  0.00  0.00    +0.000 C 
ATOM      3  C   UNL     1       1.351   8.715  20.068  0.00  0.00    +0.000 C 
ATOM      4  O   UNL     1       0.862   8.997  21.152  0.00  0.00    +0.000 OA
ATOM      5  N   UNL     1       1.267   9.408  18.849  0.00  0.00    +0.000 N 
ATOM      6  C   UNL     1       2.011   8.725  17.803  0.00  0.00    +0.000 C 
ENDROOT
BRANCH   1  10
ATOM      7  C   UNL     1       5.149   4.664  16.756  0.00  0.00    +0.000 A 
ATOM      8  C   UNL     1       5.236   6.061  16.682  0.00  0.00    +0.000 A 
ATOM      9  C   UNL     1       4.262   6.867  17.246  0.00  0.00    +0.000 A 
ATOM     10  C   UNL     1       3.136   6.314  17.870  0.00  0.00    +0.000 A 
ATOM     11  C   UNL     1       3.010   4.918  17.879  0.00  0.00    +0.000 A 
ATOM     12  C   UNL     1       4.006   4.078  17.321  0.00  0.00    +0.000 A 
BRANCH   7  14
ATOM     13  C   UNL     1       6.334   3.997  14.822  0.00  0.00    +0.000 C 
ATOM     14  O   UNL     1       6.143   3.884  16.230  0.00  0.00    +0.000 OA
ENDBRANCH   7  14
BRANCH  12  15
ATOM     15  O   UNL     1       3.682   2.742  17.367  0.00  0.00    +0.000 OA
BRANCH  15  16
ATOM     16  C   UNL     1       3.364   2.101  18.604  0.00  0.00    +0.000 C 
ATOM     17  C   UNL     1       3.970   2.848  19.788  0.00  0.00    +0.000 C 
ATOM     18  C   UNL     1       3.013   2.636  20.948  0.00  0.00    +0.000 C 
ATOM     19  C   UNL     1       1.634   2.469  20.329  0.00  0.00    +0.000 C 
ATOM     20  C   UNL     1       1.847   2.191  18.843  0.00  0.00    +0.000 C 
ENDBRANCH  15  16
ENDBRANCH  12  15
ENDBRANCH   1  10
BRANCH   5  21
ATOM     21  C   UNL     1       0.673  10.686  18.696  0.00  0.00    +0.000 A 
ATOM     22  C   UNL     1       1.459  11.842  18.810  0.00  0.00    +0.000 A 
ATOM     23  C   UNL     1       0.917  13.119  18.661  0.00  0.00    +0.000 A 
ATOM     24  C   UNL     1      -0.436  13.234  18.344  0.00  0.00    +0.000 A 
ATOM     25  C   UNL     1      -1.267  12.110  18.309  0.00  0.00    +0.000 A 
ATOM     26  C   UNL     1      -0.691  10.837  18.420  0.00  0.00    +0.000 A 
BRANCH  23  27
ATOM     27  N   UNL     1       1.768  14.233  18.588  0.00  0.00    +0.000 N 
ATOM     28  H   UNL     1       1.640  14.891  19.351  0.00  0.00    +0.000 HD
ATOM     29  H   UNL     1       1.767  14.692  17.685  0.00  0.00    +0.000 HD
ENDBRANCH  23  27
BRANCH  25  30
ATOM     30  N   UNL     1      -2.615  12.246  17.943  0.00  0.00    +0.000 N 
ATOM     31  H   UNL     1      -3.262  11.981  18.680  0.00  0.00    +0.000 HD
ATOM     32  H   UNL     1      -2.846  11.801  17.060  0.00  0.00    +0.000 HD
ENDBRANCH  25  30
ENDBRANCH   5  21
TORSDOF 7
ENDMDL
MODEL 4
REMARK VINA RESULT:      -8.4      0.887      1.919
REMARK  Name = 
REMARK  8 active torsions:
REMARK  status: ('A' for Active; 'I' for Inactive)
REMARK    1  A    between atoms: C_1  and  O_2
REMARK    2  A    between atoms: O_2  and  C_3
REMARK    3  A    between atoms: C_6  and  C_7
REMARK    4  A    between atoms: N_11  and  C_12
REMARK    5  A    between atoms: C_14  and  N_15
REMARK    6  A    between atoms: C_17  and  N_18
REMARK    7  A    between atoms: C_22  and  O_23
REMARK    8  A    between atoms: O_23  and  C_24
REMARK                            x       y       z     vdW  Elec       q    Type
REMARK                         _______ _______ _______ _____ _____    ______ ____
ROOT
ATOM      1  C   UNL     1       2.083   7.351  18.309  0.00  0.00    +0.000 C 
ATOM      2  C   UNL     1       2.141   7.500  19.826  0.00  0.00    +0.000 C 
ATOM      3  C   UNL     1       1.352   8.754  20.063  0.00  0.00    +0.000 C 
ATOM      4  O   UNL     1       0.847   9.027  21.141  0.00  0.00    +0.000 OA
ATOM      5  N   UNL     1       1.324   9.478  18.860  0.00  0.00    +0.000 N 
ATOM      6  C   UNL     1       2.069   8.794  17.816  0.00  0.00    +0.000 C 
ENDROOT
BRANCH   1  10
ATOM      7  C   UNL     1       5.079   4.643  16.739  0.00  0.00    +0.000 A 
ATOM      8  C   UNL     1       5.197   6.037  16.658  0.00  0.00    +0.000 A 
ATOM      9  C   UNL     1       4.243   6.867  17.221  0.00  0.00    +0.000 A 
ATOM     10  C   UNL     1       3.107   6.343  17.851  0.00  0.00    +0.000 A 
ATOM     11  C   UNL     1       2.949   4.950  17.866  0.00  0.00    +0.000 A 
ATOM     12  C   UNL     1       3.924   4.085  17.309  0.00  0.00    +0.000 A 
BRANCH   7  14
ATOM     13  C   UNL     1       6.290   3.989  14.816  0.00  0.00    +0.000 C 
ATOM     14  O   UNL     1       6.053   3.838  16.214  0.00  0.00    +0.000 OA
ENDBRANCH   7  14
BRANCH  12  15
ATOM     15  O   UNL     1       3.570   2.757  17.362  0.00  0.00    +0.000 OA
BRANCH  15  16
ATOM     16  C   UNL     1       3.260   2.124  18.606  0.00  0.00    +0.000 C 
ATOM     17  C   UNL     1       3.895   2.864  19.778  0.00  0.00    +0.000 C 
ATOM     18  C   UNL     1       2.953   2.669  20.953  0.00  0.00    +0.000 C 
ATOM     19  C   UNL     1       1.562   2.523  20.354  0.00  0.00    +0.000 C 
ATOM     20  C   UNL     1       1.748   2.239  18.866  0.00  0.00    +0.000 C 
ENDBRANCH  15  16
ENDBRANCH  12  15
ENDBRANCH   1  10
BRANCH   5  21
ATOM     21  C   UNL     1       0.780  10.780  18.723  0.00  0.00    +0.000 A 
ATOM     22  C   UNL     1      -0.601  10.948  18.548  0.00  0.00    +0.000 A 
ATOM     23  C   UNL     1      -1.179  12.211  18.415  0.00  0.00    +0.000 A 
ATOM     24  C   UNL     1      -0.355  13.332  18.507  0.00  0.00    +0.000 A 
ATOM     25  C   UNL     1       1.035  13.201  18.593  0.00  0.00    +0.000 A 
ATOM     26  C   UNL     1       1.586  11.924  18.767  0.00  0.00    +0.000 A 
BRANCH  23  27
ATOM     27  N   UNL     1      -2.576  12.344  18.439  0.00  0.00    +0.000 N 
ATOM     28  H   UNL     1      -2.894  13.200  18.884  0.00  0.00    +0.000 HD
ATOM     29  H   UNL     1      -3.060  11.528  18.795  0.00  0.00    +0.000 HD
ENDBRANCH  23  27
BRANCH  25  30
ATOM     30  N   UNL     1       1.839  14.343  18.729  0.00  0.00    +0.000 N 
ATOM     31  H   UNL     1       2.117  14.527  19.689  0.00  0.00    +0.000 HD
ATOM     32  H   UNL     1       1.454  15.170  18.283  0.00  0.00    +0.000 HD
ENDBRANCH  25  30
ENDBRANCH   5  21
TORSDOF 7
ENDMDL
MODEL 5
REMARK VINA RESULT:      -8.2      1.509      1.971
REMARK  Name = 
REMARK  8 active torsions:
REMARK  status: ('A' for Active; 'I' for Inactive)
REMARK    1  A    between atoms: C_1  and  O_2
REMARK    2  A    between atoms: O_2  and  C_3
REMARK    3  A    between atoms: C_6  and  C_7
REMARK    4  A    between atoms: N_11  and  C_12
REMARK    5  A    between atoms: C_14  and  N_15
REMARK    6  A    between atoms: C_17  and  N_18
REMARK    7  A    between atoms: C_22  and  O_23
REMARK    8  A    between atoms: O_23  and  C_24
REMARK                            x       y       z     vdW  Elec       q    Type
REMARK                         _______ _______ _______ _____ _____    ______ ____
ROOT
ATOM      1  C   UNL     1       1.826   8.210  18.336  0.00  0.00    +0.000 C 
ATOM      2  C   UNL     1       1.537   8.290  19.832  0.00  0.00    +0.000 C 
ATOM      3  C   UNL     1       1.081   9.708  20.004  0.00  0.00    +0.000 C 
ATOM      4  O   UNL     1       0.413  10.080  20.956  0.00  0.00    +0.000 OA
ATOM      5  N   UNL     1       1.551  10.447  18.906  0.00  0.00    +0.000 N 
ATOM      6  C   UNL     1       2.324   9.612  18.001  0.00  0.00    +0.000 C 
ENDROOT
BRANCH   1  10
ATOM      7  C   UNL     1       4.238   4.794  17.204  0.00  0.00    +0.000 A 
ATOM      8  C   UNL     1       4.691   6.115  17.094  0.00  0.00    +0.000 A 
ATOM      9  C   UNL     1       3.909   7.176  17.518  0.00  0.00    +0.000 A 
ATOM     10  C   UNL     1       2.622   6.967  18.030  0.00  0.00    +0.000 A 
ATOM     11  C   UNL     1       2.138   5.652  18.071  0.00  0.00    +0.000 A 
ATOM     12  C   UNL     1       2.931   4.554  17.657  0.00  0.00    +0.000 A 
BRANCH   7  14
ATOM     13  C   UNL     1       5.731   3.935  15.584  0.00  0.00    +0.000 C 
ATOM     14  O   UNL     1       5.042   3.756  16.820  0.00  0.00    +0.000 OA
ENDBRANCH   7  14
BRANCH  12  15
ATOM     15  O   UNL     1       2.268   3.350  17.711  0.00  0.00    +0.000 OA
BRANCH  15  16
ATOM     16  C   UNL     1       2.226   2.583  18.916  0.00  0.00    +0.000 C 
ATOM     17  C   UNL     1       3.304   3.032  19.897  0.00  0.00    +0.000 C 
ATOM     18  C   UNL     1       2.730   2.796  21.283  0.00  0.00    +0.000 C 
ATOM     19  C   UNL     1       1.223   2.947  21.143  0.00  0.00    +0.000 C 
ATOM     20  C   UNL     1       0.907   2.873  19.652  0.00  0.00    +0.000 C 
ENDBRANCH  15  16
ENDBRANCH  12  15
ENDBRANCH   1  10
BRANCH   5  21
ATOM     21  C   UNL     1       1.429  11.854  18.778  0.00  0.00    +0.000 A 
ATOM     22  C   UNL     1       2.525  12.616  18.351  0.00  0.00    +0.000 A 
ATOM     23  C   UNL     1       2.447  14.003  18.208  0.00  0.00    +0.000 A 
ATOM     24  C   UNL     1       1.226  14.629  18.453  0.00  0.00    +0.000 A 
ATOM     25  C   UNL     1       0.138  13.913  18.963  0.00  0.00    +0.000 A 
ATOM     26  C   UNL     1       0.229  12.517  19.059  0.00  0.00    +0.000 A 
BRANCH  23  27
ATOM     27  N   UNL     1       3.500  14.699  17.594  0.00  0.00    +0.000 N 
ATOM     28  H   UNL     1       3.324  14.922  16.619  0.00  0.00    +0.000 HD
ATOM     29  H   UNL     1       4.409  14.272  17.729  0.00  0.00    +0.000 HD
ENDBRANCH  23  27
BRANCH  25  30
ATOM     30  N   UNL     1      -1.094  14.557  19.159  0.00  0.00    +0.000 N 
ATOM     31  H   UNL     1      -1.735  14.446  18.379  0.00  0.00    +0.000 HD
ATOM     32  H   UNL     1      -1.007  15.528  19.441  0.00  0.00    +0.000 HD
ENDBRANCH  25  30
ENDBRANCH   5  21
TORSDOF 7
ENDMDL
MODEL 6
REMARK VINA RESULT:      -8.1      1.672      3.353
REMARK  Name = 
REMARK  8 active torsions:
REMARK  status: ('A' for Active; 'I' for Inactive)
REMARK    1  A    between atoms: C_1  and  O_2
REMARK    2  A    between atoms: O_2  and  C_3
REMARK    3  A    between atoms: C_6  and  C_7
REMARK    4  A    between atoms: N_11  and  C_12
REMARK    5  A    between atoms: C_14  and  N_15
REMARK    6  A    between atoms: C_17  and  N_18
REMARK    7  A    between atoms: C_22  and  O_23
REMARK    8  A    between atoms: O_23  and  C_24
REMARK                            x       y       z     vdW  Elec       q    Type
REMARK                         _______ _______ _______ _____ _____    ______ ____
ROOT
ATOM      1  C   UNL     1       2.399   7.380  18.349  0.00  0.00    +0.000 C 
ATOM      2  C   UNL     1       2.189   7.449  19.858  0.00  0.00    +0.000 C 
ATOM      3  C   UNL     1       1.230   8.593  20.004  0.00  0.00    +0.000 C 
ATOM      4  O   UNL     1       0.527   8.748  20.990  0.00  0.00    +0.000 OA
ATOM      5  N   UNL     1       1.315   9.376  18.841  0.00  0.00    +0.000 N 
ATOM      6  C   UNL     1       2.296   8.838  17.914  0.00  0.00    +0.000 C 
ENDROOT
BRANCH   1  10
ATOM      7  C   UNL     1       5.949   4.973  17.734  0.00  0.00    +0.000 A 
ATOM      8  C   UNL     1       5.286   5.050  18.966  0.00  0.00    +0.000 A 
ATOM      9  C   UNL     1       4.123   5.788  19.106  0.00  0.00    +0.000 A 
ATOM     10  C   UNL     1       3.596   6.518  18.033  0.00  0.00    +0.000 A 
ATOM     11  C   UNL     1       4.299   6.504  16.821  0.00  0.00    +0.000 A 
ATOM     12  C   UNL     1       5.481   5.740  16.655  0.00  0.00    +0.000 A 
BRANCH   7  14
ATOM     13  C   UNL     1       8.219   4.662  18.320  0.00  0.00    +0.000 C 
ATOM     14  O   UNL     1       7.074   4.205  17.604  0.00  0.00    +0.000 OA
ENDBRANCH   7  14
BRANCH  12  15
ATOM     15  O   UNL     1       6.065   5.897  15.420  0.00  0.00    +0.000 OA
BRANCH  15  16
ATOM     16  C   UNL     1       6.557   4.773  14.687  0.00  0.00    +0.000 C 
ATOM     17  C   UNL     1       5.437   4.075  13.924  0.00  0.00    +0.000 C 
ATOM     18  C   UNL     1       6.079   3.504  12.672  0.00  0.00    +0.000 C 
ATOM     19  C   UNL     1       7.242   4.427  12.339  0.00  0.00    +0.000 C 
ATOM     20  C   UNL     1       7.508   5.269  13.584  0.00  0.00    +0.000 C 
ENDBRANCH  15  16
ENDBRANCH  12  15
ENDBRANCH   1  10
BRANCH   5  21
ATOM     21  C   UNL     1       0.651  10.616  18.663  0.00  0.00    +0.000 A 
ATOM     22  C   UNL     1       1.345  11.818  18.862  0.00  0.00    +0.000 A 
ATOM     23  C   UNL     1       0.732  13.060  18.693  0.00  0.00    +0.000 A 
ATOM     24  C   UNL     1      -0.596  13.094  18.268  0.00  0.00    +0.000 A 
ATOM     25  C   UNL     1      -1.344  11.918  18.144  0.00  0.00    +0.000 A 
ATOM     26  C   UNL     1      -0.694  10.683  18.279  0.00  0.00    +0.000 A 
BRANCH  23  27
ATOM     27  N   UNL     1       1.509  14.228  18.710  0.00  0.00    +0.000 N 
ATOM     28  H   UNL     1       1.503  14.732  17.828  0.00  0.00    +0.000 HD
ATOM     29  H   UNL     1       2.449  14.091  19.064  0.00  0.00    +0.000 HD
ENDBRANCH  23  27
BRANCH  25  30
ATOM     30  N   UNL     1      -2.664  11.975  17.672  0.00  0.00    +0.000 N 
ATOM     31  H   UNL     1      -2.876  11.260  16.982  0.00  0.00    +0.000 HD
ATOM     32  H   UNL     1      -2.946  12.898  17.357  0.00  0.00    +0.000 HD
ENDBRANCH  25  30
ENDBRANCH   5  21
TORSDOF 7
ENDMDL
MODEL 7
REMARK VINA RESULT:      -8.0      1.979      3.783
REMARK  Name = 
REMARK  8 active torsions:
REMARK  status: ('A' for Active; 'I' for Inactive)
REMARK    1  A    between atoms: C_1  and  O_2
REMARK    2  A    between atoms: O_2  and  C_3
REMARK    3  A    between atoms: C_6  and  C_7
REMARK    4  A    between atoms: N_11  and  C_12
REMARK    5  A    between atoms: C_14  and  N_15
REMARK    6  A    between atoms: C_17  and  N_18
REMARK    7  A    between atoms: C_22  and  O_23
REMARK    8  A    between atoms: O_23  and  C_24
REMARK                            x       y       z     vdW  Elec       q    Type
REMARK                         _______ _______ _______ _____ _____    ______ ____
ROOT
ATOM      1  C   UNL     1       2.181   7.844  19.784  0.00  0.00    +0.000 C 
ATOM      2  C   UNL     1       2.275   8.484  18.402  0.00  0.00    +0.000 C 
ATOM      3  C   UNL     1       1.533   9.774  18.586  0.00  0.00    +0.000 C 
ATOM      4  O   UNL     1       1.682  10.737  17.850  0.00  0.00    +0.000 OA
ATOM      5  N   UNL     1       0.702   9.635  19.710  0.00  0.00    +0.000 N 
ATOM      6  C   UNL     1       0.821   8.309  20.294  0.00  0.00    +0.000 C 
ENDROOT
BRANCH   1  10
ATOM      7  C   UNL     1       3.216   3.638  19.871  0.00  0.00    +0.000 A 
ATOM      8  C   UNL     1       2.128   4.168  20.576  0.00  0.00    +0.000 A 
ATOM      9  C   UNL     1       1.798   5.509  20.477  0.00  0.00    +0.000 A 
ATOM     10  C   UNL     1       2.569   6.389  19.706  0.00  0.00    +0.000 A 
ATOM     11  C   UNL     1       3.702   5.876  19.061  0.00  0.00    +0.000 A 
ATOM     12  C   UNL     1       4.044   4.502  19.137  0.00  0.00    +0.000 A 
BRANCH   7  14
ATOM     13  C   UNL     1       3.276   1.555  18.753  0.00  0.00    +0.000 C 
ATOM     14  O   UNL     1       3.501   2.302  19.946  0.00  0.00    +0.000 OA
ENDBRANCH   7  14
BRANCH  12  15
ATOM     15  O   UNL     1       5.220   4.196  18.493  0.00  0.00    +0.000 OA
BRANCH  15  16
ATOM     16  C   UNL     1       5.595   4.859  17.284  0.00  0.00    +0.000 C 
ATOM     17  C   UNL     1       7.078   4.671  16.986  0.00  0.00    +0.000 C 
ATOM     18  C   UNL     1       7.202   4.671  15.472  0.00  0.00    +0.000 C 
ATOM     19  C   UNL     1       5.885   4.122  14.945  0.00  0.00    +0.000 C 
ATOM     20  C   UNL     1       4.886   4.183  16.098  0.00  0.00    +0.000 C 
ENDBRANCH  15  16
ENDBRANCH  12  15
ENDBRANCH   1  10
BRANCH   5  21
ATOM     21  C   UNL     1      -0.249  10.602  20.125  0.00  0.00    +0.000 A 
ATOM     22  C   UNL     1      -1.252  11.022  19.240  0.00  0.00    +0.000 A 
ATOM     23  C   UNL     1      -2.210  11.968  19.609  0.00  0.00    +0.000 A 
ATOM     24  C   UNL     1      -2.187  12.466  20.912  0.00  0.00    +0.000 A 
ATOM     25  C   UNL     1      -1.150  12.136  21.791  0.00  0.00    +0.000 A 
ATOM     26  C   UNL     1      -0.225  11.154  21.412  0.00  0.00    +0.000 A 
BRANCH  23  27
ATOM     27  N   UNL     1      -3.306  12.213  18.768  0.00  0.00    +0.000 N 
ATOM     28  H   UNL     1      -4.184  11.851  19.130  0.00  0.00    +0.000 HD
ATOM     29  H   UNL     1      -3.152  11.943  17.803  0.00  0.00    +0.000 HD
ENDBRANCH  23  27
BRANCH  25  30
ATOM     30  N   UNL     1      -1.173  12.614  23.111  0.00  0.00    +0.000 N 
ATOM     31  H   UNL     1      -2.111  12.779  23.463  0.00  0.00    +0.000 HD
ATOM     32  H   UNL     1      -0.566  13.413  23.266  0.00  0.00    +0.000 HD
ENDBRANCH  25  30
ENDBRANCH   5  21
TORSDOF 7
ENDMDL
MODEL 8
REMARK VINA RESULT:      -8.0      1.405      3.180
REMARK  Name = 
REMARK  8 active torsions:
REMARK  status: ('A' for Active; 'I' for Inactive)
REMARK    1  A    between atoms: C_1  and  O_2
REMARK    2  A    between atoms: O_2  and  C_3
REMARK    3  A    between atoms: C_6  and  C_7
REMARK    4  A    between atoms: N_11  and  C_12
REMARK    5  A    between atoms: C_14  and  N_15
REMARK    6  A    between atoms: C_17  and  N_18
REMARK    7  A    between atoms: C_22  and  O_23
REMARK    8  A    between atoms: O_23  and  C_24
REMARK                            x       y       z     vdW  Elec       q    Type
REMARK                         _______ _______ _______ _____ _____    ______ ____
ROOT
ATOM      1  C   UNL     1       1.401   7.405  20.138  0.00  0.00    +0.000 C 
ATOM      2  C   UNL     1       1.674   7.953  21.535  0.00  0.00    +0.000 C 
ATOM      3  C   UNL     1       1.175   9.363  21.438  0.00  0.00    +0.000 C 
ATOM      4  O   UNL     1       0.870  10.029  22.416  0.00  0.00    +0.000 OA
ATOM      5  N   UNL     1       1.135   9.714  20.079  0.00  0.00    +0.000 N 
ATOM      6  C   UNL     1       1.600   8.622  19.240  0.00  0.00    +0.000 C 
ENDROOT
BRANCH   1  10
ATOM      7  C   UNL     1       3.451   3.600  19.849  0.00  0.00    +0.000 A 
ATOM      8  C   UNL     1       2.206   3.747  20.474  0.00  0.00    +0.000 A 
ATOM      9  C   UNL     1       1.559   4.971  20.496  0.00  0.00    +0.000 A 
ATOM     10  C   UNL     1       2.148   6.111  19.935  0.00  0.00    +0.000 A 
ATOM     11  C   UNL     1       3.427   5.982  19.377  0.00  0.00    +0.000 A 
ATOM     12  C   UNL     1       4.096   4.733  19.330  0.00  0.00    +0.000 A 
BRANCH   7  14
ATOM     13  C   UNL     1       3.665   1.537  18.712  0.00  0.00    +0.000 C 
ATOM     14  O   UNL     1       4.056   2.373  19.799  0.00  0.00    +0.000 OA
ENDBRANCH   7  14
BRANCH  12  15
ATOM     15  O   UNL     1       5.363   4.812  18.803  0.00  0.00    +0.000 OA
BRANCH  15  16
ATOM     16  C   UNL     1       5.578   5.237  17.455  0.00  0.00    +0.000 C 
ATOM     17  C   UNL     1       7.040   5.085  17.051  0.00  0.00    +0.000 C 
ATOM     18  C   UNL     1       7.032   4.784  15.563  0.00  0.00    +0.000 C 
ATOM     19  C   UNL     1       5.723   4.059  15.289  0.00  0.00    +0.000 C 
ATOM     20  C   UNL     1       4.826   4.292  16.502  0.00  0.00    +0.000 C 
ENDBRANCH  15  16
ENDBRANCH  12  15
ENDBRANCH   1  10
BRANCH   5  21
ATOM     21  C   UNL     1       0.837  11.013  19.597  0.00  0.00    +0.000 A 
ATOM     22  C   UNL     1       1.833  11.773  18.967  0.00  0.00    +0.000 A 
ATOM     23  C   UNL     1       1.581  13.054  18.474  0.00  0.00    +0.000 A 
ATOM     24  C   UNL     1       0.286  13.562  18.573  0.00  0.00    +0.000 A 
ATOM     25  C   UNL     1      -0.709  12.870  19.272  0.00  0.00    +0.000 A 
ATOM     26  C   UNL     1      -0.442  11.569  19.720  0.00  0.00    +0.000 A 
BRANCH  23  27
ATOM     27  N   UNL     1       2.544  13.697  17.682  0.00  0.00    +0.000 N 
ATOM     28  H   UNL     1       2.337  14.676  17.506  0.00  0.00    +0.000 HD
ATOM     29  H   UNL     1       2.776  13.198  16.831  0.00  0.00    +0.000 HD
ENDBRANCH  23  27
BRANCH  25  30
ATOM     30  N   UNL     1      -2.015  13.381  19.320  0.00  0.00    +0.000 N 
ATOM     31  H   UNL     1      -2.638  12.959  18.637  0.00  0.00    +0.000 HD
ATOM     32  H   UNL     1      -2.058  14.395  19.294  0.00  0.00    +0.000 HD
ENDBRANCH  25  30
ENDBRANCH   5  21
TORSDOF 7
ENDMDL
MODEL 9
REMARK VINA RESULT:      -8.0      1.344      3.453
REMARK  Name = 
REMARK  8 active torsions:
REMARK  status: ('A' for Active; 'I' for Inactive)
REMARK    1  A    between atoms: C_1  and  O_2
REMARK    2  A    between atoms: O_2  and  C_3
REMARK    3  A    between atoms: C_6  and  C_7
REMARK    4  A    between atoms: N_11  and  C_12
REMARK    5  A    between atoms: C_14  and  N_15
REMARK    6  A    between atoms: C_17  and  N_18
REMARK    7  A    between atoms: C_22  and  O_23
REMARK    8  A    between atoms: O_23  and  C_24
REMARK                            x       y       z     vdW  Elec       q    Type
REMARK                         _______ _______ _______ _____ _____    ______ ____
ROOT
ATOM      1  C   UNL     1       1.367   7.429  20.146  0.00  0.00    +0.000 C 
ATOM      2  C   UNL     1       1.673   8.003  21.526  0.00  0.00    +0.000 C 
ATOM      3  C   UNL     1       1.126   9.396  21.430  0.00  0.00    +0.000 C 
ATOM      4  O   UNL     1       0.835  10.064  22.411  0.00  0.00    +0.000 OA
ATOM      5  N   UNL     1       1.026   9.727  20.069  0.00  0.00    +0.000 N 
ATOM      6  C   UNL     1       1.496   8.639  19.227  0.00  0.00    +0.000 C 
ENDROOT
BRANCH   1  10
ATOM      7  C   UNL     1       3.510   3.677  19.822  0.00  0.00    +0.000 A 
ATOM      8  C   UNL     1       2.254   3.785  20.431  0.00  0.00    +0.000 A 
ATOM      9  C   UNL     1       1.578   4.993  20.465  0.00  0.00    +0.000 A 
ATOM     10  C   UNL     1       2.147   6.156  19.933  0.00  0.00    +0.000 A 
ATOM     11  C   UNL     1       3.437   6.066  19.391  0.00  0.00    +0.000 A 
ATOM     12  C   UNL     1       4.135   4.835  19.332  0.00  0.00    +0.000 A 
BRANCH   7  14
ATOM     13  C   UNL     1       3.657   1.565  18.769  0.00  0.00    +0.000 C 
ATOM     14  O   UNL     1       4.145   2.466  19.760  0.00  0.00    +0.000 OA
ENDBRANCH   7  14
BRANCH  12  15
ATOM     15  O   UNL     1       5.408   4.952  18.825  0.00  0.00    +0.000 OA
BRANCH  15  16
ATOM     16  C   UNL     1       5.629   5.312  17.459  0.00  0.00    +0.000 C 
ATOM     17  C   UNL     1       7.077   5.069  17.049  0.00  0.00    +0.000 C 
ATOM     18  C   UNL     1       7.037   4.709  15.574  0.00  0.00    +0.000 C 
ATOM     19  C   UNL     1       5.691   4.041  15.342  0.00  0.00    +0.000 C 
ATOM     20  C   UNL     1       4.820   4.367  16.553  0.00  0.00    +0.000 C 
ENDBRANCH  15  16
ENDBRANCH  12  15
ENDBRANCH   1  10
BRANCH   5  21
ATOM     21  C   UNL     1       0.669  11.009  19.582  0.00  0.00    +0.000 A 
ATOM     22  C   UNL     1      -0.676  11.406  19.574  0.00  0.00    +0.000 A 
ATOM     23  C   UNL     1      -1.070  12.662  19.108  0.00  0.00    +0.000 A 
ATOM     24  C   UNL     1      -0.086  13.554  18.686  0.00  0.00    +0.000 A 
ATOM     25  C   UNL     1       1.254  13.161  18.598  0.00  0.00    +0.000 A 
ATOM     26  C   UNL     1       1.630  11.912  19.110  0.00  0.00    +0.000 A 
BRANCH  23  27
ATOM     27  N   UNL     1      -2.393  13.090  19.299  0.00  0.00    +0.000 N 
ATOM     28  H   UNL     1      -2.988  12.389  19.730  0.00  0.00    +0.000 HD
ATOM     29  H   UNL     1      -2.817  13.495  18.472  0.00  0.00    +0.000 HD
ENDBRANCH  23  27
BRANCH  25  30
ATOM     30  N   UNL     1       2.232  14.091  18.212  0.00  0.00    +0.000 N 
ATOM     31  H   UNL     1       2.680  14.553  18.998  0.00  0.00    +0.000 HD
ATOM     32  H   UNL     1       1.911  14.757  17.516  0.00  0.00    +0.000 HD
ENDBRANCH  25  30
ENDBRANCH   5  21
TORSDOF 7
ENDMDL
