MODEL 1
REMARK VINA RESULT:      -8.1      0.000      0.000
REMARK  Name = 
REMARK  5 active torsions:
REMARK  status: ('A' for Active; 'I' for Inactive)
REMARK    1  A    between atoms: C_1  and  O_2
REMARK    2  A    between atoms: O_2  and  C_3
REMARK    3  A    between atoms: C_7  and  C_8
REMARK    4  A    between atoms: C_21  and  O_22
REMARK    5  A    between atoms: O_22  and  C_23
REMARK                            x       y       z     vdW  Elec       q    Type
REMARK                         _______ _______ _______ _____ _____    ______ ____
ROOT
ATOM      1  C   UNL     1       5.171   5.039  18.186  0.00  0.00    +0.000 C 
ATOM      2  N   UNL     1       6.142   5.368  18.974  0.00  0.00    +0.000 NA
ATOM      3  C   UNL     1       7.557   5.390  18.685  0.00  0.00    +0.000 C 
ATOM      4  C   UNL     1       7.802   4.505  17.510  0.00  0.00    +0.000 C 
ATOM      5  C   UNL     1       6.907   5.054  16.446  0.00  0.00    +0.000 A 
ATOM      6  C   UNL     1       7.503   5.342  15.226  0.00  0.00    +0.000 A 
ATOM      7  C   UNL     1       6.835   4.853  14.167  0.00  0.00    +0.000 A 
ATOM      8  C   UNL     1       5.604   4.227  14.331  0.00  0.00    +0.000 A 
ATOM      9  C   UNL     1       4.882   4.264  15.548  0.00  0.00    +0.000 A 
ATOM     10  C   UNL     1       5.516   4.798  16.673  0.00  0.00    +0.000 A 
ATOM     11  O   UNL     1       5.313   3.520  13.188  0.00  0.00    +0.000 OA
ATOM     12  C   UNL     1       6.549   3.677  12.418  0.00  0.00    +0.000 C 
ATOM     13  O   UNL     1       7.379   4.704  12.944  0.00  0.00    +0.000 OA
ENDROOT
BRANCH   1  18
ATOM     14  C   UNL     1       1.921   4.124  20.261  0.00  0.00    +0.000 A 
ATOM     15  C   UNL     1       1.499   5.437  20.545  0.00  0.00    +0.000 A 
ATOM     16  C   UNL     1       2.146   6.502  19.979  0.00  0.00    +0.000 A 
ATOM     17  C   UNL     1       3.282   6.255  19.214  0.00  0.00    +0.000 A 
ATOM     18  C   UNL     1       3.868   4.953  19.003  0.00  0.00    +0.000 A 
ATOM     19  C   UNL     1       3.133   3.882  19.517  0.00  0.00    +0.000 A 
BRANCH  14  21
ATOM     20  C   UNL     1       1.477   2.438  21.921  0.00  0.00    +0.000 C 
ATOM     21  O   UNL     1       1.147   3.054  20.667  0.00  0.00    +0.000 OA
ENDBRANCH  14  21
BRANCH  19  22
ATOM     22  O   UNL     1       3.555   2.619  19.178  0.00  0.00    +0.000 OA
ATOM     23  C   UNL     1       2.945   2.124  17.991  0.00  0.00    +0.000 C 
ENDBRANCH  19  22
ENDBRANCH   1  18
TORSDOF 3
ENDMDL
MODEL 2
REMARK VINA RESULT:      -7.3      3.672      7.615
REMARK  Name = 
REMARK  5 active torsions:
REMARK  status: ('A' for Active; 'I' for Inactive)
REMARK    1  A    between atoms: C_1  and  O_2
REMARK    2  A    between atoms: O_2  and  C_3
REMARK    3  A    between atoms: C_7  and  C_8
REMARK    4  A    between atoms: C_21  and  O_22
REMARK    5  A    between atoms: O_22  and  C_23
REMARK                            x       y       z     vdW  Elec       q    Type
REMARK                         _______ _______ _______ _____ _____    ______ ____
ROOT
ATOM      1  C   UNL     1       2.033   7.055  19.631  0.00  0.00    +0.000 C 
ATOM      2  N   UNL     1       2.465   7.395  18.461  0.00  0.00    +0.000 NA
ATOM      3  C   UNL     1       2.257   8.642  17.762  0.00  0.00    +0.000 C 
ATOM      4  C   UNL     1       1.059   9.308  18.351  0.00  0.00    +0.000 C 
ATOM      5  C   UNL     1       1.381   9.418  19.807  0.00  0.00    +0.000 A 
ATOM      6  C   UNL     1       1.254  10.678  20.373  0.00  0.00    +0.000 A 
ATOM      7  C   UNL     1       0.562  10.688  21.525  0.00  0.00    +0.000 A 
ATOM      8  C   UNL     1       0.140   9.499  22.110  0.00  0.00    +0.000 A 
ATOM      9  C   UNL     1       0.589   8.229  21.675  0.00  0.00    +0.000 A 
ATOM     10  C   UNL     1       1.346   8.166  20.502  0.00  0.00    +0.000 A 
ATOM     11  O   UNL     1      -0.823   9.787  23.048  0.00  0.00    +0.000 OA
ATOM     12  C   UNL     1      -1.017  11.224  22.845  0.00  0.00    +0.000 C 
ATOM     13  O   UNL     1       0.023  11.798  22.064  0.00  0.00    +0.000 OA
ENDROOT
BRANCH   1  18
ATOM     14  C   UNL     1       3.329   3.314  19.811  0.00  0.00    +0.000 A 
ATOM     15  C   UNL     1       2.338   2.808  20.673  0.00  0.00    +0.000 A 
ATOM     16  C   UNL     1       1.276   3.594  21.030  0.00  0.00    +0.000 A 
ATOM     17  C   UNL     1       1.262   4.920  20.609  0.00  0.00    +0.000 A 
ATOM     18  C   UNL     1       2.315   5.556  19.854  0.00  0.00    +0.000 A 
ATOM     19  C   UNL     1       3.338   4.706  19.430  0.00  0.00    +0.000 A 
BRANCH  14  21
ATOM     20  C   UNL     1       3.834   1.401  18.438  0.00  0.00    +0.000 C 
ATOM     21  O   UNL     1       4.286   2.461  19.294  0.00  0.00    +0.000 OA
ENDBRANCH  14  21
BRANCH  19  22
ATOM     22  O   UNL     1       4.259   5.228  18.555  0.00  0.00    +0.000 OA
ATOM     23  C   UNL     1       5.528   5.470  19.153  0.00  0.00    +0.000 C 
ENDBRANCH  19  22
ENDBRANCH   1  18
TORSDOF 3
ENDMDL
MODEL 3
REMARK VINA RESULT:      -7.1      0.972      2.051
REMARK  Name = 
REMARK  5 active torsions:
REMARK  status: ('A' for Active; 'I' for Inactive)
REMARK    1  A    between atoms: C_1  and  O_2
REMARK    2  A    between atoms: O_2  and  C_3
REMARK    3  A    between atoms: C_7  and  C_8
REMARK    4  A    between atoms: C_21  and  O_22
REMARK    5  A    between atoms: O_22  and  C_23
REMARK                            x       y       z     vdW  Elec       q    Type
REMARK                         _______ _______ _______ _____ _____    ______ ____
ROOT
ATOM      1  C   UNL     1       5.080   4.169  17.762  0.00  0.00    +0.000 C 
ATOM      2  N   UNL     1       5.825   4.620  18.718  0.00  0.00    +0.000 NA
ATOM      3  C   UNL     1       7.190   5.087  18.639  0.00  0.00    +0.000 C 
ATOM      4  C   UNL     1       7.804   4.515  17.406  0.00  0.00    +0.000 C 
ATOM      5  C   UNL     1       6.894   4.961  16.306  0.00  0.00    +0.000 A 
ATOM      6  C   UNL     1       7.494   5.604  15.233  0.00  0.00    +0.000 A 
ATOM      7  C   UNL     1       7.112   5.132  14.034  0.00  0.00    +0.000 A 
ATOM      8  C   UNL     1       6.114   4.168  13.936  0.00  0.00    +0.000 A 
ATOM      9  C   UNL     1       5.298   3.797  15.032  0.00  0.00    +0.000 A 
ATOM     10  C   UNL     1       5.629   4.291  16.296  0.00  0.00    +0.000 A 
ATOM     11  O   UNL     1       6.162   3.609  12.681  0.00  0.00    +0.000 OA
ATOM     12  C   UNL     1       7.364   4.232  12.123  0.00  0.00    +0.000 C 
ATOM     13  O   UNL     1       7.793   5.348  12.893  0.00  0.00    +0.000 OA
ENDROOT
BRANCH   1  18
ATOM     14  C   UNL     1       1.782   3.223  19.745  0.00  0.00    +0.000 A 
ATOM     15  C   UNL     1       1.425   2.087  18.995  0.00  0.00    +0.000 A 
ATOM     16  C   UNL     1       2.273   1.608  18.032  0.00  0.00    +0.000 A 
ATOM     17  C   UNL     1       3.428   2.331  17.750  0.00  0.00    +0.000 A 
ATOM     18  C   UNL     1       3.788   3.586  18.366  0.00  0.00    +0.000 A 
ATOM     19  C   UNL     1       2.950   3.998  19.404  0.00  0.00    +0.000 A 
BRANCH  14  21
ATOM     20  C   UNL     1       1.210   2.824  22.050  0.00  0.00    +0.000 C 
ATOM     21  O   UNL     1       1.025   3.581  20.845  0.00  0.00    +0.000 OA
ENDBRANCH  14  21
BRANCH  19  22
ATOM     22  O   UNL     1       3.358   5.085  20.139  0.00  0.00    +0.000 OA
ATOM     23  C   UNL     1       2.755   6.304  19.720  0.00  0.00    +0.000 C 
ENDBRANCH  19  22
ENDBRANCH   1  18
TORSDOF 3
ENDMDL
MODEL 4
REMARK VINA RESULT:      -7.1      3.787      5.533
REMARK  Name = 
REMARK  5 active torsions:
REMARK  status: ('A' for Active; 'I' for Inactive)
REMARK    1  A    between atoms: C_1  and  O_2
REMARK    2  A    between atoms: O_2  and  C_3
REMARK    3  A    between atoms: C_7  and  C_8
REMARK    4  A    between atoms: C_21  and  O_22
REMARK    5  A    between atoms: O_22  and  C_23
REMARK                            x       y       z     vdW  Elec       q    Type
REMARK                         _______ _______ _______ _____ _____    ______ ____
ROOT
ATOM      1  C   UNL     1       2.050   6.989  19.918  0.00  0.00    +0.000 C 
ATOM      2  N   UNL     1       1.615   6.026  20.663  0.00  0.00    +0.000 NA
ATOM      3  C   UNL     1       1.831   4.607  20.503  0.00  0.00    +0.000 C 
ATOM      4  C   UNL     1       2.205   4.355  19.081  0.00  0.00    +0.000 C 
ATOM      5  C   UNL     1       3.397   5.229  18.857  0.00  0.00    +0.000 A 
ATOM      6  C   UNL     1       4.524   4.612  18.331  0.00  0.00    +0.000 A 
ATOM      7  C   UNL     1       5.067   5.270  17.292  0.00  0.00    +0.000 A 
ATOM      8  C   UNL     1       4.574   6.510  16.900  0.00  0.00    +0.000 A 
ATOM      9  C   UNL     1       3.652   7.249  17.680  0.00  0.00    +0.000 A 
ATOM     10  C   UNL     1       3.086   6.625  18.795  0.00  0.00    +0.000 A 
ATOM     11  O   UNL     1       5.042   6.792  15.639  0.00  0.00    +0.000 OA
ATOM     12  C   UNL     1       5.723   5.544  15.287  0.00  0.00    +0.000 C 
ATOM     13  O   UNL     1       5.928   4.711  16.421  0.00  0.00    +0.000 OA
ENDROOT
BRANCH   1  18
ATOM     14  C   UNL     1       0.287  10.512  20.353  0.00  0.00    +0.000 A 
ATOM     15  C   UNL     1       0.143  10.483  21.753  0.00  0.00    +0.000 A 
ATOM     16  C   UNL     1       0.707   9.468  22.478  0.00  0.00    +0.000 A 
ATOM     17  C   UNL     1       1.323   8.427  21.791  0.00  0.00    +0.000 A 
ATOM     18  C   UNL     1       1.377   8.305  20.354  0.00  0.00    +0.000 A 
ATOM     19  C   UNL     1       0.874   9.399  19.647  0.00  0.00    +0.000 A 
BRANCH  14  21
ATOM     20  C   UNL     1      -1.472  11.699  19.217  0.00  0.00    +0.000 C 
ATOM     21  O   UNL     1      -0.105  11.634  19.648  0.00  0.00    +0.000 OA
ENDBRANCH  14  21
BRANCH  19  22
ATOM     22  O   UNL     1       1.076   9.407  18.288  0.00  0.00    +0.000 OA
ATOM     23  C   UNL     1       2.101  10.307  17.878  0.00  0.00    +0.000 C 
ENDBRANCH  19  22
ENDBRANCH   1  18
TORSDOF 3
ENDMDL
MODEL 5
REMARK VINA RESULT:      -7.0      1.320      1.389
REMARK  Name = 
REMARK  5 active torsions:
REMARK  status: ('A' for Active; 'I' for Inactive)
REMARK    1  A    between atoms: C_1  and  O_2
REMARK    2  A    between atoms: O_2  and  C_3
REMARK    3  A    between atoms: C_7  and  C_8
REMARK    4  A    between atoms: C_21  and  O_22
REMARK    5  A    between atoms: O_22  and  C_23
REMARK                            x       y       z     vdW  Elec       q    Type
REMARK                         _______ _______ _______ _____ _____    ______ ____
ROOT
ATOM      1  C   UNL     1       5.036   4.357  17.624  0.00  0.00    +0.000 C 
ATOM      2  N   UNL     1       5.829   4.838  18.524  0.00  0.00    +0.000 NA
ATOM      3  C   UNL     1       7.218   5.211  18.381  0.00  0.00    +0.000 C 
ATOM      4  C   UNL     1       7.765   4.503  17.189  0.00  0.00    +0.000 C 
ATOM      5  C   UNL     1       6.858   4.912  16.073  0.00  0.00    +0.000 A 
ATOM      6  C   UNL     1       7.470   5.426  14.938  0.00  0.00    +0.000 A 
ATOM      7  C   UNL     1       7.031   4.881  13.791  0.00  0.00    +0.000 A 
ATOM      8  C   UNL     1       5.975   3.976  13.793  0.00  0.00    +0.000 A 
ATOM      9  C   UNL     1       5.164   3.748  14.931  0.00  0.00    +0.000 A 
ATOM     10  C   UNL     1       5.555   4.323  16.143  0.00  0.00    +0.000 A 
ATOM     11  O   UNL     1       5.959   3.314  12.588  0.00  0.00    +0.000 OA
ATOM     12  C   UNL     1       7.182   3.813  11.957  0.00  0.00    +0.000 C 
ATOM     13  O   UNL     1       7.696   4.960  12.622  0.00  0.00    +0.000 OA
ENDROOT
BRANCH   1  18
ATOM     14  C   UNL     1       2.087   2.900  19.836  0.00  0.00    +0.000 A 
ATOM     15  C   UNL     1       1.013   3.444  19.107  0.00  0.00    +0.000 A 
ATOM     16  C   UNL     1       1.247   4.098  17.927  0.00  0.00    +0.000 A 
ATOM     17  C   UNL     1       2.566   4.297  17.532  0.00  0.00    +0.000 A 
ATOM     18  C   UNL     1       3.725   3.907  18.299  0.00  0.00    +0.000 A 
ATOM     19  C   UNL     1       3.452   3.164  19.450  0.00  0.00    +0.000 A 
BRANCH  14  21
ATOM     20  C   UNL     1       1.420   2.692  22.140  0.00  0.00    +0.000 C 
ATOM     21  O   UNL     1       1.833   2.072  20.912  0.00  0.00    +0.000 OA
ENDBRANCH  14  21
BRANCH  19  22
ATOM     22  O   UNL     1       4.526   2.614  20.106  0.00  0.00    +0.000 OA
ATOM     23  C   UNL     1       4.780   1.264  19.732  0.00  0.00    +0.000 C 
ENDBRANCH  19  22
ENDBRANCH   1  18
TORSDOF 3
ENDMDL
MODEL 6
REMARK VINA RESULT:      -7.0      3.665      7.636
REMARK  Name = 
REMARK  5 active torsions:
REMARK  status: ('A' for Active; 'I' for Inactive)
REMARK    1  A    between atoms: C_1  and  O_2
REMARK    2  A    between atoms: O_2  and  C_3
REMARK    3  A    between atoms: C_7  and  C_8
REMARK    4  A    between atoms: C_21  and  O_22
REMARK    5  A    between atoms: O_22  and  C_23
REMARK                            x       y       z     vdW  Elec       q    Type
REMARK                         _______ _______ _______ _____ _____    ______ ____
ROOT
ATOM      1  C   UNL     1       2.399   7.620  19.063  0.00  0.00    +0.000 C 
ATOM      2  N   UNL     1       2.504   8.168  17.897  0.00  0.00    +0.000 NA
ATOM      3  C   UNL     1       1.853   9.363  17.411  0.00  0.00    +0.000 C 
ATOM      4  C   UNL     1       0.653   9.611  18.259  0.00  0.00    +0.000 C 
ATOM      5  C   UNL     1       1.197   9.681  19.650  0.00  0.00    +0.000 A 
ATOM      6  C   UNL     1       0.850  10.801  20.392  0.00  0.00    +0.000 A 
ATOM      7  C   UNL     1       0.404  10.517  21.628  0.00  0.00    +0.000 A 
ATOM      8  C   UNL     1       0.422   9.212  22.107  0.00  0.00    +0.000 A 
ATOM      9  C   UNL     1       1.100   8.162  21.442  0.00  0.00    +0.000 A 
ATOM     10  C   UNL     1       1.618   8.415  20.169  0.00  0.00    +0.000 A 
ATOM     11  O   UNL     1      -0.393   9.136  23.211  0.00  0.00    +0.000 OA
ATOM     12  C   UNL     1      -0.990  10.472  23.234  0.00  0.00    +0.000 C 
ATOM     13  O   UNL     1      -0.298  11.380  22.387  0.00  0.00    +0.000 OA
ENDROOT
BRANCH   1  18
ATOM     14  C   UNL     1       3.743   3.917  19.502  0.00  0.00    +0.000 A 
ATOM     15  C   UNL     1       4.712   3.942  18.482  0.00  0.00    +0.000 A 
ATOM     16  C   UNL     1       4.985   5.112  17.825  0.00  0.00    +0.000 A 
ATOM     17  C   UNL     1       4.212   6.231  18.118  0.00  0.00    +0.000 A 
ATOM     18  C   UNL     1       3.100   6.248  19.038  0.00  0.00    +0.000 A 
ATOM     19  C   UNL     1       2.907   5.066  19.756  0.00  0.00    +0.000 A 
BRANCH  14  21
ATOM     20  C   UNL     1       4.696   1.851  20.288  0.00  0.00    +0.000 C 
ATOM     21  O   UNL     1       3.613   2.794  20.295  0.00  0.00    +0.000 OA
ENDBRANCH  14  21
BRANCH  19  22
ATOM     22  O   UNL     1       1.982   5.099  20.772  0.00  0.00    +0.000 OA
ATOM     23  C   UNL     1       0.818   4.327  20.497  0.00  0.00    +0.000 C 
ENDBRANCH  19  22
ENDBRANCH   1  18
TORSDOF 3
ENDMDL
MODEL 7
REMARK VINA RESULT:      -6.9      1.603      7.028
REMARK  Name = 
REMARK  5 active torsions:
REMARK  status: ('A' for Active; 'I' for Inactive)
REMARK    1  A    between atoms: C_1  and  O_2
REMARK    2  A    between atoms: O_2  and  C_3
REMARK    3  A    between atoms: C_7  and  C_8
REMARK    4  A    between atoms: C_21  and  O_22
REMARK    5  A    between atoms: O_22  and  C_23
REMARK                            x       y       z     vdW  Elec       q    Type
REMARK                         _______ _______ _______ _____ _____    ______ ____
ROOT
ATOM      1  C   UNL     1       4.391   5.702  17.100  0.00  0.00    +0.000 C 
ATOM      2  N   UNL     1       4.150   6.971  17.035  0.00  0.00    +0.000 NA
ATOM      3  C   UNL     1       3.203   7.739  17.811  0.00  0.00    +0.000 C 
ATOM      4  C   UNL     1       2.179   6.799  18.352  0.00  0.00    +0.000 C 
ATOM      5  C   UNL     1       2.977   5.786  19.108  0.00  0.00    +0.000 A 
ATOM      6  C   UNL     1       2.592   5.552  20.421  0.00  0.00    +0.000 A 
ATOM      7  C   UNL     1       2.471   4.249  20.727  0.00  0.00    +0.000 A 
ATOM      8  C   UNL     1       2.828   3.268  19.809  0.00  0.00    +0.000 A 
ATOM      9  C   UNL     1       3.536   3.555  18.617  0.00  0.00    +0.000 A 
ATOM     10  C   UNL     1       3.723   4.896  18.270  0.00  0.00    +0.000 A 
ATOM     11  O   UNL     1       2.288   2.069  20.212  0.00  0.00    +0.000 OA
ATOM     12  C   UNL     1       1.472   2.480  21.356  0.00  0.00    +0.000 C 
ATOM     13  O   UNL     1       1.795   3.792  21.798  0.00  0.00    +0.000 OA
ENDROOT
BRANCH   1  18
ATOM     14  C   UNL     1       7.217   5.128  14.381  0.00  0.00    +0.000 A 
ATOM     15  C   UNL     1       6.559   4.139  13.626  0.00  0.00    +0.000 A 
ATOM     16  C   UNL     1       5.260   3.812  13.909  0.00  0.00    +0.000 A 
ATOM     17  C   UNL     1       4.656   4.401  15.016  0.00  0.00    +0.000 A 
ATOM     18  C   UNL     1       5.312   5.306  15.930  0.00  0.00    +0.000 A 
ATOM     19  C   UNL     1       6.604   5.687  15.562  0.00  0.00    +0.000 A 
BRANCH  14  21
ATOM     20  C   UNL     1       8.592   5.956  12.587  0.00  0.00    +0.000 C 
ATOM     21  O   UNL     1       8.450   5.596  13.969  0.00  0.00    +0.000 OA
ENDBRANCH  14  21
BRANCH  19  22
ATOM     22  O   UNL     1       7.192   6.686  16.299  0.00  0.00    +0.000 OA
ATOM     23  C   UNL     1       7.583   6.267  17.602  0.00  0.00    +0.000 C 
ENDBRANCH  19  22
ENDBRANCH   1  18
TORSDOF 3
ENDMDL
MODEL 8
REMARK VINA RESULT:      -6.8      3.593      7.422
REMARK  Name = 
REMARK  5 active torsions:
REMARK  status: ('A' for Active; 'I' for Inactive)
REMARK    1  A    between atoms: C_1  and  O_2
REMARK    2  A    between atoms: O_2  and  C_3
REMARK    3  A    between atoms: C_7  and  C_8
REMARK    4  A    between atoms: C_21  and  O_22
REMARK    5  A    between atoms: O_22  and  C_23
REMARK                            x       y       z     vdW  Elec       q    Type
REMARK                         _______ _______ _______ _____ _____    ______ ____
ROOT
ATOM      1  C   UNL     1       2.267   7.010  19.056  0.00  0.00    +0.000 C 
ATOM      2  N   UNL     1       2.671   7.552  17.954  0.00  0.00    +0.000 NA
ATOM      3  C   UNL     1       2.414   8.889  17.471  0.00  0.00    +0.000 C 
ATOM      4  C   UNL     1       1.203   9.407  18.170  0.00  0.00    +0.000 C 
ATOM      5  C   UNL     1       1.541   9.288  19.622  0.00  0.00    +0.000 A 
ATOM      6  C   UNL     1       1.380  10.434  20.388  0.00  0.00    +0.000 A 
ATOM      7  C   UNL     1       0.704  10.231  21.532  0.00  0.00    +0.000 A 
ATOM      8  C   UNL     1       0.329   8.949  21.917  0.00  0.00    +0.000 A 
ATOM      9  C   UNL     1       0.814   7.784  21.276  0.00  0.00    +0.000 A 
ATOM     10  C   UNL     1       1.556   7.939  20.103  0.00  0.00    +0.000 A 
ATOM     11  O   UNL     1      -0.630   9.046  22.898  0.00  0.00    +0.000 OA
ATOM     12  C   UNL     1      -0.874  10.489  22.934  0.00  0.00    +0.000 C 
ATOM     13  O   UNL     1       0.136  11.219  22.250  0.00  0.00    +0.000 OA
ENDROOT
BRANCH   1  18
ATOM     14  C   UNL     1       3.740   3.336  19.264  0.00  0.00    +0.000 A 
ATOM     15  C   UNL     1       2.606   2.647  18.794  0.00  0.00    +0.000 A 
ATOM     16  C   UNL     1       1.528   3.346  18.321  0.00  0.00    +0.000 A 
ATOM     17  C   UNL     1       1.545   4.734  18.419  0.00  0.00    +0.000 A 
ATOM     18  C   UNL     1       2.601   5.506  19.028  0.00  0.00    +0.000 A 
ATOM     19  C   UNL     1       3.723   4.771  19.417  0.00  0.00    +0.000 A 
BRANCH  14  21
ATOM     20  C   UNL     1       4.868   1.740  20.671  0.00  0.00    +0.000 C 
ATOM     21  O   UNL     1       4.896   2.636  19.550  0.00  0.00    +0.000 OA
ENDBRANCH  14  21
BRANCH  19  22
ATOM     22  O   UNL     1       4.823   5.485  19.828  0.00  0.00    +0.000 OA
ATOM     23  C   UNL     1       5.801   5.645  18.806  0.00  0.00    +0.000 C 
ENDBRANCH  19  22
ENDBRANCH   1  18
TORSDOF 3
ENDMDL
MODEL 9
REMARK VINA RESULT:      -6.8      1.501      2.327
REMARK  Name = 
REMARK  5 active torsions:
REMARK  status: ('A' for Active; 'I' for Inactive)
REMARK    1  A    between atoms: C_1  and  O_2
REMARK    2  A    between atoms: O_2  and  C_3
REMARK    3  A    between atoms: C_7  and  C_8
REMARK    4  A    between atoms: C_21  and  O_22
REMARK    5  A    between atoms: O_22  and  C_23
REMARK                            x       y       z     vdW  Elec       q    Type
REMARK                         _______ _______ _______ _____ _____    ______ ____
ROOT
ATOM      1  C   UNL     1       5.167   5.192  18.415  0.00  0.00    +0.000 C 
ATOM      2  N   UNL     1       6.159   5.490  19.190  0.00  0.00    +0.000 NA
ATOM      3  C   UNL     1       7.571   5.451  18.885  0.00  0.00    +0.000 C 
ATOM      4  C   UNL     1       7.766   4.542  17.719  0.00  0.00    +0.000 C 
ATOM      5  C   UNL     1       6.883   5.115  16.658  0.00  0.00    +0.000 A 
ATOM      6  C   UNL     1       7.477   5.364  15.429  0.00  0.00    +0.000 A 
ATOM      7  C   UNL     1       6.779   4.890  14.382  0.00  0.00    +0.000 A 
ATOM      8  C   UNL     1       5.525   4.318  14.566  0.00  0.00    +0.000 A 
ATOM      9  C   UNL     1       4.818   4.399  15.791  0.00  0.00    +0.000 A 
ATOM     10  C   UNL     1       5.486   4.920  16.902  0.00  0.00    +0.000 A 
ATOM     11  O   UNL     1       5.193   3.610  13.436  0.00  0.00    +0.000 OA
ATOM     12  C   UNL     1       6.425   3.706  12.651  0.00  0.00    +0.000 C 
ATOM     13  O   UNL     1       7.302   4.705  13.156  0.00  0.00    +0.000 OA
ENDROOT
BRANCH   1  18
ATOM     14  C   UNL     1       1.767   5.807  20.357  0.00  0.00    +0.000 A 
ATOM     15  C   UNL     1       1.582   4.498  20.841  0.00  0.00    +0.000 A 
ATOM     16  C   UNL     1       2.561   3.558  20.662  0.00  0.00    +0.000 A 
ATOM     17  C   UNL     1       3.678   3.900  19.906  0.00  0.00    +0.000 A 
ATOM     18  C   UNL     1       3.870   5.171  19.247  0.00  0.00    +0.000 A 
ATOM     19  C   UNL     1       2.899   6.135  19.524  0.00  0.00    +0.000 A 
BRANCH  14  21
ATOM     20  C   UNL     1       1.402   7.954  21.385  0.00  0.00    +0.000 C 
ATOM     21  O   UNL     1       0.874   6.800  20.713  0.00  0.00    +0.000 OA
ENDBRANCH  14  21
BRANCH  19  22
ATOM     22  O   UNL     1       3.140   7.410  19.071  0.00  0.00    +0.000 OA
ATOM     23  C   UNL     1       2.515   7.689  17.823  0.00  0.00    +0.000 C 
ENDBRANCH  19  22
ENDBRANCH   1  18
TORSDOF 3
ENDMDL
