MODEL 1
REMARK VINA RESULT:      -8.9      0.000      0.000
REMARK  Name = 
REMARK  3 active torsions:
REMARK  status: ('A' for Active; 'I' for Inactive)
REMARK    1  A    between atoms: C_2  and  C_14
REMARK    2  A    between atoms: N_3  and  C_4
REMARK    3  A    between atoms: C_6  and  N_7
REMARK                            x       y       z     vdW  Elec       q    Type
REMARK                         _______ _______ _______ _____ _____    ______ ____
ROOT
ATOM      1  O   UNL     1       2.557   8.443  17.086  0.00  0.00    +0.000 OA
ATOM      2  C   UNL     1       2.399   8.092  18.251  0.00  0.00    +0.000 C 
ATOM      3  N   UNL     1       2.851   6.907  18.813  0.00  0.00    +0.000 N 
ATOM      4  H   UNL     1       2.473   6.620  19.713  0.00  0.00    +0.000 HD
ENDROOT
BRANCH   2   5
ATOM      5  C   UNL     1       1.572   8.967  19.105  0.00  0.00    +0.000 A 
ATOM      6  C   UNL     1       1.094  10.153  18.535  0.00  0.00    +0.000 A 
ATOM      7  C   UNL     1       0.286  11.008  19.278  0.00  0.00    +0.000 A 
ATOM      8  C   UNL     1      -0.045  10.695  20.601  0.00  0.00    +0.000 A 
ATOM      9  C   UNL     1      -0.890  11.527  21.349  0.00  0.00    +0.000 A 
ATOM     10  C   UNL     1      -1.212  11.209  22.668  0.00  0.00    +0.000 A 
ATOM     11  C   UNL     1      -0.678  10.069  23.262  0.00  0.00    +0.000 A 
ATOM     12  C   UNL     1       0.167   9.232  22.532  0.00  0.00    +0.000 A 
ATOM     13  C   UNL     1       0.479   9.520  21.196  0.00  0.00    +0.000 A 
ATOM     14  C   UNL     1       1.294   8.662  20.439  0.00  0.00    +0.000 A 
ENDBRANCH   2   5
BRANCH   3  15
ATOM     15  C   UNL     1       3.617   5.943  18.112  0.00  0.00    +0.000 A 
ATOM     16  C   UNL     1       4.974   6.133  17.838  0.00  0.00    +0.000 A 
ATOM     17  C   UNL     1       5.697   5.175  17.124  0.00  0.00    +0.000 A 
ATOM     18  C   UNL     1       5.077   3.996  16.685  0.00  0.00    +0.000 A 
ATOM     19  C   UNL     1       3.723   3.794  16.961  0.00  0.00    +0.000 A 
ATOM     20  C   UNL     1       3.003   4.760  17.670  0.00  0.00    +0.000 A 
ATOM     21  F   UNL     1       1.696   4.560  17.885  0.00  0.00    +0.000 F 
BRANCH  17  22
ATOM     22  N   UNL     1       7.115   5.415  16.840  0.00  0.00    +0.000 N 
ATOM     23  O   UNL     1       7.884   4.449  16.840  0.00  0.00    +0.000 OA
ATOM     24  O   UNL     1       7.459   6.587  16.617  0.00  0.00    +0.000 OA
ENDBRANCH  17  22
ENDBRANCH   3  15
TORSDOF 3
ENDMDL
MODEL 2
REMARK VINA RESULT:      -8.7      1.032      1.080
REMARK  Name = 
REMARK  3 active torsions:
REMARK  status: ('A' for Active; 'I' for Inactive)
REMARK    1  A    between atoms: C_2  and  C_14
REMARK    2  A    between atoms: N_3  and  C_4
REMARK    3  A    between atoms: C_6  and  N_7
REMARK                            x       y       z     vdW  Elec       q    Type
REMARK                         _______ _______ _______ _____ _____    ______ ____
ROOT
ATOM      1  O   UNL     1       2.445   6.112  20.443  0.00  0.00    +0.000 OA
ATOM      2  C   UNL     1       2.286   6.993  19.605  0.00  0.00    +0.000 C 
ATOM      3  N   UNL     1       2.842   7.019  18.334  0.00  0.00    +0.000 N 
ATOM      4  H   UNL     1       2.829   7.893  17.814  0.00  0.00    +0.000 HD
ENDROOT
BRANCH   2   5
ATOM      5  C   UNL     1       1.512   8.180  20.022  0.00  0.00    +0.000 A 
ATOM      6  C   UNL     1       1.365   9.209  19.086  0.00  0.00    +0.000 A 
ATOM      7  C   UNL     1       0.625  10.344  19.406  0.00  0.00    +0.000 A 
ATOM      8  C   UNL     1       0.032  10.466  20.668  0.00  0.00    +0.000 A 
ATOM      9  C   UNL     1      -0.749  11.584  20.992  0.00  0.00    +0.000 A 
ATOM     10  C   UNL     1      -1.334  11.701  22.253  0.00  0.00    +0.000 A 
ATOM     11  C   UNL     1      -1.127  10.712  23.211  0.00  0.00    +0.000 A 
ATOM     12  C   UNL     1      -0.349   9.595  22.907  0.00  0.00    +0.000 A 
ATOM     13  C   UNL     1       0.222   9.446  21.635  0.00  0.00    +0.000 A 
ATOM     14  C   UNL     1       0.971   8.305  21.303  0.00  0.00    +0.000 A 
ENDBRANCH   2   5
BRANCH   3  15
ATOM     15  C   UNL     1       3.645   5.979  17.804  0.00  0.00    +0.000 A 
ATOM     16  C   UNL     1       5.014   6.142  17.578  0.00  0.00    +0.000 A 
ATOM     17  C   UNL     1       5.775   5.105  17.032  0.00  0.00    +0.000 A 
ATOM     18  C   UNL     1       5.180   3.875  16.719  0.00  0.00    +0.000 A 
ATOM     19  C   UNL     1       3.813   3.699  16.948  0.00  0.00    +0.000 A 
ATOM     20  C   UNL     1       3.056   4.743  17.488  0.00  0.00    +0.000 A 
ATOM     21  F   UNL     1       1.740   4.563  17.660  0.00  0.00    +0.000 F 
BRANCH  17  22
ATOM     22  N   UNL     1       7.205   5.318  16.794  0.00  0.00    +0.000 N 
ATOM     23  O   UNL     1       7.977   4.373  16.982  0.00  0.00    +0.000 OA
ATOM     24  O   UNL     1       7.556   6.448  16.414  0.00  0.00    +0.000 OA
ENDBRANCH  17  22
ENDBRANCH   3  15
TORSDOF 3
ENDMDL
MODEL 3
REMARK VINA RESULT:      -8.6      2.069      2.454
REMARK  Name = 
REMARK  3 active torsions:
REMARK  status: ('A' for Active; 'I' for Inactive)
REMARK    1  A    between atoms: C_2  and  C_14
REMARK    2  A    between atoms: N_3  and  C_4
REMARK    3  A    between atoms: C_6  and  N_7
REMARK                            x       y       z     vdW  Elec       q    Type
REMARK                         _______ _______ _______ _____ _____    ______ ____
ROOT
ATOM      1  O   UNL     1       2.776   5.517  18.202  0.00  0.00    +0.000 OA
ATOM      2  C   UNL     1       3.204   6.667  18.185  0.00  0.00    +0.000 C 
ATOM      3  N   UNL     1       4.480   7.056  17.802  0.00  0.00    +0.000 N 
ATOM      4  H   UNL     1       4.795   7.993  18.041  0.00  0.00    +0.000 HD
ENDROOT
BRANCH   2   5
ATOM      5  C   UNL     1       2.313   7.719  18.714  0.00  0.00    +0.000 A 
ATOM      6  C   UNL     1       1.861   8.688  17.811  0.00  0.00    +0.000 A 
ATOM      7  C   UNL     1       0.997   9.691  18.238  0.00  0.00    +0.000 A 
ATOM      8  C   UNL     1       0.583   9.744  19.574  0.00  0.00    +0.000 A 
ATOM      9  C   UNL     1      -0.318  10.726  20.012  0.00  0.00    +0.000 A 
ATOM     10  C   UNL     1      -0.722  10.774  21.345  0.00  0.00    +0.000 A 
ATOM     11  C   UNL     1      -0.216   9.856  22.261  0.00  0.00    +0.000 A 
ATOM     12  C   UNL     1       0.685   8.876  21.843  0.00  0.00    +0.000 A 
ATOM     13  C   UNL     1       1.080   8.793  20.501  0.00  0.00    +0.000 A 
ATOM     14  C   UNL     1       1.952   7.784  20.061  0.00  0.00    +0.000 A 
ENDBRANCH   2   5
BRANCH   3  15
ATOM     15  C   UNL     1       5.465   6.160  17.316  0.00  0.00    +0.000 A 
ATOM     16  C   UNL     1       5.627   5.905  15.952  0.00  0.00    +0.000 A 
ATOM     17  C   UNL     1       6.592   4.999  15.506  0.00  0.00    +0.000 A 
ATOM     18  C   UNL     1       7.428   4.343  16.421  0.00  0.00    +0.000 A 
ATOM     19  C   UNL     1       7.279   4.597  17.786  0.00  0.00    +0.000 A 
ATOM     20  C   UNL     1       6.307   5.499  18.227  0.00  0.00    +0.000 A 
ATOM     21  F   UNL     1       6.157   5.695  19.543  0.00  0.00    +0.000 F 
BRANCH  17  22
ATOM     22  N   UNL     1       6.722   4.744  14.069  0.00  0.00    +0.000 N 
ATOM     23  O   UNL     1       5.997   3.884  13.559  0.00  0.00    +0.000 OA
ATOM     24  O   UNL     1       7.562   5.415  13.447  0.00  0.00    +0.000 OA
ENDBRANCH  17  22
ENDBRANCH   3  15
TORSDOF 3
ENDMDL
MODEL 4
REMARK VINA RESULT:      -8.5      0.606      1.563
REMARK  Name = 
REMARK  3 active torsions:
REMARK  status: ('A' for Active; 'I' for Inactive)
REMARK    1  A    between atoms: C_2  and  C_14
REMARK    2  A    between atoms: N_3  and  C_4
REMARK    3  A    between atoms: C_6  and  N_7
REMARK                            x       y       z     vdW  Elec       q    Type
REMARK                         _______ _______ _______ _____ _____    ______ ____
ROOT
ATOM      1  O   UNL     1       2.306   8.234  17.585  0.00  0.00    +0.000 OA
ATOM      2  C   UNL     1       2.308   7.797  18.732  0.00  0.00    +0.000 C 
ATOM      3  N   UNL     1       2.906   6.619  19.154  0.00  0.00    +0.000 N 
ATOM      4  H   UNL     1       2.655   6.245  20.066  0.00  0.00    +0.000 HD
ENDROOT
BRANCH   2   5
ATOM      5  C   UNL     1       1.521   8.545  19.732  0.00  0.00    +0.000 A 
ATOM      6  C   UNL     1       1.534   8.065  21.046  0.00  0.00    +0.000 A 
ATOM      7  C   UNL     1       0.834   8.739  22.043  0.00  0.00    +0.000 A 
ATOM      8  C   UNL     1       0.106   9.894  21.736  0.00  0.00    +0.000 A 
ATOM      9  C   UNL     1      -0.572  10.606  22.735  0.00  0.00    +0.000 A 
ATOM     10  C   UNL     1      -1.298  11.753  22.421  0.00  0.00    +0.000 A 
ATOM     11  C   UNL     1      -1.374  12.192  21.102  0.00  0.00    +0.000 A 
ATOM     12  C   UNL     1      -0.709  11.492  20.094  0.00  0.00    +0.000 A 
ATOM     13  C   UNL     1       0.051  10.353  20.396  0.00  0.00    +0.000 A 
ATOM     14  C   UNL     1       0.760   9.667  19.396  0.00  0.00    +0.000 A 
ENDBRANCH   2   5
BRANCH   3  15
ATOM     15  C   UNL     1       3.657   5.767  18.306  0.00  0.00    +0.000 A 
ATOM     16  C   UNL     1       5.015   5.982  18.054  0.00  0.00    +0.000 A 
ATOM     17  C   UNL     1       5.722   5.138  17.194  0.00  0.00    +0.000 A 
ATOM     18  C   UNL     1       5.085   4.049  16.583  0.00  0.00    +0.000 A 
ATOM     19  C   UNL     1       3.730   3.821  16.835  0.00  0.00    +0.000 A 
ATOM     20  C   UNL     1       3.026   4.673  17.690  0.00  0.00    +0.000 A 
ATOM     21  F   UNL     1       1.718   4.457  17.883  0.00  0.00    +0.000 F 
BRANCH  17  22
ATOM     22  N   UNL     1       7.141   5.404  16.941  0.00  0.00    +0.000 N 
ATOM     23  O   UNL     1       7.934   4.460  17.005  0.00  0.00    +0.000 OA
ATOM     24  O   UNL     1       7.460   6.574  16.675  0.00  0.00    +0.000 OA
ENDBRANCH  17  22
ENDBRANCH   3  15
TORSDOF 3
ENDMDL
MODEL 5
REMARK VINA RESULT:      -8.0      1.487      2.237
REMARK  Name = 
REMARK  3 active torsions:
REMARK  status: ('A' for Active; 'I' for Inactive)
REMARK    1  A    between atoms: C_2  and  C_14
REMARK    2  A    between atoms: N_3  and  C_4
REMARK    3  A    between atoms: C_6  and  N_7
REMARK                            x       y       z     vdW  Elec       q    Type
REMARK                         _______ _______ _______ _____ _____    ______ ____
ROOT
ATOM      1  O   UNL     1       2.271   8.176  18.651  0.00  0.00    +0.000 OA
ATOM      2  C   UNL     1       1.926   7.798  19.767  0.00  0.00    +0.000 C 
ATOM      3  N   UNL     1       2.171   6.548  20.317  0.00  0.00    +0.000 N 
ATOM      4  H   UNL     1       1.651   6.270  21.145  0.00  0.00    +0.000 HD
ENDROOT
BRANCH   2   5
ATOM      5  C   UNL     1       1.092   8.726  20.557  0.00  0.00    +0.000 A 
ATOM      6  C   UNL     1       1.098   8.567  21.947  0.00  0.00    +0.000 A 
ATOM      7  C   UNL     1       0.354   9.425  22.752  0.00  0.00    +0.000 A 
ATOM      8  C   UNL     1      -0.412  10.444  22.176  0.00  0.00    +0.000 A 
ATOM      9  C   UNL     1      -1.135  11.342  22.974  0.00  0.00    +0.000 A 
ATOM     10  C   UNL     1      -1.900  12.352  22.393  0.00  0.00    +0.000 A 
ATOM     11  C   UNL     1      -1.967  12.467  21.007  0.00  0.00    +0.000 A 
ATOM     12  C   UNL     1      -1.256  11.580  20.197  0.00  0.00    +0.000 A 
ATOM     13  C   UNL     1      -0.459  10.575  20.765  0.00  0.00    +0.000 A 
ATOM     14  C   UNL     1       0.294   9.705  19.961  0.00  0.00    +0.000 A 
ENDBRANCH   2   5
BRANCH   3  15
ATOM     15  C   UNL     1       2.916   5.533  19.666  0.00  0.00    +0.000 A 
ATOM     16  C   UNL     1       4.293   5.643  19.458  0.00  0.00    +0.000 A 
ATOM     17  C   UNL     1       4.996   4.635  18.793  0.00  0.00    +0.000 A 
ATOM     18  C   UNL     1       4.333   3.487  18.338  0.00  0.00    +0.000 A 
ATOM     19  C   UNL     1       2.957   3.365  18.547  0.00  0.00    +0.000 A 
ATOM     20  C   UNL     1       2.258   4.379  19.207  0.00  0.00    +0.000 A 
ATOM     21  F   UNL     1       0.933   4.256  19.359  0.00  0.00    +0.000 F 
BRANCH  17  22
ATOM     22  N   UNL     1       6.437   4.792  18.579  0.00  0.00    +0.000 N 
ATOM     23  O   UNL     1       6.894   4.540  17.459  0.00  0.00    +0.000 OA
ATOM     24  O   UNL     1       7.117   5.171  19.546  0.00  0.00    +0.000 OA
ENDBRANCH  17  22
ENDBRANCH   3  15
TORSDOF 3
ENDMDL
MODEL 6
REMARK VINA RESULT:      -8.0      1.132      2.040
REMARK  Name = 
REMARK  3 active torsions:
REMARK  status: ('A' for Active; 'I' for Inactive)
REMARK    1  A    between atoms: C_2  and  C_14
REMARK    2  A    between atoms: N_3  and  C_4
REMARK    3  A    between atoms: C_6  and  N_7
REMARK                            x       y       z     vdW  Elec       q    Type
REMARK                         _______ _______ _______ _____ _____    ______ ____
ROOT
ATOM      1  O   UNL     1       2.382   6.195  20.497  0.00  0.00    +0.000 OA
ATOM      2  C   UNL     1       2.267   7.099  19.676  0.00  0.00    +0.000 C 
ATOM      3  N   UNL     1       2.849   7.136  18.416  0.00  0.00    +0.000 N 
ATOM      4  H   UNL     1       2.873   8.022  17.917  0.00  0.00    +0.000 HD
ENDROOT
BRANCH   2   5
ATOM      5  C   UNL     1       1.522   8.300  20.105  0.00  0.00    +0.000 A 
ATOM      6  C   UNL     1       1.156   8.378  21.453  0.00  0.00    +0.000 A 
ATOM      7  C   UNL     1       0.475   9.495  21.928  0.00  0.00    +0.000 A 
ATOM      8  C   UNL     1       0.144  10.541  21.060  0.00  0.00    +0.000 A 
ATOM      9  C   UNL     1      -0.506  11.690  21.531  0.00  0.00    +0.000 A 
ATOM     10  C   UNL     1      -0.837  12.727  20.659  0.00  0.00    +0.000 A 
ATOM     11  C   UNL     1      -0.540  12.619  19.303  0.00  0.00    +0.000 A 
ATOM     12  C   UNL     1       0.104  11.481  18.817  0.00  0.00    +0.000 A 
ATOM     13  C   UNL     1       0.470  10.441  19.684  0.00  0.00    +0.000 A 
ATOM     14  C   UNL     1       1.156   9.310  19.213  0.00  0.00    +0.000 A 
ENDBRANCH   2   5
BRANCH   3  15
ATOM     15  C   UNL     1       3.631   6.083  17.878  0.00  0.00    +0.000 A 
ATOM     16  C   UNL     1       4.998   6.228  17.629  0.00  0.00    +0.000 A 
ATOM     17  C   UNL     1       5.736   5.180  17.077  0.00  0.00    +0.000 A 
ATOM     18  C   UNL     1       5.121   3.956  16.779  0.00  0.00    +0.000 A 
ATOM     19  C   UNL     1       3.756   3.798  17.032  0.00  0.00    +0.000 A 
ATOM     20  C   UNL     1       3.021   4.853  17.578  0.00  0.00    +0.000 A 
ATOM     21  F   UNL     1       1.706   4.691  17.773  0.00  0.00    +0.000 F 
BRANCH  17  22
ATOM     22  N   UNL     1       7.165   5.373  16.813  0.00  0.00    +0.000 N 
ATOM     23  O   UNL     1       7.921   4.405  16.941  0.00  0.00    +0.000 OA
ATOM     24  O   UNL     1       7.531   6.511  16.476  0.00  0.00    +0.000 OA
ENDBRANCH  17  22
ENDBRANCH   3  15
TORSDOF 3
ENDMDL
MODEL 7
REMARK VINA RESULT:      -7.9      2.182      3.029
REMARK  Name = 
REMARK  3 active torsions:
REMARK  status: ('A' for Active; 'I' for Inactive)
REMARK    1  A    between atoms: C_2  and  C_14
REMARK    2  A    between atoms: N_3  and  C_4
REMARK    3  A    between atoms: C_6  and  N_7
REMARK                            x       y       z     vdW  Elec       q    Type
REMARK                         _______ _______ _______ _____ _____    ______ ____
ROOT
ATOM      1  O   UNL     1       2.916   5.282  18.607  0.00  0.00    +0.000 OA
ATOM      2  C   UNL     1       3.257   6.459  18.543  0.00  0.00    +0.000 C 
ATOM      3  N   UNL     1       4.463   6.933  18.047  0.00  0.00    +0.000 N 
ATOM      4  H   UNL     1       4.728   7.894  18.249  0.00  0.00    +0.000 HD
ENDROOT
BRANCH   2   5
ATOM      5  C   UNL     1       2.340   7.453  19.137  0.00  0.00    +0.000 A 
ATOM      6  C   UNL     1       1.893   7.212  20.441  0.00  0.00    +0.000 A 
ATOM      7  C   UNL     1       1.048   8.122  21.069  0.00  0.00    +0.000 A 
ATOM      8  C   UNL     1       0.632   9.278  20.398  0.00  0.00    +0.000 A 
ATOM      9  C   UNL     1      -0.186  10.224  21.030  0.00  0.00    +0.000 A 
ATOM     10  C   UNL     1      -0.599  11.371  20.354  0.00  0.00    +0.000 A 
ATOM     11  C   UNL     1      -0.217  11.577  19.031  0.00  0.00    +0.000 A 
ATOM     12  C   UNL     1       0.595  10.643  18.385  0.00  0.00    +0.000 A 
ATOM     13  C   UNL     1       1.044   9.498  19.059  0.00  0.00    +0.000 A 
ATOM     14  C   UNL     1       1.896   8.574  18.433  0.00  0.00    +0.000 A 
ENDBRANCH   2   5
BRANCH   3  15
ATOM     15  C   UNL     1       5.465   6.103  17.486  0.00  0.00    +0.000 A 
ATOM     16  C   UNL     1       5.542   5.859  16.112  0.00  0.00    +0.000 A 
ATOM     17  C   UNL     1       6.528   5.017  15.593  0.00  0.00    +0.000 A 
ATOM     18  C   UNL     1       7.470   4.417  16.440  0.00  0.00    +0.000 A 
ATOM     19  C   UNL     1       7.406   4.661  17.814  0.00  0.00    +0.000 A 
ATOM     20  C   UNL     1       6.413   5.499  18.328  0.00  0.00    +0.000 A 
ATOM     21  F   UNL     1       6.349   5.684  19.654  0.00  0.00    +0.000 F 
BRANCH  17  22
ATOM     22  N   UNL     1       6.567   4.770  14.148  0.00  0.00    +0.000 N 
ATOM     23  O   UNL     1       5.689   4.058  13.652  0.00  0.00    +0.000 OA
ATOM     24  O   UNL     1       7.491   5.298  13.507  0.00  0.00    +0.000 OA
ENDBRANCH  17  22
ENDBRANCH   3  15
TORSDOF 3
ENDMDL
MODEL 8
REMARK VINA RESULT:      -7.9      1.724      1.866
REMARK  Name = 
REMARK  3 active torsions:
REMARK  status: ('A' for Active; 'I' for Inactive)
REMARK    1  A    between atoms: C_2  and  C_14
REMARK    2  A    between atoms: N_3  and  C_4
REMARK    3  A    between atoms: C_6  and  N_7
REMARK                            x       y       z     vdW  Elec       q    Type
REMARK                         _______ _______ _______ _____ _____    ______ ____
ROOT
ATOM      1  O   UNL     1       2.681   7.743  18.354  0.00  0.00    +0.000 OA
ATOM      2  C   UNL     1       2.177   7.637  19.467  0.00  0.00    +0.000 C 
ATOM      3  N   UNL     1       2.282   6.539  20.308  0.00  0.00    +0.000 N 
ATOM      4  H   UNL     1       1.646   6.468  21.099  0.00  0.00    +0.000 HD
ENDROOT
BRANCH   2   5
ATOM      5  C   UNL     1       1.299   8.738  19.910  0.00  0.00    +0.000 A 
ATOM      6  C   UNL     1       0.963   9.710  18.960  0.00  0.00    +0.000 A 
ATOM      7  C   UNL     1       0.117  10.760  19.305  0.00  0.00    +0.000 A 
ATOM      8  C   UNL     1      -0.393  10.857  20.605  0.00  0.00    +0.000 A 
ATOM      9  C   UNL     1      -1.277  11.887  20.957  0.00  0.00    +0.000 A 
ATOM     10  C   UNL     1      -1.778  11.979  22.255  0.00  0.00    +0.000 A 
ATOM     11  C   UNL     1      -1.386  11.057  23.221  0.00  0.00    +0.000 A 
ATOM     12  C   UNL     1      -0.503  10.028  22.888  0.00  0.00    +0.000 A 
ATOM     13  C   UNL     1      -0.013   9.902  21.581  0.00  0.00    +0.000 A 
ATOM     14  C   UNL     1       0.841   8.846  21.224  0.00  0.00    +0.000 A 
ENDBRANCH   2   5
BRANCH   3  15
ATOM     15  C   UNL     1       3.049   5.385  20.007  0.00  0.00    +0.000 A 
ATOM     16  C   UNL     1       4.245   5.458  19.289  0.00  0.00    +0.000 A 
ATOM     17  C   UNL     1       4.967   4.300  18.987  0.00  0.00    +0.000 A 
ATOM     18  C   UNL     1       4.511   3.046  19.417  0.00  0.00    +0.000 A 
ATOM     19  C   UNL     1       3.320   2.964  20.143  0.00  0.00    +0.000 A 
ATOM     20  C   UNL     1       2.599   4.125  20.435  0.00  0.00    +0.000 A 
ATOM     21  F   UNL     1       1.440   4.014  21.097  0.00  0.00    +0.000 F 
BRANCH  17  22
ATOM     22  N   UNL     1       6.209   4.413  18.217  0.00  0.00    +0.000 N 
ATOM     23  O   UNL     1       6.144   4.336  16.986  0.00  0.00    +0.000 OA
ATOM     24  O   UNL     1       7.260   4.581  18.857  0.00  0.00    +0.000 OA
ENDBRANCH  17  22
ENDBRANCH   3  15
TORSDOF 3
ENDMDL
MODEL 9
REMARK VINA RESULT:      -7.8      3.186      8.180
REMARK  Name = 
REMARK  3 active torsions:
REMARK  status: ('A' for Active; 'I' for Inactive)
REMARK    1  A    between atoms: C_2  and  C_14
REMARK    2  A    between atoms: N_3  and  C_4
REMARK    3  A    between atoms: C_6  and  N_7
REMARK                            x       y       z     vdW  Elec       q    Type
REMARK                         _______ _______ _______ _____ _____    ______ ____
ROOT
ATOM      1  O   UNL     1       1.685   6.633  20.585  0.00  0.00    +0.000 OA
ATOM      2  C   UNL     1       2.245   7.180  19.641  0.00  0.00    +0.000 C 
ATOM      3  N   UNL     1       1.946   8.436  19.133  0.00  0.00    +0.000 N 
ATOM      4  H   UNL     1       2.313   8.692  18.219  0.00  0.00    +0.000 HD
ENDROOT
BRANCH   2   5
ATOM      5  C   UNL     1       3.263   6.391  18.919  0.00  0.00    +0.000 A 
ATOM      6  C   UNL     1       3.795   5.277  19.579  0.00  0.00    +0.000 A 
ATOM      7  C   UNL     1       4.739   4.475  18.945  0.00  0.00    +0.000 A 
ATOM      8  C   UNL     1       5.169   4.782  17.649  0.00  0.00    +0.000 A 
ATOM      9  C   UNL     1       6.090   3.962  16.982  0.00  0.00    +0.000 A 
ATOM     10  C   UNL     1       6.516   4.276  15.692  0.00  0.00    +0.000 A 
ATOM     11  C   UNL     1       6.045   5.424  15.062  0.00  0.00    +0.000 A 
ATOM     12  C   UNL     1       5.131   6.254  15.714  0.00  0.00    +0.000 A 
ATOM     13  C   UNL     1       4.669   5.938  16.999  0.00  0.00    +0.000 A 
ATOM     14  C   UNL     1       3.717   6.742  17.647  0.00  0.00    +0.000 A 
ENDBRANCH   2   5
BRANCH   3  15
ATOM     15  C   UNL     1       0.964   9.296  19.684  0.00  0.00    +0.000 A 
ATOM     16  C   UNL     1       0.807   9.453  21.064  0.00  0.00    +0.000 A 
ATOM     17  C   UNL     1      -0.186  10.291  21.577  0.00  0.00    +0.000 A 
ATOM     18  C   UNL     1      -1.030  11.004  20.716  0.00  0.00    +0.000 A 
ATOM     19  C   UNL     1      -0.877  10.860  19.335  0.00  0.00    +0.000 A 
ATOM     20  C   UNL     1       0.114  10.015  18.827  0.00  0.00    +0.000 A 
ATOM     21  F   UNL     1       0.214   9.863  17.500  0.00  0.00    +0.000 F 
BRANCH  17  22
ATOM     22  N   UNL     1      -0.332  10.417  23.030  0.00  0.00    +0.000 N 
ATOM     23  O   UNL     1       0.376   9.709  23.754  0.00  0.00    +0.000 OA
ATOM     24  O   UNL     1      -1.167  11.236  23.448  0.00  0.00    +0.000 OA
ENDBRANCH  17  22
ENDBRANCH   3  15
TORSDOF 3
ENDMDL
