MODEL 1
REMARK VINA RESULT:      -7.6      0.000      0.000
REMARK  Name = 
REMARK  7 active torsions:
REMARK  status: ('A' for Active; 'I' for Inactive)
REMARK    1  A    between atoms: C_1  and  C_2
REMARK    2  A    between atoms: C_4  and  O_5
REMARK    3  A    between atoms: C_6  and  N_7
REMARK    4  A    between atoms: C_8  and  C_10
REMARK    5  A    between atoms: C_13  and  C_14
REMARK    6  A    between atoms: C_15  and  N_16
REMARK    7  A    between atoms: C_21  and  C_22
REMARK                            x       y       z     vdW  Elec       q    Type
REMARK                         _______ _______ _______ _____ _____    ______ ____
ROOT
ATOM      1  N   UNL     1       4.001   3.694  16.773  0.00  0.00    +0.000 N 
ATOM      2  C   UNL     1       5.308   4.120  16.646  0.00  0.00    +0.000 C 
ATOM      3  O   UNL     1       6.057   4.418  17.572  0.00  0.00    +0.000 OA
ATOM      4  H   UNL     1       3.363   3.938  16.022  0.00  0.00    +0.000 HD
ENDROOT
BRANCH   1   9
ATOM      5  C   UNL     1       1.384   2.823  21.802  0.00  0.00    +0.000 C 
ATOM      6  C   UNL     1       2.096   3.096  20.503  0.00  0.00    +0.000 A 
ATOM      7  C   UNL     1       2.721   2.037  19.824  0.00  0.00    +0.000 A 
ATOM      8  C   UNL     1       3.377   2.268  18.616  0.00  0.00    +0.000 A 
ATOM      9  C   UNL     1       3.374   3.533  18.029  0.00  0.00    +0.000 A 
ATOM     10  C   UNL     1       2.768   4.597  18.706  0.00  0.00    +0.000 A 
ATOM     11  C   UNL     1       2.161   4.397  19.962  0.00  0.00    +0.000 A 
ATOM     12  C   UNL     1       1.609   5.581  20.713  0.00  0.00    +0.000 C 
BRANCH   8  13
ATOM     13  O   UNL     1       3.987   1.241  17.942  0.00  0.00    +0.000 OA
ATOM     14  H   UNL     1       4.672   0.868  18.524  0.00  0.00    +0.000 HD
ENDBRANCH   8  13
ENDBRANCH   1   9
BRANCH   2  15
ATOM     15  C   UNL     1       5.814   4.298  15.258  0.00  0.00    +0.000 A 
ATOM     16  C   UNL     1       6.983   5.034  15.051  0.00  0.00    +0.000 A 
ATOM     17  C   UNL     1       7.541   5.128  13.772  0.00  0.00    +0.000 A 
ATOM     18  C   UNL     1       6.962   4.468  12.670  0.00  0.00    +0.000 A 
ATOM     19  C   UNL     1       7.656   4.601  11.341  0.00  0.00    +0.000 C 
ATOM     20  C   UNL     1       5.785   3.713  12.897  0.00  0.00    +0.000 A 
ATOM     21  C   UNL     1       5.208   3.644  14.183  0.00  0.00    +0.000 A 
BRANCH  20  22
ATOM     22  N   UNL     1       5.131   2.927  11.824  0.00  0.00    +0.000 N 
ATOM     23  O   UNL     1       5.603   1.829  11.507  0.00  0.00    +0.000 OA
ATOM     24  O   UNL     1       4.122   3.420  11.297  0.00  0.00    +0.000 OA
ENDBRANCH  20  22
ENDBRANCH   2  15
TORSDOF 4
ENDMDL
MODEL 2
REMARK VINA RESULT:      -7.2      3.932      6.326
REMARK  Name = 
REMARK  7 active torsions:
REMARK  status: ('A' for Active; 'I' for Inactive)
REMARK    1  A    between atoms: C_1  and  C_2
REMARK    2  A    between atoms: C_4  and  O_5
REMARK    3  A    between atoms: C_6  and  N_7
REMARK    4  A    between atoms: C_8  and  C_10
REMARK    5  A    between atoms: C_13  and  C_14
REMARK    6  A    between atoms: C_15  and  N_16
REMARK    7  A    between atoms: C_21  and  C_22
REMARK                            x       y       z     vdW  Elec       q    Type
REMARK                         _______ _______ _______ _____ _____    ______ ____
ROOT
ATOM      1  N   UNL     1       2.311   7.892  18.946  0.00  0.00    +0.000 N 
ATOM      2  C   UNL     1       2.467   6.562  19.280  0.00  0.00    +0.000 C 
ATOM      3  O   UNL     1       1.921   5.991  20.220  0.00  0.00    +0.000 OA
ATOM      4  H   UNL     1       3.106   8.356  18.519  0.00  0.00    +0.000 HD
ENDROOT
BRANCH   1   9
ATOM      5  C   UNL     1      -1.086  11.593  21.716  0.00  0.00    +0.000 C 
ATOM      6  C   UNL     1      -0.217  10.580  21.017  0.00  0.00    +0.000 A 
ATOM      7  C   UNL     1      -0.057  10.654  19.624  0.00  0.00    +0.000 A 
ATOM      8  C   UNL     1       0.750   9.731  18.959  0.00  0.00    +0.000 A 
ATOM      9  C   UNL     1       1.459   8.761  19.666  0.00  0.00    +0.000 A 
ATOM     10  C   UNL     1       1.293   8.669  21.052  0.00  0.00    +0.000 A 
ATOM     11  C   UNL     1       0.427   9.549  21.732  0.00  0.00    +0.000 A 
ATOM     12  C   UNL     1       0.190   9.358  23.208  0.00  0.00    +0.000 C 
BRANCH   8  13
ATOM     13  O   UNL     1       0.916   9.798  17.600  0.00  0.00    +0.000 OA
ATOM     14  H   UNL     1       1.510   9.074  17.336  0.00  0.00    +0.000 HD
ENDBRANCH   8  13
ENDBRANCH   1   9
BRANCH   2  15
ATOM     15  C   UNL     1       3.442   5.785  18.466  0.00  0.00    +0.000 A 
ATOM     16  C   UNL     1       2.975   4.752  17.653  0.00  0.00    +0.000 A 
ATOM     17  C   UNL     1       3.850   4.076  16.797  0.00  0.00    +0.000 A 
ATOM     18  C   UNL     1       5.211   4.432  16.711  0.00  0.00    +0.000 A 
ATOM     19  C   UNL     1       6.066   3.669  15.735  0.00  0.00    +0.000 C 
ATOM     20  C   UNL     1       5.668   5.493  17.531  0.00  0.00    +0.000 A 
ATOM     21  C   UNL     1       4.789   6.153  18.415  0.00  0.00    +0.000 A 
BRANCH  20  22
ATOM     22  N   UNL     1       7.062   5.992  17.474  0.00  0.00    +0.000 N 
ATOM     23  O   UNL     1       7.417   6.684  16.513  0.00  0.00    +0.000 OA
ATOM     24  O   UNL     1       7.811   5.687  18.415  0.00  0.00    +0.000 OA
ENDBRANCH  20  22
ENDBRANCH   2  15
TORSDOF 4
ENDMDL
MODEL 3
REMARK VINA RESULT:      -7.1      4.119      6.387
REMARK  Name = 
REMARK  7 active torsions:
REMARK  status: ('A' for Active; 'I' for Inactive)
REMARK    1  A    between atoms: C_1  and  C_2
REMARK    2  A    between atoms: C_4  and  O_5
REMARK    3  A    between atoms: C_6  and  N_7
REMARK    4  A    between atoms: C_8  and  C_10
REMARK    5  A    between atoms: C_13  and  C_14
REMARK    6  A    between atoms: C_15  and  N_16
REMARK    7  A    between atoms: C_21  and  C_22
REMARK                            x       y       z     vdW  Elec       q    Type
REMARK                         _______ _______ _______ _____ _____    ______ ____
ROOT
ATOM      1  N   UNL     1       1.990   8.041  19.181  0.00  0.00    +0.000 N 
ATOM      2  C   UNL     1       2.195   6.730  19.561  0.00  0.00    +0.000 C 
ATOM      3  O   UNL     1       1.736   6.196  20.568  0.00  0.00    +0.000 OA
ATOM      4  H   UNL     1       2.740   8.495  18.671  0.00  0.00    +0.000 HD
ENDROOT
BRANCH   1   9
ATOM      5  C   UNL     1      -1.212  11.829  22.063  0.00  0.00    +0.000 C 
ATOM      6  C   UNL     1      -0.396  10.794  21.335  0.00  0.00    +0.000 A 
ATOM      7  C   UNL     1      -0.249  10.889  19.941  0.00  0.00    +0.000 A 
ATOM      8  C   UNL     1       0.510   9.945  19.249  0.00  0.00    +0.000 A 
ATOM      9  C   UNL     1       1.185   8.931  19.928  0.00  0.00    +0.000 A 
ATOM     10  C   UNL     1       1.031   8.820  21.315  0.00  0.00    +0.000 A 
ATOM     11  C   UNL     1       0.212   9.722  22.022  0.00  0.00    +0.000 A 
ATOM     12  C   UNL     1      -0.016   9.514  23.496  0.00  0.00    +0.000 C 
BRANCH   8  13
ATOM     13  O   UNL     1       0.663  10.031  17.889  0.00  0.00    +0.000 OA
ATOM     14  H   UNL     1       1.584   9.802  17.678  0.00  0.00    +0.000 HD
ENDBRANCH   8  13
ENDBRANCH   1   9
BRANCH   2  15
ATOM     15  C   UNL     1       3.113   5.929  18.707  0.00  0.00    +0.000 A 
ATOM     16  C   UNL     1       2.947   4.545  18.644  0.00  0.00    +0.000 A 
ATOM     17  C   UNL     1       3.723   3.779  17.769  0.00  0.00    +0.000 A 
ATOM     18  C   UNL     1       4.669   4.378  16.914  0.00  0.00    +0.000 A 
ATOM     19  C   UNL     1       5.431   3.474  15.982  0.00  0.00    +0.000 C 
ATOM     20  C   UNL     1       4.817   5.786  16.977  0.00  0.00    +0.000 A 
ATOM     21  C   UNL     1       4.053   6.552  17.882  0.00  0.00    +0.000 A 
BRANCH  20  22
ATOM     22  N   UNL     1       5.733   6.525  16.078  0.00  0.00    +0.000 N 
ATOM     23  O   UNL     1       6.908   6.699  16.423  0.00  0.00    +0.000 OA
ATOM     24  O   UNL     1       5.265   6.933  15.003  0.00  0.00    +0.000 OA
ENDBRANCH  20  22
ENDBRANCH   2  15
TORSDOF 4
ENDMDL
MODEL 4
REMARK VINA RESULT:      -7.0      4.549      6.794
REMARK  Name = 
REMARK  7 active torsions:
REMARK  status: ('A' for Active; 'I' for Inactive)
REMARK    1  A    between atoms: C_1  and  C_2
REMARK    2  A    between atoms: C_4  and  O_5
REMARK    3  A    between atoms: C_6  and  N_7
REMARK    4  A    between atoms: C_8  and  C_10
REMARK    5  A    between atoms: C_13  and  C_14
REMARK    6  A    between atoms: C_15  and  N_16
REMARK    7  A    between atoms: C_21  and  C_22
REMARK                            x       y       z     vdW  Elec       q    Type
REMARK                         _______ _______ _______ _____ _____    ______ ____
ROOT
ATOM      1  N   UNL     1       1.577   8.210  19.588  0.00  0.00    +0.000 N 
ATOM      2  C   UNL     1       2.226   8.409  18.387  0.00  0.00    +0.000 C 
ATOM      3  O   UNL     1       2.199   9.440  17.721  0.00  0.00    +0.000 OA
ATOM      4  H   UNL     1       1.264   7.266  19.792  0.00  0.00    +0.000 HD
ENDROOT
BRANCH   1   9
ATOM      5  C   UNL     1      -1.585  12.157  22.298  0.00  0.00    +0.000 C 
ATOM      6  C   UNL     1      -0.743  11.158  21.547  0.00  0.00    +0.000 A 
ATOM      7  C   UNL     1       0.182  10.370  22.251  0.00  0.00    +0.000 A 
ATOM      8  C   UNL     1       0.964   9.433  21.576  0.00  0.00    +0.000 A 
ATOM      9  C   UNL     1       0.801   9.216  20.208  0.00  0.00    +0.000 A 
ATOM     10  C   UNL     1      -0.107  10.008  19.496  0.00  0.00    +0.000 A 
ATOM     11  C   UNL     1      -0.856  11.008  20.149  0.00  0.00    +0.000 A 
ATOM     12  C   UNL     1      -1.747  11.912  19.338  0.00  0.00    +0.000 C 
BRANCH   8  13
ATOM     13  O   UNL     1       1.868   8.656  22.254  0.00  0.00    +0.000 OA
ATOM     14  H   UNL     1       1.393   8.207  22.974  0.00  0.00    +0.000 HD
ENDBRANCH   8  13
ENDBRANCH   1   9
BRANCH   2  15
ATOM     15  C   UNL     1       2.957   7.239  17.828  0.00  0.00    +0.000 A 
ATOM     16  C   UNL     1       4.155   7.452  17.144  0.00  0.00    +0.000 A 
ATOM     17  C   UNL     1       4.918   6.367  16.702  0.00  0.00    +0.000 A 
ATOM     18  C   UNL     1       4.519   5.039  16.955  0.00  0.00    +0.000 A 
ATOM     19  C   UNL     1       5.425   3.939  16.470  0.00  0.00    +0.000 C 
ATOM     20  C   UNL     1       3.309   4.838  17.664  0.00  0.00    +0.000 A 
ATOM     21  C   UNL     1       2.527   5.935  18.083  0.00  0.00    +0.000 A 
BRANCH  20  22
ATOM     22  N   UNL     1       2.828   3.488  18.041  0.00  0.00    +0.000 N 
ATOM     23  O   UNL     1       2.058   2.888  17.282  0.00  0.00    +0.000 OA
ATOM     24  O   UNL     1       3.239   3.021  19.115  0.00  0.00    +0.000 OA
ENDBRANCH  20  22
ENDBRANCH   2  15
TORSDOF 4
ENDMDL
MODEL 5
REMARK VINA RESULT:      -6.9      5.109      9.005
REMARK  Name = 
REMARK  7 active torsions:
REMARK  status: ('A' for Active; 'I' for Inactive)
REMARK    1  A    between atoms: C_1  and  C_2
REMARK    2  A    between atoms: C_4  and  O_5
REMARK    3  A    between atoms: C_6  and  N_7
REMARK    4  A    between atoms: C_8  and  C_10
REMARK    5  A    between atoms: C_13  and  C_14
REMARK    6  A    between atoms: C_15  and  N_16
REMARK    7  A    between atoms: C_21  and  C_22
REMARK                            x       y       z     vdW  Elec       q    Type
REMARK                         _______ _______ _______ _____ _____    ______ ____
ROOT
ATOM      1  N   UNL     1       2.607   7.307  18.812  0.00  0.00    +0.000 N 
ATOM      2  C   UNL     1       2.102   8.462  18.248  0.00  0.00    +0.000 C 
ATOM      3  O   UNL     1       2.309   8.848  17.100  0.00  0.00    +0.000 OA
ATOM      4  H   UNL     1       2.791   7.325  19.810  0.00  0.00    +0.000 HD
ENDROOT
BRANCH   1   9
ATOM      5  C   UNL     1       5.834   3.476  16.015  0.00  0.00    +0.000 C 
ATOM      6  C   UNL     1       5.003   4.521  16.714  0.00  0.00    +0.000 A 
ATOM      7  C   UNL     1       3.677   4.224  17.067  0.00  0.00    +0.000 A 
ATOM      8  C   UNL     1       2.894   5.174  17.722  0.00  0.00    +0.000 A 
ATOM      9  C   UNL     1       3.428   6.408  18.094  0.00  0.00    +0.000 A 
ATOM     10  C   UNL     1       4.744   6.719  17.732  0.00  0.00    +0.000 A 
ATOM     11  C   UNL     1       5.527   5.797  17.008  0.00  0.00    +0.000 A 
ATOM     12  C   UNL     1       6.902   6.201  16.544  0.00  0.00    +0.000 C 
BRANCH   8  13
ATOM     13  O   UNL     1       1.600   4.893  18.074  0.00  0.00    +0.000 OA
ATOM     14  H   UNL     1       1.566   4.806  19.042  0.00  0.00    +0.000 HD
ENDBRANCH   8  13
ENDBRANCH   1   9
BRANCH   2  15
ATOM     15  C   UNL     1       1.302   9.340  19.143  0.00  0.00    +0.000 A 
ATOM     16  C   UNL     1       0.679  10.468  18.607  0.00  0.00    +0.000 A 
ATOM     17  C   UNL     1      -0.167  11.252  19.399  0.00  0.00    +0.000 A 
ATOM     18  C   UNL     1      -0.434  10.915  20.741  0.00  0.00    +0.000 A 
ATOM     19  C   UNL     1      -1.385  11.800  21.500  0.00  0.00    +0.000 C 
ATOM     20  C   UNL     1       0.193   9.758  21.267  0.00  0.00    +0.000 A 
ATOM     21  C   UNL     1       1.068   8.987  20.475  0.00  0.00    +0.000 A 
BRANCH  20  22
ATOM     22  N   UNL     1      -0.068   9.276  22.644  0.00  0.00    +0.000 N 
ATOM     23  O   UNL     1       0.567   9.766  23.586  0.00  0.00    +0.000 OA
ATOM     24  O   UNL     1      -0.931   8.395  22.781  0.00  0.00    +0.000 OA
ENDBRANCH  20  22
ENDBRANCH   2  15
TORSDOF 4
ENDMDL
MODEL 6
REMARK VINA RESULT:      -6.9      5.160      8.982
REMARK  Name = 
REMARK  7 active torsions:
REMARK  status: ('A' for Active; 'I' for Inactive)
REMARK    1  A    between atoms: C_1  and  C_2
REMARK    2  A    between atoms: C_4  and  O_5
REMARK    3  A    between atoms: C_6  and  N_7
REMARK    4  A    between atoms: C_8  and  C_10
REMARK    5  A    between atoms: C_13  and  C_14
REMARK    6  A    between atoms: C_15  and  N_16
REMARK    7  A    between atoms: C_21  and  C_22
REMARK                            x       y       z     vdW  Elec       q    Type
REMARK                         _______ _______ _______ _____ _____    ______ ____
ROOT
ATOM      1  N   UNL     1       2.690   6.874  19.016  0.00  0.00    +0.000 N 
ATOM      2  C   UNL     1       2.124   8.071  18.627  0.00  0.00    +0.000 C 
ATOM      3  O   UNL     1       2.308   8.634  17.551  0.00  0.00    +0.000 OA
ATOM      4  H   UNL     1       2.875   6.752  20.006  0.00  0.00    +0.000 HD
ENDROOT
BRANCH   1   9
ATOM      5  C   UNL     1       6.099   3.675  15.691  0.00  0.00    +0.000 C 
ATOM      6  C   UNL     1       5.221   4.560  16.536  0.00  0.00    +0.000 A 
ATOM      7  C   UNL     1       3.896   4.170  16.795  0.00  0.00    +0.000 A 
ATOM      8  C   UNL     1       3.069   4.971  17.582  0.00  0.00    +0.000 A 
ATOM      9  C   UNL     1       3.555   6.135  18.177  0.00  0.00    +0.000 A 
ATOM     10  C   UNL     1       4.869   6.539  17.911  0.00  0.00    +0.000 A 
ATOM     11  C   UNL     1       5.697   5.779  17.061  0.00  0.00    +0.000 A 
ATOM     12  C   UNL     1       7.069   6.294  16.713  0.00  0.00    +0.000 C 
BRANCH   8  13
ATOM     13  O   UNL     1       1.776   4.598  17.844  0.00  0.00    +0.000 OA
ATOM     14  H   UNL     1       1.214   4.955  17.135  0.00  0.00    +0.000 HD
ENDBRANCH   8  13
ENDBRANCH   1   9
BRANCH   2  15
ATOM     15  C   UNL     1       1.281   8.764  19.639  0.00  0.00    +0.000 A 
ATOM     16  C   UNL     1       1.318   8.329  20.965  0.00  0.00    +0.000 A 
ATOM     17  C   UNL     1       0.620   9.026  21.956  0.00  0.00    +0.000 A 
ATOM     18  C   UNL     1      -0.112  10.192  21.655  0.00  0.00    +0.000 A 
ATOM     19  C   UNL     1      -0.800  10.892  22.796  0.00  0.00    +0.000 C 
ATOM     20  C   UNL     1      -0.128  10.630  20.308  0.00  0.00    +0.000 A 
ATOM     21  C   UNL     1       0.552   9.908  19.305  0.00  0.00    +0.000 A 
BRANCH  20  22
ATOM     22  N   UNL     1      -0.811  11.877  19.891  0.00  0.00    +0.000 N 
ATOM     23  O   UNL     1      -2.006  11.834  19.573  0.00  0.00    +0.000 OA
ATOM     24  O   UNL     1      -0.137  12.918  19.889  0.00  0.00    +0.000 OA
ENDBRANCH  20  22
ENDBRANCH   2  15
TORSDOF 4
ENDMDL
MODEL 7
REMARK VINA RESULT:      -6.9      5.327      7.580
REMARK  Name = 
REMARK  7 active torsions:
REMARK  status: ('A' for Active; 'I' for Inactive)
REMARK    1  A    between atoms: C_1  and  C_2
REMARK    2  A    between atoms: C_4  and  O_5
REMARK    3  A    between atoms: C_6  and  N_7
REMARK    4  A    between atoms: C_8  and  C_10
REMARK    5  A    between atoms: C_13  and  C_14
REMARK    6  A    between atoms: C_15  and  N_16
REMARK    7  A    between atoms: C_21  and  C_22
REMARK                            x       y       z     vdW  Elec       q    Type
REMARK                         _______ _______ _______ _____ _____    ______ ____
ROOT
ATOM      1  N   UNL     1       1.002   8.975  19.503  0.00  0.00    +0.000 N 
ATOM      2  C   UNL     1       1.829   8.894  18.401  0.00  0.00    +0.000 C 
ATOM      3  O   UNL     1       1.847   9.682  17.459  0.00  0.00    +0.000 OA
ATOM      4  H   UNL     1       0.722   8.100  19.934  0.00  0.00    +0.000 HD
ENDROOT
BRANCH   1   9
ATOM      5  C   UNL     1      -2.765  13.198  20.443  0.00  0.00    +0.000 C 
ATOM      6  C   UNL     1      -1.773  12.105  20.143  0.00  0.00    +0.000 A 
ATOM      7  C   UNL     1      -0.690  11.899  21.013  0.00  0.00    +0.000 A 
ATOM      8  C   UNL     1       0.234  10.887  20.758  0.00  0.00    +0.000 A 
ATOM      9  C   UNL     1       0.069  10.022  19.676  0.00  0.00    +0.000 A 
ATOM     10  C   UNL     1      -0.998  10.230  18.795  0.00  0.00    +0.000 A 
ATOM     11  C   UNL     1      -1.902  11.292  18.997  0.00  0.00    +0.000 A 
ATOM     12  C   UNL     1      -2.978  11.552  17.976  0.00  0.00    +0.000 C 
BRANCH   8  13
ATOM     13  O   UNL     1       1.293  10.675  21.603  0.00  0.00    +0.000 OA
ATOM     14  H   UNL     1       0.944  10.613  22.509  0.00  0.00    +0.000 HD
ENDBRANCH   8  13
ENDBRANCH   1   9
BRANCH   2  15
ATOM     15  C   UNL     1       2.719   7.703  18.328  0.00  0.00    +0.000 A 
ATOM     16  C   UNL     1       2.391   6.565  19.066  0.00  0.00    +0.000 A 
ATOM     17  C   UNL     1       3.147   5.396  18.934  0.00  0.00    +0.000 A 
ATOM     18  C   UNL     1       4.235   5.323  18.042  0.00  0.00    +0.000 A 
ATOM     19  C   UNL     1       4.965   4.010  17.945  0.00  0.00    +0.000 C 
ATOM     20  C   UNL     1       4.547   6.481  17.288  0.00  0.00    +0.000 A 
ATOM     21  C   UNL     1       3.801   7.668  17.445  0.00  0.00    +0.000 A 
BRANCH  20  22
ATOM     22  N   UNL     1       5.628   6.496  16.275  0.00  0.00    +0.000 N 
ATOM     23  O   UNL     1       5.363   6.201  15.104  0.00  0.00    +0.000 OA
ATOM     24  O   UNL     1       6.762   6.818  16.662  0.00  0.00    +0.000 OA
ENDBRANCH  20  22
ENDBRANCH   2  15
TORSDOF 4
ENDMDL
MODEL 8
REMARK VINA RESULT:      -6.8      1.227      1.373
REMARK  Name = 
REMARK  7 active torsions:
REMARK  status: ('A' for Active; 'I' for Inactive)
REMARK    1  A    between atoms: C_1  and  C_2
REMARK    2  A    between atoms: C_4  and  O_5
REMARK    3  A    between atoms: C_6  and  N_7
REMARK    4  A    between atoms: C_8  and  C_10
REMARK    5  A    between atoms: C_13  and  C_14
REMARK    6  A    between atoms: C_15  and  N_16
REMARK    7  A    between atoms: C_21  and  C_22
REMARK                            x       y       z     vdW  Elec       q    Type
REMARK                         _______ _______ _______ _____ _____    ______ ____
ROOT
ATOM      1  N   UNL     1       4.453   3.273  16.761  0.00  0.00    +0.000 N 
ATOM      2  C   UNL     1       4.894   4.488  16.276  0.00  0.00    +0.000 C 
ATOM      3  O   UNL     1       4.745   5.575  16.827  0.00  0.00    +0.000 OA
ATOM      4  H   UNL     1       4.190   2.572  16.076  0.00  0.00    +0.000 HD
ENDROOT
BRANCH   1   9
ATOM      5  C   UNL     1       1.904   2.668  21.865  0.00  0.00    +0.000 C 
ATOM      6  C   UNL     1       2.532   2.860  20.509  0.00  0.00    +0.000 A 
ATOM      7  C   UNL     1       3.905   3.143  20.419  0.00  0.00    +0.000 A 
ATOM      8  C   UNL     1       4.506   3.315  19.173  0.00  0.00    +0.000 A 
ATOM      9  C   UNL     1       3.777   3.148  17.996  0.00  0.00    +0.000 A 
ATOM     10  C   UNL     1       2.405   2.883  18.076  0.00  0.00    +0.000 A 
ATOM     11  C   UNL     1       1.765   2.775  19.327  0.00  0.00    +0.000 A 
ATOM     12  C   UNL     1       0.271   2.592  19.380  0.00  0.00    +0.000 C 
BRANCH   8  13
ATOM     13  O   UNL     1       5.846   3.587  19.074  0.00  0.00    +0.000 OA
ATOM     14  H   UNL     1       6.043   3.782  18.142  0.00  0.00    +0.000 HD
ENDBRANCH   8  13
ENDBRANCH   1   9
BRANCH   2  15
ATOM     15  C   UNL     1       5.539   4.470  14.935  0.00  0.00    +0.000 A 
ATOM     16  C   UNL     1       6.776   5.094  14.769  0.00  0.00    +0.000 A 
ATOM     17  C   UNL     1       7.456   5.002  13.550  0.00  0.00    +0.000 A 
ATOM     18  C   UNL     1       6.930   4.262  12.472  0.00  0.00    +0.000 A 
ATOM     19  C   UNL     1       7.752   4.193  11.214  0.00  0.00    +0.000 C 
ATOM     20  C   UNL     1       5.680   3.621  12.660  0.00  0.00    +0.000 A 
ATOM     21  C   UNL     1       4.983   3.741  13.881  0.00  0.00    +0.000 A 
BRANCH  20  22
ATOM     22  N   UNL     1       5.066   2.766  11.618  0.00  0.00    +0.000 N 
ATOM     23  O   UNL     1       5.578   1.671  11.357  0.00  0.00    +0.000 OA
ATOM     24  O   UNL     1       4.049   3.200  11.056  0.00  0.00    +0.000 OA
ENDBRANCH  20  22
ENDBRANCH   2  15
TORSDOF 4
ENDMDL
MODEL 9
REMARK VINA RESULT:      -6.8      5.546      8.468
REMARK  Name = 
REMARK  7 active torsions:
REMARK  status: ('A' for Active; 'I' for Inactive)
REMARK    1  A    between atoms: C_1  and  C_2
REMARK    2  A    between atoms: C_4  and  O_5
REMARK    3  A    between atoms: C_6  and  N_7
REMARK    4  A    between atoms: C_8  and  C_10
REMARK    5  A    between atoms: C_13  and  C_14
REMARK    6  A    between atoms: C_15  and  N_16
REMARK    7  A    between atoms: C_21  and  C_22
REMARK                            x       y       z     vdW  Elec       q    Type
REMARK                         _______ _______ _______ _____ _____    ______ ____
ROOT
ATOM      1  N   UNL     1       1.202   8.477  21.284  0.00  0.00    +0.000 N 
ATOM      2  C   UNL     1       1.618   8.188  20.000  0.00  0.00    +0.000 C 
ATOM      3  O   UNL     1       1.499   8.926  19.026  0.00  0.00    +0.000 OA
ATOM      4  H   UNL     1       0.903   7.695  21.858  0.00  0.00    +0.000 HD
ENDROOT
BRANCH   1   9
ATOM      5  C   UNL     1      -1.483  13.346  22.696  0.00  0.00    +0.000 C 
ATOM      6  C   UNL     1      -0.729  12.093  22.332  0.00  0.00    +0.000 A 
ATOM      7  C   UNL     1      -1.112  10.869  22.903  0.00  0.00    +0.000 A 
ATOM      8  C   UNL     1      -0.433   9.696  22.572  0.00  0.00    +0.000 A 
ATOM      9  C   UNL     1       0.592   9.705  21.627  0.00  0.00    +0.000 A 
ATOM     10  C   UNL     1       0.990  10.923  21.064  0.00  0.00    +0.000 A 
ATOM     11  C   UNL     1       0.362  12.128  21.439  0.00  0.00    +0.000 A 
ATOM     12  C   UNL     1       0.882  13.433  20.895  0.00  0.00    +0.000 C 
BRANCH   8  13
ATOM     13  O   UNL     1      -0.801   8.495  23.122  0.00  0.00    +0.000 OA
ATOM     14  H   UNL     1      -1.757   8.528  23.297  0.00  0.00    +0.000 HD
ENDBRANCH   8  13
ENDBRANCH   1   9
BRANCH   2  15
ATOM     15  C   UNL     1       2.191   6.832  19.780  0.00  0.00    +0.000 A 
ATOM     16  C   UNL     1       3.280   6.688  18.918  0.00  0.00    +0.000 A 
ATOM     17  C   UNL     1       3.907   5.447  18.774  0.00  0.00    +0.000 A 
ATOM     18  C   UNL     1       3.479   4.321  19.506  0.00  0.00    +0.000 A 
ATOM     19  C   UNL     1       4.240   3.037  19.309  0.00  0.00    +0.000 C 
ATOM     20  C   UNL     1       2.383   4.485  20.389  0.00  0.00    +0.000 A 
ATOM     21  C   UNL     1       1.734   5.732  20.509  0.00  0.00    +0.000 A 
BRANCH  20  22
ATOM     22  N   UNL     1       1.893   3.387  21.254  0.00  0.00    +0.000 N 
ATOM     23  O   UNL     1       0.989   2.651  20.843  0.00  0.00    +0.000 OA
ATOM     24  O   UNL     1       2.433   3.258  22.364  0.00  0.00    +0.000 OA
ENDBRANCH  20  22
ENDBRANCH   2  15
TORSDOF 4
ENDMDL
