MODEL 1
REMARK VINA RESULT:      -7.6      0.000      0.000
REMARK  Name = 
REMARK  8 active torsions:
REMARK  status: ('A' for Active; 'I' for Inactive)
REMARK    1  A    between atoms: O_1  and  C_2
REMARK    2  A    between atoms: C_8  and  C_9
REMARK    3  A    between atoms: N_10  and  C_11
REMARK    4  A    between atoms: C_11  and  C_12
REMARK    5  A    between atoms: C_12  and  C_13
REMARK    6  A    between atoms: C_13  and  N_14
REMARK    7  A    between atoms: C_15  and  C_16
REMARK    8  A    between atoms: C_22  and  O_23
REMARK                            x       y       z     vdW  Elec       q    Type
REMARK                         _______ _______ _______ _____ _____    ______ ____
ROOT
ATOM      1  C   UNL     1       7.778   6.593  18.105  0.00  0.00    +0.000 C 
ENDROOT
BRANCH   1   2
ATOM      2  C   UNL     1       7.522   8.045  17.693  0.00  0.00    +0.000 C 
BRANCH   2   4
ATOM      3  C   UNL     1       8.528  10.098  18.247  0.00  0.00    +0.000 C 
ATOM      4  N   UNL     1       8.687   8.824  18.121  0.00  0.00    +0.000 NA
BRANCH   3  11
ATOM      5  C   UNL     1      10.021  11.083  20.020  0.00  0.00    +0.000 A 
ATOM      6  C   UNL     1      11.100  11.898  20.390  0.00  0.00    +0.000 A 
ATOM      7  C   UNL     1      11.813  12.593  19.408  0.00  0.00    +0.000 A 
ATOM      8  C   UNL     1      11.451  12.468  18.068  0.00  0.00    +0.000 A 
ATOM      9 CL   UNL     1      12.333  13.324  16.865  0.00  0.00    +0.000 Cl
ATOM     10  C   UNL     1      10.381  11.656  17.698  0.00  0.00    +0.000 A 
ATOM     11  C   UNL     1       9.663  10.957  18.677  0.00  0.00    +0.000 A 
BRANCH   5  12
ATOM     12  O   UNL     1       9.339  10.406  20.996  0.00  0.00    +0.000 OA
ATOM     13  H   UNL     1       9.866  10.407  21.817  0.00  0.00    +0.000 HD
ENDBRANCH   5  12
ENDBRANCH   3  11
ENDBRANCH   2   4
ENDBRANCH   1   2
BRANCH   1  14
ATOM     14  C   UNL     1       7.119   5.579  17.170  0.00  0.00    +0.000 C 
BRANCH  14  15
ATOM     15  N   UNL     1       5.780   5.301  17.697  0.00  0.00    +0.000 NA
ATOM     16  C   UNL     1       5.745   4.771  18.873  0.00  0.00    +0.000 C 
BRANCH  16  17
ATOM     17  C   UNL     1       4.455   4.397  19.493  0.00  0.00    +0.000 A 
ATOM     18  C   UNL     1       3.529   5.402  19.800  0.00  0.00    +0.000 A 
ATOM     19  C   UNL     1       2.293   5.062  20.338  0.00  0.00    +0.000 A 
ATOM     20 CL   UNL     1       1.160   6.298  20.726  0.00  0.00    +0.000 Cl
ATOM     21  C   UNL     1       1.965   3.726  20.568  0.00  0.00    +0.000 A 
ATOM     22  C   UNL     1       2.888   2.719  20.274  0.00  0.00    +0.000 A 
ATOM     23  C   UNL     1       4.136   3.057  19.745  0.00  0.00    +0.000 A 
BRANCH  23  24
ATOM     24  O   UNL     1       5.045   2.073  19.476  0.00  0.00    +0.000 OA
ATOM     25  H   UNL     1       4.813   1.275  19.980  0.00  0.00    +0.000 HD
ENDBRANCH  23  24
ENDBRANCH  16  17
ENDBRANCH  14  15
ENDBRANCH   1  14
TORSDOF 8
ENDMDL
MODEL 2
REMARK VINA RESULT:      -7.5      1.370      1.475
REMARK  Name = 
REMARK  8 active torsions:
REMARK  status: ('A' for Active; 'I' for Inactive)
REMARK    1  A    between atoms: O_1  and  C_2
REMARK    2  A    between atoms: C_8  and  C_9
REMARK    3  A    between atoms: N_10  and  C_11
REMARK    4  A    between atoms: C_11  and  C_12
REMARK    5  A    between atoms: C_12  and  C_13
REMARK    6  A    between atoms: C_13  and  N_14
REMARK    7  A    between atoms: C_15  and  C_16
REMARK    8  A    between atoms: C_22  and  O_23
REMARK                            x       y       z     vdW  Elec       q    Type
REMARK                         _______ _______ _______ _____ _____    ______ ____
ROOT
ATOM      1  C   UNL     1       8.197   7.105  18.023  0.00  0.00    +0.000 C 
ENDROOT
BRANCH   1   2
ATOM      2  C   UNL     1       7.238   8.245  17.672  0.00  0.00    +0.000 C 
BRANCH   2   4
ATOM      3  C   UNL     1       8.918   9.493  18.745  0.00  0.00    +0.000 C 
ATOM      4  N   UNL     1       7.970   9.498  17.871  0.00  0.00    +0.000 NA
BRANCH   3  11
ATOM      5  C   UNL     1       9.875  11.235  20.292  0.00  0.00    +0.000 A 
ATOM      6  C   UNL     1      10.629  12.398  20.500  0.00  0.00    +0.000 A 
ATOM      7  C   UNL     1      11.207  13.055  19.408  0.00  0.00    +0.000 A 
ATOM      8  C   UNL     1      11.035  12.547  18.122  0.00  0.00    +0.000 A 
ATOM      9 CL   UNL     1      11.750  13.358  16.784  0.00  0.00    +0.000 Cl
ATOM     10  C   UNL     1      10.288  11.389  17.914  0.00  0.00    +0.000 A 
ATOM     11  C   UNL     1       9.707  10.726  19.003  0.00  0.00    +0.000 A 
BRANCH   5  12
ATOM     12  O   UNL     1       9.322  10.604  21.374  0.00  0.00    +0.000 OA
ATOM     13  H   UNL     1       9.529  11.108  22.182  0.00  0.00    +0.000 HD
ENDBRANCH   5  12
ENDBRANCH   3  11
ENDBRANCH   2   4
ENDBRANCH   1   2
BRANCH   1  14
ATOM     14  C   UNL     1       7.617   6.125  19.043  0.00  0.00    +0.000 C 
BRANCH  14  15
ATOM     15  N   UNL     1       6.342   5.639  18.511  0.00  0.00    +0.000 NA
ATOM     16  C   UNL     1       5.645   4.909  19.317  0.00  0.00    +0.000 C 
BRANCH  16  17
ATOM     17  C   UNL     1       4.362   4.317  18.881  0.00  0.00    +0.000 A 
ATOM     18  C   UNL     1       3.248   4.409  19.723  0.00  0.00    +0.000 A 
ATOM     19  C   UNL     1       2.022   3.900  19.307  0.00  0.00    +0.000 A 
ATOM     20 CL   UNL     1       0.655   4.003  20.347  0.00  0.00    +0.000 Cl
ATOM     21  C   UNL     1       1.893   3.304  18.052  0.00  0.00    +0.000 A 
ATOM     22  C   UNL     1       3.004   3.200  17.211  0.00  0.00    +0.000 A 
ATOM     23  C   UNL     1       4.240   3.699  17.630  0.00  0.00    +0.000 A 
BRANCH  23  24
ATOM     24  O   UNL     1       5.330   3.580  16.815  0.00  0.00    +0.000 OA
ATOM     25  H   UNL     1       5.824   4.417  16.815  0.00  0.00    +0.000 HD
ENDBRANCH  23  24
ENDBRANCH  16  17
ENDBRANCH  14  15
ENDBRANCH   1  14
TORSDOF 8
ENDMDL
MODEL 3
REMARK VINA RESULT:      -7.5      1.803      2.055
REMARK  Name = 
REMARK  8 active torsions:
REMARK  status: ('A' for Active; 'I' for Inactive)
REMARK    1  A    between atoms: O_1  and  C_2
REMARK    2  A    between atoms: C_8  and  C_9
REMARK    3  A    between atoms: N_10  and  C_11
REMARK    4  A    between atoms: C_11  and  C_12
REMARK    5  A    between atoms: C_12  and  C_13
REMARK    6  A    between atoms: C_13  and  N_14
REMARK    7  A    between atoms: C_15  and  C_16
REMARK    8  A    between atoms: C_22  and  O_23
REMARK                            x       y       z     vdW  Elec       q    Type
REMARK                         _______ _______ _______ _____ _____    ______ ____
ROOT
ATOM      1  C   UNL     1       8.111   6.988  18.707  0.00  0.00    +0.000 C 
ENDROOT
BRANCH   1   2
ATOM      2  C   UNL     1       7.579   7.959  17.651  0.00  0.00    +0.000 C 
BRANCH   2   4
ATOM      3  C   UNL     1       8.788   9.538  18.906  0.00  0.00    +0.000 C 
ATOM      4  N   UNL     1       8.395   9.173  17.733  0.00  0.00    +0.000 NA
BRANCH   3  11
ATOM      5  C   UNL     1       9.867  11.316  20.327  0.00  0.00    +0.000 A 
ATOM      6  C   UNL     1      10.660  12.465  20.447  0.00  0.00    +0.000 A 
ATOM      7  C   UNL     1      11.197  13.061  19.301  0.00  0.00    +0.000 A 
ATOM      8  C   UNL     1      10.945  12.506  18.047  0.00  0.00    +0.000 A 
ATOM      9 CL   UNL     1      11.609  13.242  16.642  0.00  0.00    +0.000 Cl
ATOM     10  C   UNL     1      10.160  11.362  17.927  0.00  0.00    +0.000 A 
ATOM     11  C   UNL     1       9.620  10.760  19.071  0.00  0.00    +0.000 A 
BRANCH   5  12
ATOM     12  O   UNL     1       9.355  10.744  21.462  0.00  0.00    +0.000 OA
ATOM     13  H   UNL     1       8.436  11.044  21.586  0.00  0.00    +0.000 HD
ENDBRANCH   5  12
ENDBRANCH   3  11
ENDBRANCH   2   4
ENDBRANCH   1   2
BRANCH   1  14
ATOM     14  C   UNL     1       7.899   5.521  18.335  0.00  0.00    +0.000 C 
BRANCH  14  15
ATOM     15  N   UNL     1       6.489   5.358  17.970  0.00  0.00    +0.000 NA
ATOM     16  C   UNL     1       5.705   4.993  18.929  0.00  0.00    +0.000 C 
BRANCH  16  17
ATOM     17  C   UNL     1       4.269   4.746  18.676  0.00  0.00    +0.000 A 
ATOM     18  C   UNL     1       3.705   3.530  19.080  0.00  0.00    +0.000 A 
ATOM     19  C   UNL     1       2.346   3.302  18.894  0.00  0.00    +0.000 A 
ATOM     20 CL   UNL     1       1.656   1.802  19.380  0.00  0.00    +0.000 Cl
ATOM     21  C   UNL     1       1.538   4.280  18.313  0.00  0.00    +0.000 A 
ATOM     22  C   UNL     1       2.096   5.492  17.898  0.00  0.00    +0.000 A 
ATOM     23  C   UNL     1       3.464   5.720  18.073  0.00  0.00    +0.000 A 
BRANCH  23  24
ATOM     24  O   UNL     1       4.012   6.898  17.649  0.00  0.00    +0.000 OA
ATOM     25  H   UNL     1       4.946   6.932  17.919  0.00  0.00    +0.000 HD
ENDBRANCH  23  24
ENDBRANCH  16  17
ENDBRANCH  14  15
ENDBRANCH   1  14
TORSDOF 8
ENDMDL
MODEL 4
REMARK VINA RESULT:      -7.4      2.141      9.740
REMARK  Name = 
REMARK  8 active torsions:
REMARK  status: ('A' for Active; 'I' for Inactive)
REMARK    1  A    between atoms: O_1  and  C_2
REMARK    2  A    between atoms: C_8  and  C_9
REMARK    3  A    between atoms: N_10  and  C_11
REMARK    4  A    between atoms: C_11  and  C_12
REMARK    5  A    between atoms: C_12  and  C_13
REMARK    6  A    between atoms: C_13  and  N_14
REMARK    7  A    between atoms: C_15  and  C_16
REMARK    8  A    between atoms: C_22  and  O_23
REMARK                            x       y       z     vdW  Elec       q    Type
REMARK                         _______ _______ _______ _____ _____    ______ ____
ROOT
ATOM      1  C   UNL     1       7.848   6.474  17.745  0.00  0.00    +0.000 C 
ENDROOT
BRANCH   1   2
ATOM      2  C   UNL     1       7.459   6.040  19.161  0.00  0.00    +0.000 C 
BRANCH   2   4
ATOM      3  C   UNL     1       5.266   5.192  19.200  0.00  0.00    +0.000 C 
ATOM      4  N   UNL     1       6.516   4.927  19.025  0.00  0.00    +0.000 NA
BRANCH   3  11
ATOM      5  C   UNL     1       4.203   3.267  17.971  0.00  0.00    +0.000 A 
ATOM      6  C   UNL     1       3.232   2.260  17.892  0.00  0.00    +0.000 A 
ATOM      7  C   UNL     1       2.299   2.111  18.923  0.00  0.00    +0.000 A 
ATOM      8  C   UNL     1       2.344   2.962  20.027  0.00  0.00    +0.000 A 
ATOM      9 CL   UNL     1       1.195   2.773  21.293  0.00  0.00    +0.000 Cl
ATOM     10  C   UNL     1       3.310   3.962  20.109  0.00  0.00    +0.000 A 
ATOM     11  C   UNL     1       4.248   4.115  19.079  0.00  0.00    +0.000 A 
BRANCH   5  12
ATOM     12  O   UNL     1       5.111   3.392  16.953  0.00  0.00    +0.000 OA
ATOM     13  H   UNL     1       4.889   4.178  16.419  0.00  0.00    +0.000 HD
ENDBRANCH   5  12
ENDBRANCH   3  11
ENDBRANCH   2   4
ENDBRANCH   1   2
BRANCH   1  14
ATOM     14  C   UNL     1       7.563   7.949  17.469  0.00  0.00    +0.000 C 
BRANCH  14  15
ATOM     15  N   UNL     1       8.340   8.736  18.431  0.00  0.00    +0.000 NA
ATOM     16  C   UNL     1       8.615   9.944  18.068  0.00  0.00    +0.000 C 
BRANCH  16  17
ATOM     17  C   UNL     1       9.436  10.822  18.930  0.00  0.00    +0.000 A 
ATOM     18  C   UNL     1       8.993  11.111  20.226  0.00  0.00    +0.000 A 
ATOM     19  C   UNL     1       9.777  11.895  21.066  0.00  0.00    +0.000 A 
ATOM     20 CL   UNL     1       9.227  12.261  22.655  0.00  0.00    +0.000 Cl
ATOM     21  C   UNL     1      11.006  12.390  20.628  0.00  0.00    +0.000 A 
ATOM     22  C   UNL     1      11.449  12.113  19.332  0.00  0.00    +0.000 A 
ATOM     23  C   UNL     1      10.659  11.336  18.481  0.00  0.00    +0.000 A 
BRANCH  23  24
ATOM     24  O   UNL     1      11.084  11.082  17.208  0.00  0.00    +0.000 OA
ATOM     25  H   UNL     1      10.566  10.347  16.838  0.00  0.00    +0.000 HD
ENDBRANCH  23  24
ENDBRANCH  16  17
ENDBRANCH  14  15
ENDBRANCH   1  14
TORSDOF 8
ENDMDL
MODEL 5
REMARK VINA RESULT:      -7.4      1.673      1.970
REMARK  Name = 
REMARK  8 active torsions:
REMARK  status: ('A' for Active; 'I' for Inactive)
REMARK    1  A    between atoms: O_1  and  C_2
REMARK    2  A    between atoms: C_8  and  C_9
REMARK    3  A    between atoms: N_10  and  C_11
REMARK    4  A    between atoms: C_11  and  C_12
REMARK    5  A    between atoms: C_12  and  C_13
REMARK    6  A    between atoms: C_13  and  N_14
REMARK    7  A    between atoms: C_15  and  C_16
REMARK    8  A    between atoms: C_22  and  O_23
REMARK                            x       y       z     vdW  Elec       q    Type
REMARK                         _______ _______ _______ _____ _____    ______ ____
ROOT
ATOM      1  C   UNL     1       7.993   6.825  18.622  0.00  0.00    +0.000 C 
ENDROOT
BRANCH   1   2
ATOM      2  C   UNL     1       7.537   7.789  17.525  0.00  0.00    +0.000 C 
BRANCH   2   4
ATOM      3  C   UNL     1       8.694   9.353  18.847  0.00  0.00    +0.000 C 
ATOM      4  N   UNL     1       8.347   9.002  17.655  0.00  0.00    +0.000 NA
BRANCH   3  11
ATOM      5  C   UNL     1       9.767  11.076  20.338  0.00  0.00    +0.000 A 
ATOM      6  C   UNL     1      10.551  12.225  20.504  0.00  0.00    +0.000 A 
ATOM      7  C   UNL     1      11.077  12.874  19.382  0.00  0.00    +0.000 A 
ATOM      8  C   UNL     1      10.823  12.372  18.107  0.00  0.00    +0.000 A 
ATOM      9 CL   UNL     1      11.474  13.173  16.731  0.00  0.00    +0.000 Cl
ATOM     10  C   UNL     1      10.047  11.227  17.940  0.00  0.00    +0.000 A 
ATOM     11  C   UNL     1       9.517  10.572  19.061  0.00  0.00    +0.000 A 
BRANCH   5  12
ATOM     12  O   UNL     1       9.266  10.452  21.450  0.00  0.00    +0.000 OA
ATOM     13  H   UNL     1       8.311  10.298  21.329  0.00  0.00    +0.000 HD
ENDBRANCH   5  12
ENDBRANCH   3  11
ENDBRANCH   2   4
ENDBRANCH   1   2
BRANCH   1  14
ATOM     14  C   UNL     1       7.556   5.382  18.374  0.00  0.00    +0.000 C 
BRANCH  14  15
ATOM     15  N   UNL     1       6.348   5.145  19.169  0.00  0.00    +0.000 NA
ATOM     16  C   UNL     1       5.231   5.372  18.564  0.00  0.00    +0.000 C 
BRANCH  16  17
ATOM     17  C   UNL     1       3.943   5.218  19.275  0.00  0.00    +0.000 A 
ATOM     18  C   UNL     1       3.708   4.052  20.014  0.00  0.00    +0.000 A 
ATOM     19  C   UNL     1       2.523   3.913  20.728  0.00  0.00    +0.000 A 
ATOM     20 CL   UNL     1       2.229   2.475  21.626  0.00  0.00    +0.000 Cl
ATOM     21  C   UNL     1       1.568   4.930  20.719  0.00  0.00    +0.000 A 
ATOM     22  C   UNL     1       1.792   6.092  19.975  0.00  0.00    +0.000 A 
ATOM     23  C   UNL     1       2.976   6.231  19.247  0.00  0.00    +0.000 A 
BRANCH  23  24
ATOM     24  O   UNL     1       3.186   7.358  18.505  0.00  0.00    +0.000 OA
ATOM     25  H   UNL     1       3.844   7.170  17.814  0.00  0.00    +0.000 HD
ENDBRANCH  23  24
ENDBRANCH  16  17
ENDBRANCH  14  15
ENDBRANCH   1  14
TORSDOF 8
ENDMDL
MODEL 6
REMARK VINA RESULT:      -7.2      5.648      7.466
REMARK  Name = 
REMARK  8 active torsions:
REMARK  status: ('A' for Active; 'I' for Inactive)
REMARK    1  A    between atoms: O_1  and  C_2
REMARK    2  A    between atoms: C_8  and  C_9
REMARK    3  A    between atoms: N_10  and  C_11
REMARK    4  A    between atoms: C_11  and  C_12
REMARK    5  A    between atoms: C_12  and  C_13
REMARK    6  A    between atoms: C_13  and  N_14
REMARK    7  A    between atoms: C_15  and  C_16
REMARK    8  A    between atoms: C_22  and  O_23
REMARK                            x       y       z     vdW  Elec       q    Type
REMARK                         _______ _______ _______ _____ _____    ______ ____
ROOT
ATOM      1  C   UNL     1       1.641   3.815  19.827  0.00  0.00    +0.000 C 
ENDROOT
BRANCH   1   2
ATOM      2  C   UNL     1       2.399   2.496  19.658  0.00  0.00    +0.000 C 
BRANCH   2   4
ATOM      3  C   UNL     1       3.673   3.639  18.045  0.00  0.00    +0.000 C 
ATOM      4  N   UNL     1       3.687   2.817  19.039  0.00  0.00    +0.000 NA
BRANCH   3  11
ATOM      5  C   UNL     1       6.036   4.513  18.072  0.00  0.00    +0.000 A 
ATOM      6  C   UNL     1       7.216   4.852  17.398  0.00  0.00    +0.000 A 
ATOM      7  C   UNL     1       7.292   4.700  16.010  0.00  0.00    +0.000 A 
ATOM      8  C   UNL     1       6.195   4.207  15.305  0.00  0.00    +0.000 A 
ATOM      9 CL   UNL     1       6.295   4.021  13.598  0.00  0.00    +0.000 Cl
ATOM     10  C   UNL     1       5.022   3.865  15.973  0.00  0.00    +0.000 A 
ATOM     11  C   UNL     1       4.940   4.015  17.364  0.00  0.00    +0.000 A 
BRANCH   5  12
ATOM     12  O   UNL     1       5.984   4.663  19.432  0.00  0.00    +0.000 OA
ATOM     13  H   UNL     1       6.887   4.611  19.796  0.00  0.00    +0.000 HD
ENDBRANCH   5  12
ENDBRANCH   3  11
ENDBRANCH   2   4
ENDBRANCH   1   2
BRANCH   1  14
ATOM     14  C   UNL     1       2.193   4.685  20.955  0.00  0.00    +0.000 C 
BRANCH  14  15
ATOM     15  N   UNL     1       1.706   6.050  20.737  0.00  0.00    +0.000 NA
ATOM     16  C   UNL     1       2.214   6.665  19.722  0.00  0.00    +0.000 C 
BRANCH  16  17
ATOM     17  C   UNL     1       1.841   8.066  19.426  0.00  0.00    +0.000 A 
ATOM     18  C   UNL     1       1.103   8.789  20.371  0.00  0.00    +0.000 A 
ATOM     19  C   UNL     1       0.786  10.121  20.129  0.00  0.00    +0.000 A 
ATOM     20 CL   UNL     1      -0.131  11.006  21.286  0.00  0.00    +0.000 Cl
ATOM     21  C   UNL     1       1.204  10.745  18.954  0.00  0.00    +0.000 A 
ATOM     22  C   UNL     1       1.932  10.026  18.001  0.00  0.00    +0.000 A 
ATOM     23  C   UNL     1       2.242   8.684  18.235  0.00  0.00    +0.000 A 
BRANCH  23  24
ATOM     24  O   UNL     1       2.937   7.977  17.295  0.00  0.00    +0.000 OA
ATOM     25  H   UNL     1       2.485   7.131  17.132  0.00  0.00    +0.000 HD
ENDBRANCH  23  24
ENDBRANCH  16  17
ENDBRANCH  14  15
ENDBRANCH   1  14
TORSDOF 8
ENDMDL
MODEL 7
REMARK VINA RESULT:      -7.1      5.661      8.214
REMARK  Name = 
REMARK  8 active torsions:
REMARK  status: ('A' for Active; 'I' for Inactive)
REMARK    1  A    between atoms: O_1  and  C_2
REMARK    2  A    between atoms: C_8  and  C_9
REMARK    3  A    between atoms: N_10  and  C_11
REMARK    4  A    between atoms: C_11  and  C_12
REMARK    5  A    between atoms: C_12  and  C_13
REMARK    6  A    between atoms: C_13  and  N_14
REMARK    7  A    between atoms: C_15  and  C_16
REMARK    8  A    between atoms: C_22  and  O_23
REMARK                            x       y       z     vdW  Elec       q    Type
REMARK                         _______ _______ _______ _____ _____    ______ ____
ROOT
ATOM      1  C   UNL     1       1.336   3.881  19.992  0.00  0.00    +0.000 C 
ENDROOT
BRANCH   1   2
ATOM      2  C   UNL     1       2.119   5.033  20.625  0.00  0.00    +0.000 C 
BRANCH   2   4
ATOM      3  C   UNL     1       1.799   7.344  20.924  0.00  0.00    +0.000 C 
ATOM      4  N   UNL     1       1.308   6.242  20.467  0.00  0.00    +0.000 NA
BRANCH   3  11
ATOM      5  C   UNL     1       0.983   9.327  19.602  0.00  0.00    +0.000 A 
ATOM      6  C   UNL     1       0.249  10.518  19.520  0.00  0.00    +0.000 A 
ATOM      7  C   UNL     1      -0.425  10.997  20.648  0.00  0.00    +0.000 A 
ATOM      8  C   UNL     1      -0.368  10.285  21.846  0.00  0.00    +0.000 A 
ATOM      9 CL   UNL     1      -1.200  10.878  23.229  0.00  0.00    +0.000 Cl
ATOM     10  C   UNL     1       0.358   9.099  21.928  0.00  0.00    +0.000 A 
ATOM     11  C   UNL     1       1.035   8.613  20.801  0.00  0.00    +0.000 A 
BRANCH   5  12
ATOM     12  O   UNL     1       1.631   8.871  18.485  0.00  0.00    +0.000 OA
ATOM     13  H   UNL     1       1.395   7.937  18.335  0.00  0.00    +0.000 HD
ENDBRANCH   5  12
ENDBRANCH   3  11
ENDBRANCH   2   4
ENDBRANCH   1   2
BRANCH   1  14
ATOM     14  C   UNL     1       1.445   3.846  18.468  0.00  0.00    +0.000 C 
BRANCH  14  15
ATOM     15  N   UNL     1       2.763   4.377  18.109  0.00  0.00    +0.000 NA
ATOM     16  C   UNL     1       3.528   3.570  17.454  0.00  0.00    +0.000 C 
BRANCH  16  17
ATOM     17  C   UNL     1       4.901   3.971  17.078  0.00  0.00    +0.000 A 
ATOM     18  C   UNL     1       5.230   4.083  15.721  0.00  0.00    +0.000 A 
ATOM     19  C   UNL     1       6.503   4.505  15.351  0.00  0.00    +0.000 A 
ATOM     20 CL   UNL     1       6.911   4.631  13.684  0.00  0.00    +0.000 Cl
ATOM     21  C   UNL     1       7.452   4.827  16.322  0.00  0.00    +0.000 A 
ATOM     22  C   UNL     1       7.132   4.708  17.677  0.00  0.00    +0.000 A 
ATOM     23  C   UNL     1       5.859   4.272  18.053  0.00  0.00    +0.000 A 
BRANCH  23  24
ATOM     24  O   UNL     1       5.555   4.137  19.378  0.00  0.00    +0.000 OA
ATOM     25  H   UNL     1       6.285   3.682  19.830  0.00  0.00    +0.000 HD
ENDBRANCH  23  24
ENDBRANCH  16  17
ENDBRANCH  14  15
ENDBRANCH   1  14
TORSDOF 8
ENDMDL
MODEL 8
REMARK VINA RESULT:      -7.1      5.716      8.027
REMARK  Name = 
REMARK  8 active torsions:
REMARK  status: ('A' for Active; 'I' for Inactive)
REMARK    1  A    between atoms: O_1  and  C_2
REMARK    2  A    between atoms: C_8  and  C_9
REMARK    3  A    between atoms: N_10  and  C_11
REMARK    4  A    between atoms: C_11  and  C_12
REMARK    5  A    between atoms: C_12  and  C_13
REMARK    6  A    between atoms: C_13  and  N_14
REMARK    7  A    between atoms: C_15  and  C_16
REMARK    8  A    between atoms: C_22  and  O_23
REMARK                            x       y       z     vdW  Elec       q    Type
REMARK                         _______ _______ _______ _____ _____    ______ ____
ROOT
ATOM      1  C   UNL     1       2.568   2.560  20.220  0.00  0.00    +0.000 C 
ENDROOT
BRANCH   1   2
ATOM      2  C   UNL     1       1.550   3.322  21.072  0.00  0.00    +0.000 C 
BRANCH   2   4
ATOM      3  C   UNL     1       1.991   5.619  20.830  0.00  0.00    +0.000 C 
ATOM      4  N   UNL     1       1.311   4.606  20.411  0.00  0.00    +0.000 NA
BRANCH   3  11
ATOM      5  C   UNL     1       2.299   7.252  18.937  0.00  0.00    +0.000 A 
ATOM      6  C   UNL     1       2.102   8.522  18.379  0.00  0.00    +0.000 A 
ATOM      7  C   UNL     1       1.414   9.500  19.105  0.00  0.00    +0.000 A 
ATOM      8  C   UNL     1       0.924   9.204  20.376  0.00  0.00    +0.000 A 
ATOM      9 CL   UNL     1       0.077  10.410  21.263  0.00  0.00    +0.000 Cl
ATOM     10  C   UNL     1       1.116   7.941  20.931  0.00  0.00    +0.000 A 
ATOM     11  C   UNL     1       1.805   6.957  20.208  0.00  0.00    +0.000 A 
BRANCH   5  12
ATOM     12  O   UNL     1       2.971   6.307  18.207  0.00  0.00    +0.000 OA
ATOM     13  H   UNL     1       2.709   6.377  17.271  0.00  0.00    +0.000 HD
ENDBRANCH   5  12
ENDBRANCH   3  11
ENDBRANCH   2   4
ENDBRANCH   1   2
BRANCH   1  14
ATOM     14  C   UNL     1       2.390   2.794  18.720  0.00  0.00    +0.000 C 
BRANCH  14  15
ATOM     15  N   UNL     1       3.697   3.169  18.175  0.00  0.00    +0.000 NA
ATOM     16  C   UNL     1       3.677   3.693  16.995  0.00  0.00    +0.000 C 
BRANCH  16  17
ATOM     17  C   UNL     1       4.936   4.068  16.316  0.00  0.00    +0.000 A 
ATOM     18  C   UNL     1       5.105   3.741  14.965  0.00  0.00    +0.000 A 
ATOM     19  C   UNL     1       6.262   4.128  14.298  0.00  0.00    +0.000 A 
ATOM     20 CL   UNL     1       6.474   3.715  12.641  0.00  0.00    +0.000 Cl
ATOM     21  C   UNL     1       7.254   4.849  14.964  0.00  0.00    +0.000 A 
ATOM     22  C   UNL     1       7.097   5.170  16.315  0.00  0.00    +0.000 A 
ATOM     23  C   UNL     1       5.941   4.771  16.992  0.00  0.00    +0.000 A 
BRANCH  23  24
ATOM     24  O   UNL     1       5.797   5.069  18.317  0.00  0.00    +0.000 OA
ATOM     25  H   UNL     1       5.211   4.413  18.731  0.00  0.00    +0.000 HD
ENDBRANCH  23  24
ENDBRANCH  16  17
ENDBRANCH  14  15
ENDBRANCH   1  14
TORSDOF 8
ENDMDL
MODEL 9
REMARK VINA RESULT:      -7.1      5.245      6.930
REMARK  Name = 
REMARK  8 active torsions:
REMARK  status: ('A' for Active; 'I' for Inactive)
REMARK    1  A    between atoms: O_1  and  C_2
REMARK    2  A    between atoms: C_8  and  C_9
REMARK    3  A    between atoms: N_10  and  C_11
REMARK    4  A    between atoms: C_11  and  C_12
REMARK    5  A    between atoms: C_12  and  C_13
REMARK    6  A    between atoms: C_13  and  N_14
REMARK    7  A    between atoms: C_15  and  C_16
REMARK    8  A    between atoms: C_22  and  O_23
REMARK                            x       y       z     vdW  Elec       q    Type
REMARK                         _______ _______ _______ _____ _____    ______ ____
ROOT
ATOM      1  C   UNL     1       7.212   6.373  17.646  0.00  0.00    +0.000 C 
ENDROOT
BRANCH   1   2
ATOM      2  C   UNL     1       5.809   6.649  17.102  0.00  0.00    +0.000 C 
BRANCH   2   4
ATOM      3  C   UNL     1       6.661   5.316  15.362  0.00  0.00    +0.000 C 
ATOM      4  N   UNL     1       5.796   6.208  15.705  0.00  0.00    +0.000 NA
BRANCH   3  11
ATOM      5  C   UNL     1       7.774   5.121  13.110  0.00  0.00    +0.000 A 
ATOM      6  C   UNL     1       7.790   4.630  11.798  0.00  0.00    +0.000 A 
ATOM      7  C   UNL     1       6.731   3.840  11.339  0.00  0.00    +0.000 A 
ATOM      8  C   UNL     1       5.668   3.542  12.190  0.00  0.00    +0.000 A 
ATOM      9 CL   UNL     1       4.369   2.569  11.620  0.00  0.00    +0.000 Cl
ATOM     10  C   UNL     1       5.652   4.026  13.496  0.00  0.00    +0.000 A 
ATOM     11  C   UNL     1       6.710   4.817  13.962  0.00  0.00    +0.000 A 
BRANCH   5  12
ATOM     12  O   UNL     1       8.823   5.887  13.543  0.00  0.00    +0.000 OA
ATOM     13  H   UNL     1       8.814   5.924  14.517  0.00  0.00    +0.000 HD
ENDBRANCH   5  12
ENDBRANCH   3  11
ENDBRANCH   2   4
ENDBRANCH   1   2
BRANCH   1  14
ATOM     14  C   UNL     1       7.204   5.586  18.956  0.00  0.00    +0.000 C 
BRANCH  14  15
ATOM     15  N   UNL     1       6.188   4.537  18.833  0.00  0.00    +0.000 NA
ATOM     16  C   UNL     1       5.013   4.847  19.270  0.00  0.00    +0.000 C 
BRANCH  16  17
ATOM     17  C   UNL     1       3.915   3.857  19.248  0.00  0.00    +0.000 A 
ATOM     18  C   UNL     1       3.154   3.657  20.407  0.00  0.00    +0.000 A 
ATOM     19  C   UNL     1       2.087   2.765  20.389  0.00  0.00    +0.000 A 
ATOM     20 CL   UNL     1       1.160   2.511  21.816  0.00  0.00    +0.000 Cl
ATOM     21  C   UNL     1       1.764   2.073  19.221  0.00  0.00    +0.000 A 
ATOM     22  C   UNL     1       2.525   2.260  18.064  0.00  0.00    +0.000 A 
ATOM     23  C   UNL     1       3.606   3.146  18.082  0.00  0.00    +0.000 A 
BRANCH  23  24
ATOM     24  O   UNL     1       4.361   3.314  16.956  0.00  0.00    +0.000 OA
ATOM     25  H   UNL     1       4.726   4.215  16.946  0.00  0.00    +0.000 HD
ENDBRANCH  23  24
ENDBRANCH  16  17
ENDBRANCH  14  15
ENDBRANCH   1  14
TORSDOF 8
ENDMDL
