MODEL 1
REMARK VINA RESULT:      -8.4      0.000      0.000
REMARK  Name = 
REMARK  4 active torsions:
REMARK  status: ('A' for Active; 'I' for Inactive)
REMARK    1  A    between atoms: C_2  and  C_3
REMARK    2  A    between atoms: C_3  and  N_4
REMARK    3  A    between atoms: N_7  and  C_8
REMARK    4  A    between atoms: N_17  and  C_18
REMARK                            x       y       z     vdW  Elec       q    Type
REMARK                         _______ _______ _______ _____ _____    ______ ____
ROOT
ATOM      1  N   UNL     1       7.458   6.254  17.160  0.00  0.00    +0.000 NA
ATOM      2  C   UNL     1       7.231   5.447  18.391  0.00  0.00    +0.000 C 
ATOM      3  C   UNL     1       5.759   5.330  18.860  0.00  0.00    +0.000 C 
ATOM      4  N   UNL     1       4.930   4.808  17.759  0.00  0.00    +0.000 N 
ATOM      5  C   UNL     1       5.054   5.552  16.494  0.00  0.00    +0.000 C 
ATOM      6  C   UNL     1       6.554   5.706  16.105  0.00  0.00    +0.000 C 
ENDROOT
BRANCH   4   7
ATOM      7  C   UNL     1       3.767   4.097  18.050  0.00  0.00    +0.000 A 
ATOM      8  C   UNL     1       3.823   2.696  18.177  0.00  0.00    +0.000 A 
ATOM      9  C   UNL     1       2.673   1.912  18.350  0.00  0.00    +0.000 A 
ATOM     10  C   UNL     1       1.423   2.513  18.408  0.00  0.00    +0.000 A 
ATOM     11  C   UNL     1       1.328   3.896  18.309  0.00  0.00    +0.000 A 
ATOM     12  C   UNL     1       2.481   4.669  18.135  0.00  0.00    +0.000 A 
ATOM     13  F   UNL     1       2.315   6.001  18.063  0.00  0.00    +0.000 F 
ENDBRANCH   4   7
BRANCH   1  14
ATOM     14  C   UNL     1       7.162   7.691  17.354  0.00  0.00    +0.000 C 
BRANCH  14  16
ATOM     15  O   UNL     1       8.826   7.822  19.065  0.00  0.00    +0.000 OA
ATOM     16  C   UNL     1       8.216   8.424  18.183  0.00  0.00    +0.000 C 
ATOM     17  N   UNL     1       8.348   9.781  17.925  0.00  0.00    +0.000 N 
ATOM     18  H   UNL     1       7.591  10.224  17.414  0.00  0.00    +0.000 HD
BRANCH  17  19
ATOM     19  C   UNL     1       9.325  10.590  18.548  0.00  0.00    +0.000 A 
ATOM     20  C   UNL     1      10.404  11.067  17.791  0.00  0.00    +0.000 A 
ATOM     21  C   UNL     1      11.338  11.932  18.371  0.00  0.00    +0.000 A 
ATOM     22  C   UNL     1      11.231  12.277  19.717  0.00  0.00    +0.000 A 
ATOM     23  C   UNL     1      10.196  11.753  20.477  0.00  0.00    +0.000 A 
ATOM     24  F   UNL     1      10.112  12.054  21.780  0.00  0.00    +0.000 F 
ATOM     25  C   UNL     1       9.241  10.923  19.903  0.00  0.00    +0.000 A 
ENDBRANCH  17  19
ENDBRANCH  14  16
ENDBRANCH   1  14
TORSDOF 4
ENDMDL
MODEL 2
REMARK VINA RESULT:      -8.4      1.387      1.909
REMARK  Name = 
REMARK  4 active torsions:
REMARK  status: ('A' for Active; 'I' for Inactive)
REMARK    1  A    between atoms: C_2  and  C_3
REMARK    2  A    between atoms: C_3  and  N_4
REMARK    3  A    between atoms: N_7  and  C_8
REMARK    4  A    between atoms: N_17  and  C_18
REMARK                            x       y       z     vdW  Elec       q    Type
REMARK                         _______ _______ _______ _____ _____    ______ ____
ROOT
ATOM      1  N   UNL     1       7.501   6.125  17.184  0.00  0.00    +0.000 NA
ATOM      2  C   UNL     1       7.272   5.356  18.439  0.00  0.00    +0.000 C 
ATOM      3  C   UNL     1       5.797   5.242  18.901  0.00  0.00    +0.000 C 
ATOM      4  N   UNL     1       4.982   4.676  17.811  0.00  0.00    +0.000 N 
ATOM      5  C   UNL     1       5.108   5.380  16.524  0.00  0.00    +0.000 C 
ATOM      6  C   UNL     1       6.610   5.535  16.141  0.00  0.00    +0.000 C 
ENDROOT
BRANCH   4   7
ATOM      7  C   UNL     1       3.822   3.965  18.116  0.00  0.00    +0.000 A 
ATOM      8  C   UNL     1       2.590   4.383  17.578  0.00  0.00    +0.000 A 
ATOM      9  C   UNL     1       1.373   3.786  17.938  0.00  0.00    +0.000 A 
ATOM     10  C   UNL     1       1.354   2.740  18.851  0.00  0.00    +0.000 A 
ATOM     11  C   UNL     1       2.552   2.284  19.388  0.00  0.00    +0.000 A 
ATOM     12  C   UNL     1       3.761   2.887  19.023  0.00  0.00    +0.000 A 
ATOM     13  F   UNL     1       4.881   2.384  19.570  0.00  0.00    +0.000 F 
ENDBRANCH   4   7
BRANCH   1  14
ATOM     14  C   UNL     1       7.191   7.565  17.329  0.00  0.00    +0.000 C 
BRANCH  14  16
ATOM     15  O   UNL     1       8.794   7.753  19.092  0.00  0.00    +0.000 OA
ATOM     16  C   UNL     1       8.212   8.327  18.173  0.00  0.00    +0.000 C 
ATOM     17  N   UNL     1       8.347   9.677  17.882  0.00  0.00    +0.000 N 
ATOM     18  H   UNL     1       7.606  10.101  17.333  0.00  0.00    +0.000 HD
BRANCH  17  19
ATOM     19  C   UNL     1       9.298  10.508  18.515  0.00  0.00    +0.000 A 
ATOM     20  C   UNL     1       9.268  10.647  19.909  0.00  0.00    +0.000 A 
ATOM     21  C   UNL     1      10.249  11.403  20.558  0.00  0.00    +0.000 A 
ATOM     22  C   UNL     1      11.226  12.068  19.819  0.00  0.00    +0.000 A 
ATOM     23  C   UNL     1      11.213  11.977  18.434  0.00  0.00    +0.000 A 
ATOM     24  F   UNL     1      12.129  12.644  17.718  0.00  0.00    +0.000 F 
ATOM     25  C   UNL     1      10.267  11.199  17.780  0.00  0.00    +0.000 A 
ENDBRANCH  17  19
ENDBRANCH  14  16
ENDBRANCH   1  14
TORSDOF 4
ENDMDL
MODEL 3
REMARK VINA RESULT:      -8.1      1.105      1.392
REMARK  Name = 
REMARK  4 active torsions:
REMARK  status: ('A' for Active; 'I' for Inactive)
REMARK    1  A    between atoms: C_2  and  C_3
REMARK    2  A    between atoms: C_3  and  N_4
REMARK    3  A    between atoms: N_7  and  C_8
REMARK    4  A    between atoms: N_17  and  C_18
REMARK                            x       y       z     vdW  Elec       q    Type
REMARK                         _______ _______ _______ _____ _____    ______ ____
ROOT
ATOM      1  N   UNL     1       7.059   6.223  17.292  0.00  0.00    +0.000 NA
ATOM      2  C   UNL     1       6.889   5.563  18.617  0.00  0.00    +0.000 C 
ATOM      3  C   UNL     1       5.473   5.653  19.240  0.00  0.00    +0.000 C 
ATOM      4  N   UNL     1       4.480   5.126  18.286  0.00  0.00    +0.000 N 
ATOM      5  C   UNL     1       4.538   5.732  16.945  0.00  0.00    +0.000 C 
ATOM      6  C   UNL     1       5.995   5.683  16.395  0.00  0.00    +0.000 C 
ENDROOT
BRANCH   4   7
ATOM      7  C   UNL     1       3.291   4.578  18.762  0.00  0.00    +0.000 A 
ATOM      8  C   UNL     1       2.620   5.200  19.833  0.00  0.00    +0.000 A 
ATOM      9  C   UNL     1       1.486   4.636  20.436  0.00  0.00    +0.000 A 
ATOM     10  C   UNL     1       0.982   3.428  19.977  0.00  0.00    +0.000 A 
ATOM     11  C   UNL     1       1.602   2.793  18.907  0.00  0.00    +0.000 A 
ATOM     12  C   UNL     1       2.734   3.362  18.314  0.00  0.00    +0.000 A 
ATOM     13  F   UNL     1       3.272   2.702  17.274  0.00  0.00    +0.000 F 
ENDBRANCH   4   7
BRANCH   1  14
ATOM     14  C   UNL     1       6.931   7.695  17.365  0.00  0.00    +0.000 C 
BRANCH  14  16
ATOM     15  O   UNL     1       8.753   7.706  18.913  0.00  0.00    +0.000 OA
ATOM     16  C   UNL     1       8.065   8.369  18.137  0.00  0.00    +0.000 C 
ATOM     17  N   UNL     1       8.182   9.740  17.963  0.00  0.00    +0.000 N 
ATOM     18  H   UNL     1       7.383  10.218  17.559  0.00  0.00    +0.000 HD
BRANCH  17  19
ATOM     19  C   UNL     1       9.221  10.503  18.542  0.00  0.00    +0.000 A 
ATOM     20  C   UNL     1      10.283  10.938  17.738  0.00  0.00    +0.000 A 
ATOM     21  C   UNL     1      11.279  11.759  18.277  0.00  0.00    +0.000 A 
ATOM     22  C   UNL     1      11.250  12.101  19.628  0.00  0.00    +0.000 A 
ATOM     23  C   UNL     1      10.229  11.617  20.433  0.00  0.00    +0.000 A 
ATOM     24  F   UNL     1      10.218  11.914  21.740  0.00  0.00    +0.000 F 
ATOM     25  C   UNL     1       9.214  10.832  19.902  0.00  0.00    +0.000 A 
ENDBRANCH  17  19
ENDBRANCH  14  16
ENDBRANCH   1  14
TORSDOF 4
ENDMDL
MODEL 4
REMARK VINA RESULT:      -8.1      1.122      1.486
REMARK  Name = 
REMARK  4 active torsions:
REMARK  status: ('A' for Active; 'I' for Inactive)
REMARK    1  A    between atoms: C_2  and  C_3
REMARK    2  A    between atoms: C_3  and  N_4
REMARK    3  A    between atoms: N_7  and  C_8
REMARK    4  A    between atoms: N_17  and  C_18
REMARK                            x       y       z     vdW  Elec       q    Type
REMARK                         _______ _______ _______ _____ _____    ______ ____
ROOT
ATOM      1  N   UNL     1       7.330   6.612  16.899  0.00  0.00    +0.000 NA
ATOM      2  C   UNL     1       7.307   5.635  18.024  0.00  0.00    +0.000 C 
ATOM      3  C   UNL     1       5.923   5.385  18.673  0.00  0.00    +0.000 C 
ATOM      4  N   UNL     1       4.958   4.978  17.635  0.00  0.00    +0.000 N 
ATOM      5  C   UNL     1       4.876   5.892  16.484  0.00  0.00    +0.000 C 
ATOM      6  C   UNL     1       6.299   6.170  15.915  0.00  0.00    +0.000 C 
ENDROOT
BRANCH   4   7
ATOM      7  C   UNL     1       3.869   4.180  17.982  0.00  0.00    +0.000 A 
ATOM      8  C   UNL     1       3.845   2.829  17.585  0.00  0.00    +0.000 A 
ATOM      9  C   UNL     1       2.730   2.005  17.797  0.00  0.00    +0.000 A 
ATOM     10  C   UNL     1       1.600   2.510  18.425  0.00  0.00    +0.000 A 
ATOM     11  C   UNL     1       1.593   3.833  18.852  0.00  0.00    +0.000 A 
ATOM     12  C   UNL     1       2.710   4.648  18.634  0.00  0.00    +0.000 A 
ATOM     13  F   UNL     1       2.639   5.910  19.088  0.00  0.00    +0.000 F 
ENDBRANCH   4   7
BRANCH   1  14
ATOM     14  C   UNL     1       7.025   7.993  17.334  0.00  0.00    +0.000 C 
BRANCH  14  16
ATOM     15  O   UNL     1       8.822   8.033  18.910  0.00  0.00    +0.000 OA
ATOM     16  C   UNL     1       8.178   8.668  18.077  0.00  0.00    +0.000 C 
ATOM     17  N   UNL     1       8.363  10.016  17.806  0.00  0.00    +0.000 N 
ATOM     18  H   UNL     1       7.594  10.500  17.355  0.00  0.00    +0.000 HD
BRANCH  17  19
ATOM     19  C   UNL     1       9.428  10.770  18.349  0.00  0.00    +0.000 A 
ATOM     20  C   UNL     1       9.532  10.908  19.739  0.00  0.00    +0.000 A 
ATOM     21  C   UNL     1      10.622  11.586  20.296  0.00  0.00    +0.000 A 
ATOM     22  C   UNL     1      11.578  12.174  19.469  0.00  0.00    +0.000 A 
ATOM     23  C   UNL     1      11.436  12.087  18.092  0.00  0.00    +0.000 A 
ATOM     24  F   UNL     1      12.333  12.682  17.294  0.00  0.00    +0.000 F 
ATOM     25  C   UNL     1      10.379  11.385  17.528  0.00  0.00    +0.000 A 
ENDBRANCH  17  19
ENDBRANCH  14  16
ENDBRANCH   1  14
TORSDOF 4
ENDMDL
MODEL 5
REMARK VINA RESULT:      -8.0      1.734      2.126
REMARK  Name = 
REMARK  4 active torsions:
REMARK  status: ('A' for Active; 'I' for Inactive)
REMARK    1  A    between atoms: C_2  and  C_3
REMARK    2  A    between atoms: C_3  and  N_4
REMARK    3  A    between atoms: N_7  and  C_8
REMARK    4  A    between atoms: N_17  and  C_18
REMARK                            x       y       z     vdW  Elec       q    Type
REMARK                         _______ _______ _______ _____ _____    ______ ____
ROOT
ATOM      1  N   UNL     1       7.217   6.118  17.265  0.00  0.00    +0.000 NA
ATOM      2  C   UNL     1       6.885   4.686  17.509  0.00  0.00    +0.000 C 
ATOM      3  C   UNL     1       5.814   4.418  18.595  0.00  0.00    +0.000 C 
ATOM      4  N   UNL     1       4.587   5.170  18.275  0.00  0.00    +0.000 N 
ATOM      5  C   UNL     1       4.795   6.609  18.043  0.00  0.00    +0.000 C 
ATOM      6  C   UNL     1       5.931   6.827  17.000  0.00  0.00    +0.000 C 
ENDROOT
BRANCH   4   7
ATOM      7  C   UNL     1       3.353   4.697  18.720  0.00  0.00    +0.000 A 
ATOM      8  C   UNL     1       2.926   4.997  20.027  0.00  0.00    +0.000 A 
ATOM      9  C   UNL     1       1.754   4.456  20.576  0.00  0.00    +0.000 A 
ATOM     10  C   UNL     1       0.965   3.597  19.824  0.00  0.00    +0.000 A 
ATOM     11  C   UNL     1       1.342   3.294  18.520  0.00  0.00    +0.000 A 
ATOM     12  C   UNL     1       2.513   3.838  17.983  0.00  0.00    +0.000 A 
ATOM     13  F   UNL     1       2.806   3.514  16.712  0.00  0.00    +0.000 F 
ENDBRANCH   4   7
BRANCH   1  14
ATOM     14  C   UNL     1       7.892   6.754  18.418  0.00  0.00    +0.000 C 
BRANCH  14  16
ATOM     15  O   UNL     1       7.678   8.828  17.249  0.00  0.00    +0.000 OA
ATOM     16  C   UNL     1       8.149   8.249  18.227  0.00  0.00    +0.000 C 
ATOM     17  N   UNL     1       8.992   8.839  19.157  0.00  0.00    +0.000 N 
ATOM     18  H   UNL     1       9.560   8.214  19.719  0.00  0.00    +0.000 HD
BRANCH  17  19
ATOM     19  C   UNL     1       9.272  10.224  19.169  0.00  0.00    +0.000 A 
ATOM     20  C   UNL     1       9.236  10.920  20.385  0.00  0.00    +0.000 A 
ATOM     21  C   UNL     1       9.586  12.274  20.428  0.00  0.00    +0.000 A 
ATOM     22  C   UNL     1       9.918  12.949  19.255  0.00  0.00    +0.000 A 
ATOM     23  C   UNL     1       9.893  12.269  18.045  0.00  0.00    +0.000 A 
ATOM     24  F   UNL     1      10.176  12.925  16.911  0.00  0.00    +0.000 F 
ATOM     25  C   UNL     1       9.583  10.917  17.995  0.00  0.00    +0.000 A 
ENDBRANCH  17  19
ENDBRANCH  14  16
ENDBRANCH   1  14
TORSDOF 4
ENDMDL
MODEL 6
REMARK VINA RESULT:      -8.0      1.472      1.707
REMARK  Name = 
REMARK  4 active torsions:
REMARK  status: ('A' for Active; 'I' for Inactive)
REMARK    1  A    between atoms: C_2  and  C_3
REMARK    2  A    between atoms: C_3  and  N_4
REMARK    3  A    between atoms: N_7  and  C_8
REMARK    4  A    between atoms: N_17  and  C_18
REMARK                            x       y       z     vdW  Elec       q    Type
REMARK                         _______ _______ _______ _____ _____    ______ ____
ROOT
ATOM      1  N   UNL     1       6.834   5.996  17.126  0.00  0.00    +0.000 NA
ATOM      2  C   UNL     1       6.532   4.546  17.280  0.00  0.00    +0.000 C 
ATOM      3  C   UNL     1       5.555   4.177  18.424  0.00  0.00    +0.000 C 
ATOM      4  N   UNL     1       4.301   4.936  18.266  0.00  0.00    +0.000 N 
ATOM      5  C   UNL     1       4.480   6.392  18.135  0.00  0.00    +0.000 C 
ATOM      6  C   UNL     1       5.526   6.707  17.024  0.00  0.00    +0.000 C 
ENDROOT
BRANCH   4   7
ATOM      7  C   UNL     1       3.111   4.414  18.770  0.00  0.00    +0.000 A 
ATOM      8  C   UNL     1       2.718   4.726  20.085  0.00  0.00    +0.000 A 
ATOM      9  C   UNL     1       1.597   4.140  20.692  0.00  0.00    +0.000 A 
ATOM     10  C   UNL     1       0.826   3.223  19.992  0.00  0.00    +0.000 A 
ATOM     11  C   UNL     1       1.169   2.905  18.682  0.00  0.00    +0.000 A 
ATOM     12  C   UNL     1       2.289   3.493  18.087  0.00  0.00    +0.000 A 
ATOM     13  F   UNL     1       2.551   3.152  16.814  0.00  0.00    +0.000 F 
ENDBRANCH   4   7
BRANCH   1  14
ATOM     14  C   UNL     1       7.597   6.547  18.269  0.00  0.00    +0.000 C 
BRANCH  14  16
ATOM     15  O   UNL     1       7.898   8.525  16.961  0.00  0.00    +0.000 OA
ATOM     16  C   UNL     1       8.059   7.988  18.056  0.00  0.00    +0.000 C 
ATOM     17  N   UNL     1       8.725   8.572  19.124  0.00  0.00    +0.000 N 
ATOM     18  H   UNL     1       9.072   7.945  19.843  0.00  0.00    +0.000 HD
BRANCH  17  19
ATOM     19  C   UNL     1       9.151   9.919  19.121  0.00  0.00    +0.000 A 
ATOM     20  C   UNL     1       9.157  10.633  17.916  0.00  0.00    +0.000 A 
ATOM     21  C   UNL     1       9.502  11.989  17.907  0.00  0.00    +0.000 A 
ATOM     22  C   UNL     1       9.893  12.620  19.087  0.00  0.00    +0.000 A 
ATOM     23  C   UNL     1       9.943  11.891  20.267  0.00  0.00    +0.000 A 
ATOM     24  F   UNL     1      10.354  12.486  21.396  0.00  0.00    +0.000 F 
ATOM     25  C   UNL     1       9.568  10.555  20.295  0.00  0.00    +0.000 A 
ENDBRANCH  17  19
ENDBRANCH  14  16
ENDBRANCH   1  14
TORSDOF 4
ENDMDL
MODEL 7
REMARK VINA RESULT:      -7.9      1.727      2.157
REMARK  Name = 
REMARK  4 active torsions:
REMARK  status: ('A' for Active; 'I' for Inactive)
REMARK    1  A    between atoms: C_2  and  C_3
REMARK    2  A    between atoms: C_3  and  N_4
REMARK    3  A    between atoms: N_7  and  C_8
REMARK    4  A    between atoms: N_17  and  C_18
REMARK                            x       y       z     vdW  Elec       q    Type
REMARK                         _______ _______ _______ _____ _____    ______ ____
ROOT
ATOM      1  N   UNL     1       7.002   6.518  16.884  0.00  0.00    +0.000 NA
ATOM      2  C   UNL     1       6.962   5.033  16.776  0.00  0.00    +0.000 C 
ATOM      3  C   UNL     1       6.108   4.301  17.842  0.00  0.00    +0.000 C 
ATOM      4  N   UNL     1       4.737   4.842  17.832  0.00  0.00    +0.000 N 
ATOM      5  C   UNL     1       4.656   6.306  17.964  0.00  0.00    +0.000 C 
ATOM      6  C   UNL     1       5.587   6.992  16.921  0.00  0.00    +0.000 C 
ENDROOT
BRANCH   4   7
ATOM      7  C   UNL     1       3.675   4.036  18.242  0.00  0.00    +0.000 A 
ATOM      8  C   UNL     1       2.418   4.179  17.625  0.00  0.00    +0.000 A 
ATOM      9  C   UNL     1       1.282   3.486  18.069  0.00  0.00    +0.000 A 
ATOM     10  C   UNL     1       1.374   2.617  19.147  0.00  0.00    +0.000 A 
ATOM     11  C   UNL     1       2.603   2.431  19.769  0.00  0.00    +0.000 A 
ATOM     12  C   UNL     1       3.730   3.129  19.320  0.00  0.00    +0.000 A 
ATOM     13  F   UNL     1       4.888   2.888  19.957  0.00  0.00    +0.000 F 
ENDBRANCH   4   7
BRANCH   1  14
ATOM     14  C   UNL     1       7.702   6.985  18.102  0.00  0.00    +0.000 C 
BRANCH  14  16
ATOM     15  O   UNL     1       7.639   9.180  17.157  0.00  0.00    +0.000 OA
ATOM     16  C   UNL     1       8.069   8.468  18.063  0.00  0.00    +0.000 C 
ATOM     17  N   UNL     1       8.960   8.894  19.037  0.00  0.00    +0.000 N 
ATOM     18  H   UNL     1       9.483   8.173  19.524  0.00  0.00    +0.000 HD
BRANCH  17  19
ATOM     19  C   UNL     1       9.345  10.245  19.190  0.00  0.00    +0.000 A 
ATOM     20  C   UNL     1       9.330  10.822  20.467  0.00  0.00    +0.000 A 
ATOM     21  C   UNL     1       9.781  12.133  20.648  0.00  0.00    +0.000 A 
ATOM     22  C   UNL     1      10.193  12.890  19.552  0.00  0.00    +0.000 A 
ATOM     23  C   UNL     1      10.148  12.333  18.282  0.00  0.00    +0.000 A 
ATOM     24  F   UNL     1      10.509  13.070  17.223  0.00  0.00    +0.000 F 
ATOM     25  C   UNL     1       9.737  11.020  18.094  0.00  0.00    +0.000 A 
ENDBRANCH  17  19
ENDBRANCH  14  16
ENDBRANCH   1  14
TORSDOF 4
ENDMDL
MODEL 8
REMARK VINA RESULT:      -7.7      1.070      1.155
REMARK  Name = 
REMARK  4 active torsions:
REMARK  status: ('A' for Active; 'I' for Inactive)
REMARK    1  A    between atoms: C_2  and  C_3
REMARK    2  A    between atoms: C_3  and  N_4
REMARK    3  A    between atoms: N_7  and  C_8
REMARK    4  A    between atoms: N_17  and  C_18
REMARK                            x       y       z     vdW  Elec       q    Type
REMARK                         _______ _______ _______ _____ _____    ______ ____
ROOT
ATOM      1  N   UNL     1       6.905   6.861  16.813  0.00  0.00    +0.000 NA
ATOM      2  C   UNL     1       6.903   5.402  16.511  0.00  0.00    +0.000 C 
ATOM      3  C   UNL     1       6.135   4.507  17.516  0.00  0.00    +0.000 C 
ATOM      4  N   UNL     1       4.750   4.993  17.652  0.00  0.00    +0.000 N 
ATOM      5  C   UNL     1       4.633   6.423  17.981  0.00  0.00    +0.000 C 
ATOM      6  C   UNL     1       5.482   7.274  16.989  0.00  0.00    +0.000 C 
ENDROOT
BRANCH   4   7
ATOM      7  C   UNL     1       3.739   4.102  18.008  0.00  0.00    +0.000 A 
ATOM      8  C   UNL     1       4.069   2.771  18.331  0.00  0.00    +0.000 A 
ATOM      9  C   UNL     1       3.092   1.796  18.581  0.00  0.00    +0.000 A 
ATOM     10  C   UNL     1       1.745   2.128  18.522  0.00  0.00    +0.000 A 
ATOM     11  C   UNL     1       1.379   3.437  18.229  0.00  0.00    +0.000 A 
ATOM     12  C   UNL     1       2.362   4.402  17.979  0.00  0.00    +0.000 A 
ATOM     13  F   UNL     1       1.936   5.649  17.718  0.00  0.00    +0.000 F 
ENDBRANCH   4   7
BRANCH   1  14
ATOM     14  C   UNL     1       7.661   7.191  18.042  0.00  0.00    +0.000 C 
BRANCH  14  16
ATOM     15  O   UNL     1       7.568   9.480  17.360  0.00  0.00    +0.000 OA
ATOM     16  C   UNL     1       8.061   8.663  18.136  0.00  0.00    +0.000 C 
ATOM     17  N   UNL     1       9.047   8.961  19.065  0.00  0.00    +0.000 N 
ATOM     18  H   UNL     1       9.593   8.182  19.417  0.00  0.00    +0.000 HD
BRANCH  17  19
ATOM     19  C   UNL     1       9.479  10.280  19.332  0.00  0.00    +0.000 A 
ATOM     20  C   UNL     1      10.052  11.036  18.300  0.00  0.00    +0.000 A 
ATOM     21  C   UNL     1      10.414  12.368  18.526  0.00  0.00    +0.000 A 
ATOM     22  C   UNL     1      10.257  12.932  19.791  0.00  0.00    +0.000 A 
ATOM     23  C   UNL     1       9.745  12.160  20.824  0.00  0.00    +0.000 A 
ATOM     24  F   UNL     1       9.627  12.688  22.050  0.00  0.00    +0.000 F 
ATOM     25  C   UNL     1       9.348  10.848  20.603  0.00  0.00    +0.000 A 
ENDBRANCH  17  19
ENDBRANCH  14  16
ENDBRANCH   1  14
TORSDOF 4
ENDMDL
MODEL 9
REMARK VINA RESULT:      -7.7      1.463      1.731
REMARK  Name = 
REMARK  4 active torsions:
REMARK  status: ('A' for Active; 'I' for Inactive)
REMARK    1  A    between atoms: C_2  and  C_3
REMARK    2  A    between atoms: C_3  and  N_4
REMARK    3  A    between atoms: N_7  and  C_8
REMARK    4  A    between atoms: N_17  and  C_18
REMARK                            x       y       z     vdW  Elec       q    Type
REMARK                         _______ _______ _______ _____ _____    ______ ____
ROOT
ATOM      1  N   UNL     1       6.760   6.676  16.767  0.00  0.00    +0.000 NA
ATOM      2  C   UNL     1       6.697   5.210  16.508  0.00  0.00    +0.000 C 
ATOM      3  C   UNL     1       5.970   4.365  17.585  0.00  0.00    +0.000 C 
ATOM      4  N   UNL     1       4.611   4.897  17.794  0.00  0.00    +0.000 N 
ATOM      5  C   UNL     1       4.556   6.339  18.088  0.00  0.00    +0.000 C 
ATOM      6  C   UNL     1       5.363   7.136  17.021  0.00  0.00    +0.000 C 
ENDROOT
BRANCH   4   7
ATOM      7  C   UNL     1       3.600   4.046  18.239  0.00  0.00    +0.000 A 
ATOM      8  C   UNL     1       2.328   4.107  17.638  0.00  0.00    +0.000 A 
ATOM      9  C   UNL     1       1.237   3.366  18.116  0.00  0.00    +0.000 A 
ATOM     10  C   UNL     1       1.390   2.531  19.214  0.00  0.00    +0.000 A 
ATOM     11  C   UNL     1       2.636   2.426  19.821  0.00  0.00    +0.000 A 
ATOM     12  C   UNL     1       3.717   3.171  19.338  0.00  0.00    +0.000 A 
ATOM     13  F   UNL     1       4.895   3.008  19.964  0.00  0.00    +0.000 F 
ENDBRANCH   4   7
BRANCH   1  14
ATOM     14  C   UNL     1       7.602   7.015  17.936  0.00  0.00    +0.000 C 
BRANCH  14  16
ATOM     15  O   UNL     1       7.528   9.281  17.175  0.00  0.00    +0.000 OA
ATOM     16  C   UNL     1       7.985   8.494  18.003  0.00  0.00    +0.000 C 
ATOM     17  N   UNL     1       8.917   8.832  18.972  0.00  0.00    +0.000 N 
ATOM     18  H   UNL     1       9.450   8.069  19.378  0.00  0.00    +0.000 HD
BRANCH  17  19
ATOM     19  C   UNL     1       9.323  10.163  19.219  0.00  0.00    +0.000 A 
ATOM     20  C   UNL     1       9.720  10.969  18.143  0.00  0.00    +0.000 A 
ATOM     21  C   UNL     1      10.050  12.311  18.358  0.00  0.00    +0.000 A 
ATOM     22  C   UNL     1      10.041  12.836  19.649  0.00  0.00    +0.000 A 
ATOM     23  C   UNL     1       9.707  12.016  20.718  0.00  0.00    +0.000 A 
ATOM     24  F   UNL     1       9.732  12.509  21.964  0.00  0.00    +0.000 F 
ATOM     25  C   UNL     1       9.341  10.693  20.513  0.00  0.00    +0.000 A 
ENDBRANCH  17  19
ENDBRANCH  14  16
ENDBRANCH   1  14
TORSDOF 4
ENDMDL
