MODEL 1
REMARK VINA RESULT:      -8.4      0.000      0.000
REMARK  Name = 
REMARK  5 active torsions:
REMARK  status: ('A' for Active; 'I' for Inactive)
REMARK    1  A    between atoms: C_1  and  O_2
REMARK    2  A    between atoms: O_2  and  C_3
REMARK    3  A    between atoms: C_6  and  C_7
REMARK    4  A    between atoms: C_14  and  O_15
REMARK    5  A    between atoms: O_15  and  C_16
REMARK                            x       y       z     vdW  Elec       q    Type
REMARK                         _______ _______ _______ _____ _____    ______ ____
ROOT
ATOM      1  C   UNL     1       6.916   5.498  18.681  0.00  0.00    +0.000 A 
ATOM      2  C   UNL     1       7.499   6.344  17.757  0.00  0.00    +0.000 A 
ATOM      3  N   UNL     1       7.466   6.169  16.414  0.00  0.00    +0.000 NA
ATOM      4  C   UNL     1       6.755   5.111  15.971  0.00  0.00    +0.000 A 
ATOM      5  N   UNL     1       6.078   4.288  16.784  0.00  0.00    +0.000 NA
ATOM      6  C   UNL     1       6.205   4.460  18.116  0.00  0.00    +0.000 A 
ENDROOT
BRANCH   4   7
ATOM      7  C   UNL     1       6.816   4.745  14.533  0.00  0.00    +0.000 A 
ATOM      8  C   UNL     1       5.971   3.788  13.970  0.00  0.00    +0.000 A 
ATOM      9  C   UNL     1       6.046   3.526  12.602  0.00  0.00    +0.000 A 
ATOM     10  C   UNL     1       6.960   4.220  11.820  0.00  0.00    +0.000 A 
ATOM     11  C   UNL     1       7.764   5.157  12.439  0.00  0.00    +0.000 A 
ATOM     12  N   UNL     1       7.710   5.431  13.759  0.00  0.00    +0.000 NA
ENDBRANCH   4   7
BRANCH   1  14
ATOM     13  C   UNL     1       8.365   5.375  20.549  0.00  0.00    +0.000 C 
ATOM     14  O   UNL     1       7.124   5.797  19.992  0.00  0.00    +0.000 OA
ENDBRANCH   1  14
BRANCH   6  15
ATOM     15  O   UNL     1       5.589   3.519  18.928  0.00  0.00    +0.000 OA
BRANCH  15  16
ATOM     16  C   UNL     1       4.252   3.709  19.213  0.00  0.00    +0.000 A 
ATOM     17  C   UNL     1       3.733   4.923  19.683  0.00  0.00    +0.000 A 
ATOM     18  C   UNL     1       2.384   5.024  20.021  0.00  0.00    +0.000 A 
ATOM     19  C   UNL     1       1.551   3.926  19.833  0.00  0.00    +0.000 A 
ATOM     20  F   UNL     1       0.260   4.020  20.172  0.00  0.00    +0.000 F 
ATOM     21  C   UNL     1       2.034   2.740  19.295  0.00  0.00    +0.000 A 
ATOM     22  C   UNL     1       3.385   2.639  18.986  0.00  0.00    +0.000 A 
ATOM     23  F   UNL     1       3.850   1.493  18.468  0.00  0.00    +0.000 F 
ENDBRANCH  15  16
ENDBRANCH   6  15
TORSDOF 4
ENDMDL
MODEL 2
REMARK VINA RESULT:      -8.3      1.058      1.503
REMARK  Name = 
REMARK  5 active torsions:
REMARK  status: ('A' for Active; 'I' for Inactive)
REMARK    1  A    between atoms: C_1  and  O_2
REMARK    2  A    between atoms: O_2  and  C_3
REMARK    3  A    between atoms: C_6  and  C_7
REMARK    4  A    between atoms: C_14  and  O_15
REMARK    5  A    between atoms: O_15  and  C_16
REMARK                            x       y       z     vdW  Elec       q    Type
REMARK                         _______ _______ _______ _____ _____    ______ ____
ROOT
ATOM      1  C   UNL     1       6.943   5.503  18.693  0.00  0.00    +0.000 A 
ATOM      2  C   UNL     1       7.516   6.349  17.763  0.00  0.00    +0.000 A 
ATOM      3  N   UNL     1       7.472   6.171  16.421  0.00  0.00    +0.000 NA
ATOM      4  C   UNL     1       6.762   5.111  15.986  0.00  0.00    +0.000 A 
ATOM      5  N   UNL     1       6.095   4.286  16.805  0.00  0.00    +0.000 NA
ATOM      6  C   UNL     1       6.232   4.461  18.136  0.00  0.00    +0.000 A 
ENDROOT
BRANCH   4   7
ATOM      7  C   UNL     1       6.813   4.742  14.548  0.00  0.00    +0.000 A 
ATOM      8  C   UNL     1       5.942   3.808  13.985  0.00  0.00    +0.000 A 
ATOM      9  C   UNL     1       6.011   3.542  12.618  0.00  0.00    +0.000 A 
ATOM     10  C   UNL     1       6.943   4.212  11.835  0.00  0.00    +0.000 A 
ATOM     11  C   UNL     1       7.772   5.127  12.454  0.00  0.00    +0.000 A 
ATOM     12  N   UNL     1       7.725   5.403  13.773  0.00  0.00    +0.000 NA
ENDBRANCH   4   7
BRANCH   1  14
ATOM     13  C   UNL     1       8.423   5.423  20.540  0.00  0.00    +0.000 C 
ATOM     14  O   UNL     1       7.161   5.805  20.003  0.00  0.00    +0.000 OA
ENDBRANCH   1  14
BRANCH   6  15
ATOM     15  O   UNL     1       5.626   3.518  18.955  0.00  0.00    +0.000 OA
BRANCH  15  16
ATOM     16  C   UNL     1       4.270   3.323  18.795  0.00  0.00    +0.000 A 
ATOM     17  C   UNL     1       3.727   2.208  18.140  0.00  0.00    +0.000 A 
ATOM     18  C   UNL     1       2.349   2.111  17.950  0.00  0.00    +0.000 A 
ATOM     19  C   UNL     1       1.519   3.100  18.465  0.00  0.00    +0.000 A 
ATOM     20  F   UNL     1       0.198   3.011  18.269  0.00  0.00    +0.000 F 
ATOM     21  C   UNL     1       2.035   4.171  19.184  0.00  0.00    +0.000 A 
ATOM     22  C   UNL     1       3.411   4.274  19.346  0.00  0.00    +0.000 A 
ATOM     23  F   UNL     1       3.908   5.310  20.039  0.00  0.00    +0.000 F 
ENDBRANCH  15  16
ENDBRANCH   6  15
TORSDOF 4
ENDMDL
MODEL 3
REMARK VINA RESULT:      -8.1      1.390      1.889
REMARK  Name = 
REMARK  5 active torsions:
REMARK  status: ('A' for Active; 'I' for Inactive)
REMARK    1  A    between atoms: C_1  and  O_2
REMARK    2  A    between atoms: O_2  and  C_3
REMARK    3  A    between atoms: C_6  and  C_7
REMARK    4  A    between atoms: C_14  and  O_15
REMARK    5  A    between atoms: O_15  and  C_16
REMARK                            x       y       z     vdW  Elec       q    Type
REMARK                         _______ _______ _______ _____ _____    ______ ____
ROOT
ATOM      1  C   UNL     1       6.539   5.216  18.404  0.00  0.00    +0.000 A 
ATOM      2  C   UNL     1       7.689   4.761  17.788  0.00  0.00    +0.000 A 
ATOM      3  N   UNL     1       7.833   4.569  16.455  0.00  0.00    +0.000 NA
ATOM      4  C   UNL     1       6.775   4.909  15.690  0.00  0.00    +0.000 A 
ATOM      5  N   UNL     1       5.651   5.445  16.186  0.00  0.00    +0.000 NA
ATOM      6  C   UNL     1       5.529   5.545  17.525  0.00  0.00    +0.000 A 
ENDROOT
BRANCH   4   7
ATOM      7  C   UNL     1       6.781   4.564  14.245  0.00  0.00    +0.000 A 
ATOM      8  C   UNL     1       5.922   3.608  13.702  0.00  0.00    +0.000 A 
ATOM      9  C   UNL     1       5.945   3.366  12.329  0.00  0.00    +0.000 A 
ATOM     10  C   UNL     1       6.821   4.080  11.521  0.00  0.00    +0.000 A 
ATOM     11  C   UNL     1       7.641   5.015  12.122  0.00  0.00    +0.000 A 
ATOM     12  N   UNL     1       7.638   5.269  13.446  0.00  0.00    +0.000 NA
ENDBRANCH   4   7
BRANCH   1  14
ATOM     13  C   UNL     1       7.835   5.466  20.370  0.00  0.00    +0.000 C 
ATOM     14  O   UNL     1       6.561   5.270  19.764  0.00  0.00    +0.000 OA
ENDBRANCH   1  14
BRANCH   6  15
ATOM     15  O   UNL     1       4.307   5.991  18.009  0.00  0.00    +0.000 OA
BRANCH  15  16
ATOM     16  C   UNL     1       3.342   5.037  18.261  0.00  0.00    +0.000 A 
ATOM     17  C   UNL     1       3.177   3.887  17.476  0.00  0.00    +0.000 A 
ATOM     18  C   UNL     1       2.133   3.001  17.744  0.00  0.00    +0.000 A 
ATOM     19  C   UNL     1       1.297   3.242  18.828  0.00  0.00    +0.000 A 
ATOM     20  F   UNL     1       0.287   2.399  19.074  0.00  0.00    +0.000 F 
ATOM     21  C   UNL     1       1.495   4.336  19.662  0.00  0.00    +0.000 A 
ATOM     22  C   UNL     1       2.521   5.228  19.372  0.00  0.00    +0.000 A 
ATOM     23  F   UNL     1       2.710   6.284  20.177  0.00  0.00    +0.000 F 
ENDBRANCH  15  16
ENDBRANCH   6  15
TORSDOF 4
ENDMDL
MODEL 4
REMARK VINA RESULT:      -8.1      2.890      5.224
REMARK  Name = 
REMARK  5 active torsions:
REMARK  status: ('A' for Active; 'I' for Inactive)
REMARK    1  A    between atoms: C_1  and  O_2
REMARK    2  A    between atoms: O_2  and  C_3
REMARK    3  A    between atoms: C_6  and  C_7
REMARK    4  A    between atoms: C_14  and  O_15
REMARK    5  A    between atoms: O_15  and  C_16
REMARK                            x       y       z     vdW  Elec       q    Type
REMARK                         _______ _______ _______ _____ _____    ______ ____
ROOT
ATOM      1  C   UNL     1       5.011   4.609  16.402  0.00  0.00    +0.000 A 
ATOM      2  C   UNL     1       5.233   5.950  16.152  0.00  0.00    +0.000 A 
ATOM      3  N   UNL     1       4.558   6.971  16.731  0.00  0.00    +0.000 NA
ATOM      4  C   UNL     1       3.642   6.625  17.660  0.00  0.00    +0.000 A 
ATOM      5  N   UNL     1       3.420   5.358  18.037  0.00  0.00    +0.000 NA
ATOM      6  C   UNL     1       4.064   4.374  17.377  0.00  0.00    +0.000 A 
ENDROOT
BRANCH   4   7
ATOM      7  C   UNL     1       2.735   7.665  18.210  0.00  0.00    +0.000 A 
ATOM      8  C   UNL     1       2.198   7.583  19.495  0.00  0.00    +0.000 A 
ATOM      9  C   UNL     1       1.392   8.618  19.969  0.00  0.00    +0.000 A 
ATOM     10  C   UNL     1       1.136   9.715  19.156  0.00  0.00    +0.000 A 
ATOM     11  C   UNL     1       1.702   9.735  17.897  0.00  0.00    +0.000 A 
ATOM     12  N   UNL     1       2.486   8.750  17.415  0.00  0.00    +0.000 NA
ENDBRANCH   4   7
BRANCH   1  14
ATOM     13  C   UNL     1       6.274   4.217  14.438  0.00  0.00    +0.000 C 
ATOM     14  O   UNL     1       5.737   3.727  15.663  0.00  0.00    +0.000 OA
ENDBRANCH   1  14
BRANCH   6  15
ATOM     15  O   UNL     1       3.721   3.071  17.710  0.00  0.00    +0.000 OA
BRANCH  15  16
ATOM     16  C   UNL     1       2.943   2.891  18.835  0.00  0.00    +0.000 A 
ATOM     17  C   UNL     1       1.541   2.888  18.805  0.00  0.00    +0.000 A 
ATOM     18  C   UNL     1       0.817   2.775  19.992  0.00  0.00    +0.000 A 
ATOM     19  C   UNL     1       1.498   2.609  21.193  0.00  0.00    +0.000 A 
ATOM     20  F   UNL     1       0.801   2.515  22.331  0.00  0.00    +0.000 F 
ATOM     21  C   UNL     1       2.885   2.532  21.229  0.00  0.00    +0.000 A 
ATOM     22  C   UNL     1       3.600   2.673  20.046  0.00  0.00    +0.000 A 
ATOM     23  F   UNL     1       4.939   2.600  20.083  0.00  0.00    +0.000 F 
ENDBRANCH  15  16
ENDBRANCH   6  15
TORSDOF 4
ENDMDL
MODEL 5
REMARK VINA RESULT:      -8.1      3.039      5.398
REMARK  Name = 
REMARK  5 active torsions:
REMARK  status: ('A' for Active; 'I' for Inactive)
REMARK    1  A    between atoms: C_1  and  O_2
REMARK    2  A    between atoms: O_2  and  C_3
REMARK    3  A    between atoms: C_6  and  C_7
REMARK    4  A    between atoms: C_14  and  O_15
REMARK    5  A    between atoms: O_15  and  C_16
REMARK                            x       y       z     vdW  Elec       q    Type
REMARK                         _______ _______ _______ _____ _____    ______ ____
ROOT
ATOM      1  C   UNL     1       4.887   4.861  16.498  0.00  0.00    +0.000 A 
ATOM      2  C   UNL     1       5.123   6.211  16.318  0.00  0.00    +0.000 A 
ATOM      3  N   UNL     1       4.444   7.207  16.935  0.00  0.00    +0.000 NA
ATOM      4  C   UNL     1       3.511   6.824  17.830  0.00  0.00    +0.000 A 
ATOM      5  N   UNL     1       3.274   5.542  18.142  0.00  0.00    +0.000 NA
ATOM      6  C   UNL     1       3.923   4.586  17.445  0.00  0.00    +0.000 A 
ENDROOT
BRANCH   4   7
ATOM      7  C   UNL     1       2.602   7.842  18.416  0.00  0.00    +0.000 A 
ATOM      8  C   UNL     1       2.130   8.932  17.683  0.00  0.00    +0.000 A 
ATOM      9  C   UNL     1       1.240   9.825  18.278  0.00  0.00    +0.000 A 
ATOM     10  C   UNL     1       0.835   9.617  19.591  0.00  0.00    +0.000 A 
ATOM     11  C   UNL     1       1.336   8.517  20.258  0.00  0.00    +0.000 A 
ATOM     12  N   UNL     1       2.196   7.637  19.706  0.00  0.00    +0.000 NA
ENDBRANCH   4   7
BRANCH   1  14
ATOM     13  C   UNL     1       6.697   4.586  14.998  0.00  0.00    +0.000 C 
ATOM     14  O   UNL     1       5.619   4.010  15.729  0.00  0.00    +0.000 OA
ENDBRANCH   1  14
BRANCH   6  15
ATOM     15  O   UNL     1       3.566   3.271  17.708  0.00  0.00    +0.000 OA
BRANCH  15  16
ATOM     16  C   UNL     1       2.828   3.034  18.850  0.00  0.00    +0.000 A 
ATOM     17  C   UNL     1       1.426   3.017  18.867  0.00  0.00    +0.000 A 
ATOM     18  C   UNL     1       0.743   2.844  20.071  0.00  0.00    +0.000 A 
ATOM     19  C   UNL     1       1.466   2.634  21.240  0.00  0.00    +0.000 A 
ATOM     20  F   UNL     1       0.809   2.484  22.397  0.00  0.00    +0.000 F 
ATOM     21  C   UNL     1       2.854   2.571  21.227  0.00  0.00    +0.000 A 
ATOM     22  C   UNL     1       3.527   2.771  20.028  0.00  0.00    +0.000 A 
ATOM     23  F   UNL     1       4.868   2.712  20.017  0.00  0.00    +0.000 F 
ENDBRANCH  15  16
ENDBRANCH   6  15
TORSDOF 4
ENDMDL
MODEL 6
REMARK VINA RESULT:      -7.9      2.971      5.269
REMARK  Name = 
REMARK  5 active torsions:
REMARK  status: ('A' for Active; 'I' for Inactive)
REMARK    1  A    between atoms: C_1  and  O_2
REMARK    2  A    between atoms: O_2  and  C_3
REMARK    3  A    between atoms: C_6  and  C_7
REMARK    4  A    between atoms: C_14  and  O_15
REMARK    5  A    between atoms: O_15  and  C_16
REMARK                            x       y       z     vdW  Elec       q    Type
REMARK                         _______ _______ _______ _____ _____    ______ ____
ROOT
ATOM      1  C   UNL     1       4.973   4.714  16.551  0.00  0.00    +0.000 A 
ATOM      2  C   UNL     1       5.207   6.050  16.287  0.00  0.00    +0.000 A 
ATOM      3  N   UNL     1       4.523   7.081  16.835  0.00  0.00    +0.000 NA
ATOM      4  C   UNL     1       3.584   6.753  17.747  0.00  0.00    +0.000 A 
ATOM      5  N   UNL     1       3.348   5.492  18.137  0.00  0.00    +0.000 NA
ATOM      6  C   UNL     1       4.002   4.496  17.506  0.00  0.00    +0.000 A 
ENDROOT
BRANCH   4   7
ATOM      7  C   UNL     1       2.669   7.804  18.261  0.00  0.00    +0.000 A 
ATOM      8  C   UNL     1       2.101   7.743  19.534  0.00  0.00    +0.000 A 
ATOM      9  C   UNL     1       1.289   8.788  19.974  0.00  0.00    +0.000 A 
ATOM     10  C   UNL     1       1.058   9.874  19.140  0.00  0.00    +0.000 A 
ATOM     11  C   UNL     1       1.653   9.875  17.894  0.00  0.00    +0.000 A 
ATOM     12  N   UNL     1       2.444   8.879  17.445  0.00  0.00    +0.000 NA
ENDBRANCH   4   7
BRANCH   1  14
ATOM     13  C   UNL     1       6.592   4.357  14.861  0.00  0.00    +0.000 C 
ATOM     14  O   UNL     1       5.712   3.817  15.841  0.00  0.00    +0.000 OA
ENDBRANCH   1  14
BRANCH   6  15
ATOM     15  O   UNL     1       3.646   3.200  17.850  0.00  0.00    +0.000 OA
BRANCH  15  16
ATOM     16  C   UNL     1       2.976   3.025  19.043  0.00  0.00    +0.000 A 
ATOM     17  C   UNL     1       3.626   2.763  20.257  0.00  0.00    +0.000 A 
ATOM     18  C   UNL     1       2.882   2.523  21.412  0.00  0.00    +0.000 A 
ATOM     19  C   UNL     1       1.495   2.603  21.357  0.00  0.00    +0.000 A 
ATOM     20  F   UNL     1       0.783   2.358  22.464  0.00  0.00    +0.000 F 
ATOM     21  C   UNL     1       0.839   2.938  20.179  0.00  0.00    +0.000 A 
ATOM     22  C   UNL     1       1.586   3.148  19.027  0.00  0.00    +0.000 A 
ATOM     23  F   UNL     1       0.951   3.470  17.890  0.00  0.00    +0.000 F 
ENDBRANCH  15  16
ENDBRANCH   6  15
TORSDOF 4
ENDMDL
MODEL 7
REMARK VINA RESULT:      -7.9      3.132      5.464
REMARK  Name = 
REMARK  5 active torsions:
REMARK  status: ('A' for Active; 'I' for Inactive)
REMARK    1  A    between atoms: C_1  and  O_2
REMARK    2  A    between atoms: O_2  and  C_3
REMARK    3  A    between atoms: C_6  and  C_7
REMARK    4  A    between atoms: C_14  and  O_15
REMARK    5  A    between atoms: O_15  and  C_16
REMARK                            x       y       z     vdW  Elec       q    Type
REMARK                         _______ _______ _______ _____ _____    ______ ____
ROOT
ATOM      1  C   UNL     1       4.816   5.024  16.532  0.00  0.00    +0.000 A 
ATOM      2  C   UNL     1       5.014   6.375  16.324  0.00  0.00    +0.000 A 
ATOM      3  N   UNL     1       4.327   7.366  16.941  0.00  0.00    +0.000 NA
ATOM      4  C   UNL     1       3.426   6.975  17.866  0.00  0.00    +0.000 A 
ATOM      5  N   UNL     1       3.228   5.693  18.204  0.00  0.00    +0.000 NA
ATOM      6  C   UNL     1       3.882   4.741  17.507  0.00  0.00    +0.000 A 
ENDROOT
BRANCH   4   7
ATOM      7  C   UNL     1       2.507   7.981  18.457  0.00  0.00    +0.000 A 
ATOM      8  C   UNL     1       2.026   9.071  17.732  0.00  0.00    +0.000 A 
ATOM      9  C   UNL     1       1.126   9.952  18.331  0.00  0.00    +0.000 A 
ATOM     10  C   UNL     1       0.722   9.732  19.642  0.00  0.00    +0.000 A 
ATOM     11  C   UNL     1       1.232   8.632  20.303  0.00  0.00    +0.000 A 
ATOM     12  N   UNL     1       2.101   7.764  19.745  0.00  0.00    +0.000 NA
ENDBRANCH   4   7
BRANCH   1  14
ATOM     13  C   UNL     1       6.949   4.434  15.691  0.00  0.00    +0.000 C 
ATOM     14  O   UNL     1       5.550   4.177  15.759  0.00  0.00    +0.000 OA
ENDBRANCH   1  14
BRANCH   6  15
ATOM     15  O   UNL     1       3.564   3.423  17.801  0.00  0.00    +0.000 OA
BRANCH  15  16
ATOM     16  C   UNL     1       2.923   3.181  18.999  0.00  0.00    +0.000 A 
ATOM     17  C   UNL     1       3.605   2.895  20.190  0.00  0.00    +0.000 A 
ATOM     18  C   UNL     1       2.891   2.587  21.348  0.00  0.00    +0.000 A 
ATOM     19  C   UNL     1       1.501   2.622  21.321  0.00  0.00    +0.000 A 
ATOM     20  F   UNL     1       0.818   2.312  22.430  0.00  0.00    +0.000 F 
ATOM     21  C   UNL     1       0.812   2.979  20.169  0.00  0.00    +0.000 A 
ATOM     22  C   UNL     1       1.530   3.258  19.012  0.00  0.00    +0.000 A 
ATOM     23  F   UNL     1       0.863   3.601  17.900  0.00  0.00    +0.000 F 
ENDBRANCH  15  16
ENDBRANCH   6  15
TORSDOF 4
ENDMDL
MODEL 8
REMARK VINA RESULT:      -7.8      0.615      1.006
REMARK  Name = 
REMARK  5 active torsions:
REMARK  status: ('A' for Active; 'I' for Inactive)
REMARK    1  A    between atoms: C_1  and  O_2
REMARK    2  A    between atoms: O_2  and  C_3
REMARK    3  A    between atoms: C_6  and  C_7
REMARK    4  A    between atoms: C_14  and  O_15
REMARK    5  A    between atoms: O_15  and  C_16
REMARK                            x       y       z     vdW  Elec       q    Type
REMARK                         _______ _______ _______ _____ _____    ______ ____
ROOT
ATOM      1  C   UNL     1       6.912   5.509  18.582  0.00  0.00    +0.000 A 
ATOM      2  C   UNL     1       7.476   6.347  17.639  0.00  0.00    +0.000 A 
ATOM      3  N   UNL     1       7.408   6.164  16.299  0.00  0.00    +0.000 NA
ATOM      4  C   UNL     1       6.682   5.108  15.880  0.00  0.00    +0.000 A 
ATOM      5  N   UNL     1       6.022   4.292  16.714  0.00  0.00    +0.000 NA
ATOM      6  C   UNL     1       6.183   4.471  18.041  0.00  0.00    +0.000 A 
ENDROOT
BRANCH   4   7
ATOM      7  C   UNL     1       6.706   4.732  14.443  0.00  0.00    +0.000 A 
ATOM      8  C   UNL     1       7.633   5.265  13.546  0.00  0.00    +0.000 A 
ATOM      9  C   UNL     1       7.631   4.833  12.220  0.00  0.00    +0.000 A 
ATOM     10  C   UNL     1       6.709   3.879  11.811  0.00  0.00    +0.000 A 
ATOM     11  C   UNL     1       5.822   3.389  12.749  0.00  0.00    +0.000 A 
ATOM     12  N   UNL     1       5.803   3.788  14.037  0.00  0.00    +0.000 NA
ENDBRANCH   4   7
BRANCH   1  14
ATOM     13  C   UNL     1       8.413   5.405  20.410  0.00  0.00    +0.000 C 
ATOM     14  O   UNL     1       7.154   5.815  19.886  0.00  0.00    +0.000 OA
ENDBRANCH   1  14
BRANCH   6  15
ATOM     15  O   UNL     1       5.584   3.537  18.874  0.00  0.00    +0.000 OA
BRANCH  15  16
ATOM     16  C   UNL     1       4.255   3.736  19.192  0.00  0.00    +0.000 A 
ATOM     17  C   UNL     1       3.742   4.973  19.606  0.00  0.00    +0.000 A 
ATOM     18  C   UNL     1       2.404   5.084  19.983  0.00  0.00    +0.000 A 
ATOM     19  C   UNL     1       1.575   3.972  19.889  0.00  0.00    +0.000 A 
ATOM     20  F   UNL     1       0.295   4.078  20.265  0.00  0.00    +0.000 F 
ATOM     21  C   UNL     1       2.050   2.759  19.407  0.00  0.00    +0.000 A 
ATOM     22  C   UNL     1       3.391   2.649  19.059  0.00  0.00    +0.000 A 
ATOM     23  F   UNL     1       3.848   1.476  18.595  0.00  0.00    +0.000 F 
ENDBRANCH  15  16
ENDBRANCH   6  15
TORSDOF 4
ENDMDL
MODEL 9
REMARK VINA RESULT:      -7.8      1.501      2.150
REMARK  Name = 
REMARK  5 active torsions:
REMARK  status: ('A' for Active; 'I' for Inactive)
REMARK    1  A    between atoms: C_1  and  O_2
REMARK    2  A    between atoms: O_2  and  C_3
REMARK    3  A    between atoms: C_6  and  C_7
REMARK    4  A    between atoms: C_14  and  O_15
REMARK    5  A    between atoms: O_15  and  C_16
REMARK                            x       y       z     vdW  Elec       q    Type
REMARK                         _______ _______ _______ _____ _____    ______ ____
ROOT
ATOM      1  C   UNL     1       6.561   5.141  18.376  0.00  0.00    +0.000 A 
ATOM      2  C   UNL     1       7.703   4.722  17.720  0.00  0.00    +0.000 A 
ATOM      3  N   UNL     1       7.812   4.553  16.381  0.00  0.00    +0.000 NA
ATOM      4  C   UNL     1       6.726   4.878  15.651  0.00  0.00    +0.000 A 
ATOM      5  N   UNL     1       5.604   5.380  16.187  0.00  0.00    +0.000 NA
ATOM      6  C   UNL     1       5.518   5.459  17.531  0.00  0.00    +0.000 A 
ENDROOT
BRANCH   4   7
ATOM      7  C   UNL     1       6.698   4.554  14.202  0.00  0.00    +0.000 A 
ATOM      8  C   UNL     1       7.598   5.112  13.294  0.00  0.00    +0.000 A 
ATOM      9  C   UNL     1       7.550   4.728  11.955  0.00  0.00    +0.000 A 
ATOM     10  C   UNL     1       6.607   3.794  11.543  0.00  0.00    +0.000 A 
ATOM     11  C   UNL     1       5.749   3.277  12.493  0.00  0.00    +0.000 A 
ATOM     12  N   UNL     1       5.776   3.630  13.794  0.00  0.00    +0.000 NA
ENDBRANCH   4   7
BRANCH   1  14
ATOM     13  C   UNL     1       7.893   5.462  20.306  0.00  0.00    +0.000 C 
ATOM     14  O   UNL     1       6.621   5.176  19.735  0.00  0.00    +0.000 OA
ENDBRANCH   1  14
BRANCH   6  15
ATOM     15  O   UNL     1       4.301   5.869  18.056  0.00  0.00    +0.000 OA
BRANCH  15  16
ATOM     16  C   UNL     1       3.337   4.899  18.245  0.00  0.00    +0.000 A 
ATOM     17  C   UNL     1       3.301   3.701  17.519  0.00  0.00    +0.000 A 
ATOM     18  C   UNL     1       2.255   2.798  17.710  0.00  0.00    +0.000 A 
ATOM     19  C   UNL     1       1.283   3.074  18.666  0.00  0.00    +0.000 A 
ATOM     20  F   UNL     1       0.273   2.213  18.837  0.00  0.00    +0.000 F 
ATOM     21  C   UNL     1       1.348   4.220  19.448  0.00  0.00    +0.000 A 
ATOM     22  C   UNL     1       2.378   5.127  19.233  0.00  0.00    +0.000 A 
ATOM     23  F   UNL     1       2.438   6.234  19.988  0.00  0.00    +0.000 F 
ENDBRANCH  15  16
ENDBRANCH   6  15
TORSDOF 4
ENDMDL
