MODEL 1
REMARK VINA RESULT:      -6.2      0.000      0.000
REMARK  Name = 
REMARK  11 active torsions:
REMARK  status: ('A' for Active; 'I' for Inactive)
REMARK    1  A    between atoms: C_1  and  C_2
REMARK    2  A    between atoms: C_2  and  C_3
REMARK    3  A    between atoms: C_3  and  N_4
REMARK    4  A    between atoms: N_4  and  C_5
REMARK    5  A    between atoms: N_4  and  C_25
REMARK    6  A    between atoms: C_5  and  C_6
REMARK    7  A    between atoms: N_9  and  C_10
REMARK    8  A    between atoms: C_11  and  C_12
REMARK    9  A    between atoms: C_14  and  C_15
REMARK   10  A    between atoms: C_20  and  C_21
REMARK   11  A    between atoms: C_25  and  C_26
REMARK                            x       y       z     vdW  Elec       q    Type
REMARK                         _______ _______ _______ _____ _____    ______ ____
ROOT
ATOM      1  C   UNL     1       1.652   8.599  19.283  0.00  0.00    +0.000 A 
ATOM      2  S   UNL     1       1.674   9.619  17.891  0.00  0.00    +0.000 S 
ATOM      3  C   UNL     1       0.615  10.716  18.669  0.00  0.00    +0.000 A 
ATOM      4  N   UNL     1       0.404  11.931  18.113  0.00  0.00    +0.000 N 
ATOM      5  N   UNL     1       0.165  10.309  19.833  0.00  0.00    +0.000 NA
ATOM      6  C   UNL     1       0.773   9.112  20.229  0.00  0.00    +0.000 A 
ATOM      7  H   UNL     1      -0.131  11.930  17.256  0.00  0.00    +0.000 HD
ENDROOT
BRANCH   4   8
ATOM      8  C   UNL     1       0.231  13.122  18.864  0.00  0.00    +0.000 A 
ATOM      9  C   UNL     1      -0.993  13.472  19.483  0.00  0.00    +0.000 A 
ATOM     10  C   UNL     1      -2.232  12.613  19.493  0.00  0.00    +0.000 C 
ATOM     11  C   UNL     1      -1.104  14.701  20.157  0.00  0.00    +0.000 A 
ATOM     12  C   UNL     1      -0.016  15.564  20.291  0.00  0.00    +0.000 A 
ATOM     13  C   UNL     1      -0.166  16.868  21.014  0.00  0.00    +0.000 C 
ATOM     14  C   UNL     1       1.214  15.189  19.749  0.00  0.00    +0.000 A 
ATOM     15  C   UNL     1       1.334  13.987  19.046  0.00  0.00    +0.000 A 
ATOM     16 BR   UNL     1       3.049  13.555  18.334  0.00  0.00    +0.000 Br
ENDBRANCH   4   8
BRANCH   6  17
ATOM     17  C   UNL     1       0.484   8.584  21.607  0.00  0.00    +0.000 C 
ATOM     18  F   UNL     1       1.603   8.371  22.348  0.00  0.00    +0.000 F 
ATOM     19  F   UNL     1      -0.274   9.457  22.324  0.00  0.00    +0.000 F 
ATOM     20  F   UNL     1      -0.194   7.407  21.580  0.00  0.00    +0.000 F 
ENDBRANCH   6  17
BRANCH   1  21
ATOM     21  C   UNL     1       2.561   7.401  19.330  0.00  0.00    +0.000 C 
BRANCH  21  22
ATOM     22  N   UNL     1       1.862   6.099  19.246  0.00  0.00    +0.000 NA
BRANCH  22  23
ATOM     23  C   UNL     1       2.116   5.306  20.474  0.00  0.00    +0.000 C 
BRANCH  23  25
ATOM     24  C   UNL     1       1.885   2.995  21.547  0.00  0.00    +0.000 C 
ATOM     25  C   UNL     1       1.237   4.059  20.676  0.00  0.00    +0.000 C 
ENDBRANCH  23  25
ENDBRANCH  22  23
BRANCH  22  26
ATOM     26  C   UNL     1       2.332   5.346  18.065  0.00  0.00    +0.000 C 
BRANCH  26  27
ATOM     27  C   UNL     1       3.793   5.023  18.088  0.00  0.00    +0.000 C 
ATOM     28  C   UNL     1       4.212   3.650  17.617  0.00  0.00    +0.000 C 
ATOM     29  C   UNL     1       4.587   4.864  16.815  0.00  0.00    +0.000 C 
ENDBRANCH  26  27
ENDBRANCH  22  26
ENDBRANCH  21  22
ENDBRANCH   1  21
TORSDOF 8
ENDMDL
MODEL 2
REMARK VINA RESULT:      -6.1      4.263      6.214
REMARK  Name = 
REMARK  11 active torsions:
REMARK  status: ('A' for Active; 'I' for Inactive)
REMARK    1  A    between atoms: C_1  and  C_2
REMARK    2  A    between atoms: C_2  and  C_3
REMARK    3  A    between atoms: C_3  and  N_4
REMARK    4  A    between atoms: N_4  and  C_5
REMARK    5  A    between atoms: N_4  and  C_25
REMARK    6  A    between atoms: C_5  and  C_6
REMARK    7  A    between atoms: N_9  and  C_10
REMARK    8  A    between atoms: C_11  and  C_12
REMARK    9  A    between atoms: C_14  and  C_15
REMARK   10  A    between atoms: C_20  and  C_21
REMARK   11  A    between atoms: C_25  and  C_26
REMARK                            x       y       z     vdW  Elec       q    Type
REMARK                         _______ _______ _______ _____ _____    ______ ____
ROOT
ATOM      1  C   UNL     1      -1.693  11.486  18.645  0.00  0.00    +0.000 A 
ATOM      2  S   UNL     1      -1.176  12.777  19.667  0.00  0.00    +0.000 S 
ATOM      3  C   UNL     1      -2.806  13.160  20.021  0.00  0.00    +0.000 A 
ATOM      4  N   UNL     1      -3.074  14.033  21.018  0.00  0.00    +0.000 N 
ATOM      5  N   UNL     1      -3.690  12.470  19.339  0.00  0.00    +0.000 NA
ATOM      6  C   UNL     1      -3.081  11.473  18.567  0.00  0.00    +0.000 A 
ATOM      7  H   UNL     1      -2.826  14.995  20.833  0.00  0.00    +0.000 HD
ENDROOT
BRANCH   4   8
ATOM      8  C   UNL     1      -4.183  13.914  21.894  0.00  0.00    +0.000 A 
ATOM      9  C   UNL     1      -4.196  13.036  23.005  0.00  0.00    +0.000 A 
ATOM     10  C   UNL     1      -3.035  12.181  23.444  0.00  0.00    +0.000 C 
ATOM     11  C   UNL     1      -5.358  12.927  23.790  0.00  0.00    +0.000 A 
ATOM     12  C   UNL     1      -6.484  13.712  23.544  0.00  0.00    +0.000 A 
ATOM     13  C   UNL     1      -7.707  13.572  24.398  0.00  0.00    +0.000 C 
ATOM     14  C   UNL     1      -6.450  14.635  22.499  0.00  0.00    +0.000 A 
ATOM     15  C   UNL     1      -5.317  14.732  21.685  0.00  0.00    +0.000 A 
ATOM     16 BR   UNL     1      -5.356  16.015  20.276  0.00  0.00    +0.000 Br
ENDBRANCH   4   8
BRANCH   6  17
ATOM     17  C   UNL     1      -3.959  10.492  17.841  0.00  0.00    +0.000 C 
ATOM     18  F   UNL     1      -3.521   9.209  17.930  0.00  0.00    +0.000 F 
ATOM     19  F   UNL     1      -5.222  10.488  18.347  0.00  0.00    +0.000 F 
ATOM     20  F   UNL     1      -4.068  10.775  16.517  0.00  0.00    +0.000 F 
ENDBRANCH   6  17
BRANCH   1  21
ATOM     21  C   UNL     1      -0.665  10.560  18.053  0.00  0.00    +0.000 C 
BRANCH  21  22
ATOM     22  N   UNL     1       0.523  10.340  18.908  0.00  0.00    +0.000 NA
BRANCH  22  23
ATOM     23  C   UNL     1       1.613   9.723  18.112  0.00  0.00    +0.000 C 
BRANCH  23  25
ATOM     24  C   UNL     1       3.182   7.744  17.702  0.00  0.00    +0.000 C 
ATOM     25  C   UNL     1       1.970   8.266  18.455  0.00  0.00    +0.000 C 
ENDBRANCH  23  25
ENDBRANCH  22  23
BRANCH  22  26
ATOM     26  C   UNL     1       0.177   9.456  20.040  0.00  0.00    +0.000 C 
BRANCH  26  27
ATOM     27  C   UNL     1       0.590   9.986  21.377  0.00  0.00    +0.000 C 
ATOM     28  C   UNL     1      -0.154   9.477  22.590  0.00  0.00    +0.000 C 
ATOM     29  C   UNL     1       1.290   9.116  22.391  0.00  0.00    +0.000 C 
ENDBRANCH  26  27
ENDBRANCH  22  26
ENDBRANCH  21  22
ENDBRANCH   1  21
TORSDOF 8
ENDMDL
MODEL 3
REMARK VINA RESULT:      -6.1      1.436      2.123
REMARK  Name = 
REMARK  11 active torsions:
REMARK  status: ('A' for Active; 'I' for Inactive)
REMARK    1  A    between atoms: C_1  and  C_2
REMARK    2  A    between atoms: C_2  and  C_3
REMARK    3  A    between atoms: C_3  and  N_4
REMARK    4  A    between atoms: N_4  and  C_5
REMARK    5  A    between atoms: N_4  and  C_25
REMARK    6  A    between atoms: C_5  and  C_6
REMARK    7  A    between atoms: N_9  and  C_10
REMARK    8  A    between atoms: C_11  and  C_12
REMARK    9  A    between atoms: C_14  and  C_15
REMARK   10  A    between atoms: C_20  and  C_21
REMARK   11  A    between atoms: C_25  and  C_26
REMARK                            x       y       z     vdW  Elec       q    Type
REMARK                         _______ _______ _______ _____ _____    ______ ____
ROOT
ATOM      1  C   UNL     1       1.944   8.249  19.210  0.00  0.00    +0.000 A 
ATOM      2  S   UNL     1       1.859   9.243  17.802  0.00  0.00    +0.000 S 
ATOM      3  C   UNL     1       0.820  10.329  18.622  0.00  0.00    +0.000 A 
ATOM      4  N   UNL     1       0.546  11.527  18.058  0.00  0.00    +0.000 N 
ATOM      5  N   UNL     1       0.449   9.933  19.817  0.00  0.00    +0.000 NA
ATOM      6  C   UNL     1       1.109   8.758  20.198  0.00  0.00    +0.000 A 
ATOM      7  H   UNL     1      -0.037  11.498  17.234  0.00  0.00    +0.000 HD
ENDROOT
BRANCH   4   8
ATOM      8  C   UNL     1       0.388  12.727  18.797  0.00  0.00    +0.000 A 
ATOM      9  C   UNL     1       1.452  13.630  19.038  0.00  0.00    +0.000 A 
ATOM     10  C   UNL     1       2.851  13.480  18.496  0.00  0.00    +0.000 C 
ATOM     11  C   UNL     1       1.231  14.768  19.834  0.00  0.00    +0.000 A 
ATOM     12  C   UNL     1      -0.032  15.072  20.343  0.00  0.00    +0.000 A 
ATOM     13  C   UNL     1      -0.235  16.292  21.188  0.00  0.00    +0.000 C 
ATOM     14  C   UNL     1      -1.102  14.228  20.043  0.00  0.00    +0.000 A 
ATOM     15  C   UNL     1      -0.894  13.073  19.283  0.00  0.00    +0.000 A 
ATOM     16 BR   UNL     1      -2.410  11.974  18.926  0.00  0.00    +0.000 Br
ENDBRANCH   4   8
BRANCH   6  17
ATOM     17  C   UNL     1       0.914   8.249  21.599  0.00  0.00    +0.000 C 
ATOM     18  F   UNL     1       1.651   8.920  22.523  0.00  0.00    +0.000 F 
ATOM     19  F   UNL     1      -0.381   8.376  21.997  0.00  0.00    +0.000 F 
ATOM     20  F   UNL     1       1.236   6.935  21.724  0.00  0.00    +0.000 F 
ENDBRANCH   6  17
BRANCH   1  21
ATOM     21  C   UNL     1       2.884   7.074  19.225  0.00  0.00    +0.000 C 
BRANCH  21  22
ATOM     22  N   UNL     1       2.976   6.348  17.939  0.00  0.00    +0.000 NA
BRANCH  22  23
ATOM     23  C   UNL     1       2.180   5.098  18.004  0.00  0.00    +0.000 C 
BRANCH  23  25
ATOM     24  C   UNL     1       1.065   3.269  19.404  0.00  0.00    +0.000 C 
ATOM     25  C   UNL     1       1.912   4.531  19.410  0.00  0.00    +0.000 C 
ENDBRANCH  23  25
ENDBRANCH  22  23
BRANCH  22  26
ATOM     26  C   UNL     1       4.385   6.022  17.639  0.00  0.00    +0.000 C 
BRANCH  26  27
ATOM     27  C   UNL     1       4.558   4.954  16.605  0.00  0.00    +0.000 C 
ATOM     28  C   UNL     1       5.444   5.266  15.421  0.00  0.00    +0.000 C 
ATOM     29  C   UNL     1       5.872   4.234  16.425  0.00  0.00    +0.000 C 
ENDBRANCH  26  27
ENDBRANCH  22  26
ENDBRANCH  21  22
ENDBRANCH   1  21
TORSDOF 8
ENDMDL
MODEL 4
REMARK VINA RESULT:      -6.1      1.118      1.869
REMARK  Name = 
REMARK  11 active torsions:
REMARK  status: ('A' for Active; 'I' for Inactive)
REMARK    1  A    between atoms: C_1  and  C_2
REMARK    2  A    between atoms: C_2  and  C_3
REMARK    3  A    between atoms: C_3  and  N_4
REMARK    4  A    between atoms: N_4  and  C_5
REMARK    5  A    between atoms: N_4  and  C_25
REMARK    6  A    between atoms: C_5  and  C_6
REMARK    7  A    between atoms: N_9  and  C_10
REMARK    8  A    between atoms: C_11  and  C_12
REMARK    9  A    between atoms: C_14  and  C_15
REMARK   10  A    between atoms: C_20  and  C_21
REMARK   11  A    between atoms: C_25  and  C_26
REMARK                            x       y       z     vdW  Elec       q    Type
REMARK                         _______ _______ _______ _____ _____    ______ ____
ROOT
ATOM      1  C   UNL     1       1.761   8.495  19.313  0.00  0.00    +0.000 A 
ATOM      2  S   UNL     1       1.845   9.497  17.910  0.00  0.00    +0.000 S 
ATOM      3  C   UNL     1       0.810  10.640  18.655  0.00  0.00    +0.000 A 
ATOM      4  N   UNL     1       0.651  11.854  18.081  0.00  0.00    +0.000 N 
ATOM      5  N   UNL     1       0.325  10.262  19.815  0.00  0.00    +0.000 NA
ATOM      6  C   UNL     1       0.884   9.050  20.237  0.00  0.00    +0.000 A 
ATOM      7  H   UNL     1       0.133  11.861  17.214  0.00  0.00    +0.000 HD
ENDROOT
BRANCH   4   8
ATOM      8  C   UNL     1       0.506  13.059  18.814  0.00  0.00    +0.000 A 
ATOM      9  C   UNL     1       1.582  13.949  19.054  0.00  0.00    +0.000 A 
ATOM     10  C   UNL     1       2.979  13.780  18.514  0.00  0.00    +0.000 C 
ATOM     11  C   UNL     1       1.373  15.094  19.844  0.00  0.00    +0.000 A 
ATOM     12  C   UNL     1       0.113  15.415  20.350  0.00  0.00    +0.000 A 
ATOM     13  C   UNL     1      -0.077  16.641  21.190  0.00  0.00    +0.000 C 
ATOM     14  C   UNL     1      -0.967  14.583  20.052  0.00  0.00    +0.000 A 
ATOM     15  C   UNL     1      -0.772  13.423  19.298  0.00  0.00    +0.000 A 
ATOM     16 BR   UNL     1      -2.300  12.340  18.942  0.00  0.00    +0.000 Br
ENDBRANCH   4   8
BRANCH   6  17
ATOM     17  C   UNL     1       0.550   8.549  21.615  0.00  0.00    +0.000 C 
ATOM     18  F   UNL     1       0.010   7.302  21.618  0.00  0.00    +0.000 F 
ATOM     19  F   UNL     1       1.661   8.472  22.396  0.00  0.00    +0.000 F 
ATOM     20  F   UNL     1      -0.329   9.357  22.262  0.00  0.00    +0.000 F 
ENDBRANCH   6  17
BRANCH   1  21
ATOM     21  C   UNL     1       2.627   7.268  19.392  0.00  0.00    +0.000 C 
BRANCH  21  22
ATOM     22  N   UNL     1       1.894   5.991  19.240  0.00  0.00    +0.000 NA
BRANCH  22  23
ATOM     23  C   UNL     1       2.122   5.131  20.428  0.00  0.00    +0.000 C 
BRANCH  23  25
ATOM     24  C   UNL     1       1.787   2.643  20.923  0.00  0.00    +0.000 C 
ATOM     25  C   UNL     1       1.123   3.981  20.641  0.00  0.00    +0.000 C 
ENDBRANCH  23  25
ENDBRANCH  22  23
BRANCH  22  26
ATOM     26  C   UNL     1       2.347   5.285  18.024  0.00  0.00    +0.000 C 
BRANCH  26  27
ATOM     27  C   UNL     1       3.813   4.984  18.004  0.00  0.00    +0.000 C 
ATOM     28  C   UNL     1       4.248   3.679  17.378  0.00  0.00    +0.000 C 
ATOM     29  C   UNL     1       4.601   4.982  16.718  0.00  0.00    +0.000 C 
ENDBRANCH  26  27
ENDBRANCH  22  26
ENDBRANCH  21  22
ENDBRANCH   1  21
TORSDOF 8
ENDMDL
MODEL 5
REMARK VINA RESULT:      -6.0      1.070      1.544
REMARK  Name = 
REMARK  11 active torsions:
REMARK  status: ('A' for Active; 'I' for Inactive)
REMARK    1  A    between atoms: C_1  and  C_2
REMARK    2  A    between atoms: C_2  and  C_3
REMARK    3  A    between atoms: C_3  and  N_4
REMARK    4  A    between atoms: N_4  and  C_5
REMARK    5  A    between atoms: N_4  and  C_25
REMARK    6  A    between atoms: C_5  and  C_6
REMARK    7  A    between atoms: N_9  and  C_10
REMARK    8  A    between atoms: C_11  and  C_12
REMARK    9  A    between atoms: C_14  and  C_15
REMARK   10  A    between atoms: C_20  and  C_21
REMARK   11  A    between atoms: C_25  and  C_26
REMARK                            x       y       z     vdW  Elec       q    Type
REMARK                         _______ _______ _______ _____ _____    ______ ____
ROOT
ATOM      1  C   UNL     1       1.883   8.318  19.150  0.00  0.00    +0.000 A 
ATOM      2  S   UNL     1       1.791   9.369  17.784  0.00  0.00    +0.000 S 
ATOM      3  C   UNL     1       0.657  10.352  18.607  0.00  0.00    +0.000 A 
ATOM      4  N   UNL     1       0.331  11.557  18.085  0.00  0.00    +0.000 N 
ATOM      5  N   UNL     1       0.266   9.880  19.767  0.00  0.00    +0.000 NA
ATOM      6  C   UNL     1       0.982   8.731  20.124  0.00  0.00    +0.000 A 
ATOM      7  H   UNL     1      -0.217  11.530  17.237  0.00  0.00    +0.000 HD
ENDROOT
BRANCH   4   8
ATOM      8  C   UNL     1       0.072  12.710  18.868  0.00  0.00    +0.000 A 
ATOM      9  C   UNL     1      -1.186  12.970  19.464  0.00  0.00    +0.000 A 
ATOM     10  C   UNL     1      -2.374  12.043  19.412  0.00  0.00    +0.000 C 
ATOM     11  C   UNL     1      -1.385  14.168  20.174  0.00  0.00    +0.000 A 
ATOM     12  C   UNL     1      -0.352  15.086  20.364  0.00  0.00    +0.000 A 
ATOM     13  C   UNL     1      -0.595  16.354  21.124  0.00  0.00    +0.000 C 
ATOM     14  C   UNL     1       0.911  14.800  19.846  0.00  0.00    +0.000 A 
ATOM     15  C   UNL     1       1.118  13.630  19.108  0.00  0.00    +0.000 A 
ATOM     16 BR   UNL     1       2.873  13.320  18.431  0.00  0.00    +0.000 Br
ENDBRANCH   4   8
BRANCH   6  17
ATOM     17  C   UNL     1       0.765   8.148  21.493  0.00  0.00    +0.000 C 
ATOM     18  F   UNL     1      -0.519   8.256  21.926  0.00  0.00    +0.000 F 
ATOM     19  F   UNL     1       1.052   6.818  21.516  0.00  0.00    +0.000 F 
ATOM     20  F   UNL     1       1.546   8.734  22.437  0.00  0.00    +0.000 F 
ENDBRANCH   6  17
BRANCH   1  21
ATOM     21  C   UNL     1       2.892   7.202  19.152  0.00  0.00    +0.000 C 
BRANCH  21  22
ATOM     22  N   UNL     1       2.587   6.100  18.213  0.00  0.00    +0.000 NA
BRANCH  22  23
ATOM     23  C   UNL     1       1.883   5.006  18.926  0.00  0.00    +0.000 C 
BRANCH  23  25
ATOM     24  C   UNL     1       1.778   2.461  18.687  0.00  0.00    +0.000 C 
ATOM     25  C   UNL     1       1.437   3.808  18.070  0.00  0.00    +0.000 C 
ENDBRANCH  23  25
ENDBRANCH  22  23
BRANCH  22  26
ATOM     26  C   UNL     1       3.835   5.579  17.618  0.00  0.00    +0.000 C 
BRANCH  26  27
ATOM     27  C   UNL     1       4.574   6.574  16.780  0.00  0.00    +0.000 C 
ATOM     28  C   UNL     1       6.080   6.603  16.895  0.00  0.00    +0.000 C 
ATOM     29  C   UNL     1       5.436   6.144  15.619  0.00  0.00    +0.000 C 
ENDBRANCH  26  27
ENDBRANCH  22  26
ENDBRANCH  21  22
ENDBRANCH   1  21
TORSDOF 8
ENDMDL
MODEL 6
REMARK VINA RESULT:      -6.0      4.150      6.128
REMARK  Name = 
REMARK  11 active torsions:
REMARK  status: ('A' for Active; 'I' for Inactive)
REMARK    1  A    between atoms: C_1  and  C_2
REMARK    2  A    between atoms: C_2  and  C_3
REMARK    3  A    between atoms: C_3  and  N_4
REMARK    4  A    between atoms: N_4  and  C_5
REMARK    5  A    between atoms: N_4  and  C_25
REMARK    6  A    between atoms: C_5  and  C_6
REMARK    7  A    between atoms: N_9  and  C_10
REMARK    8  A    between atoms: C_11  and  C_12
REMARK    9  A    between atoms: C_14  and  C_15
REMARK   10  A    between atoms: C_20  and  C_21
REMARK   11  A    between atoms: C_25  and  C_26
REMARK                            x       y       z     vdW  Elec       q    Type
REMARK                         _______ _______ _______ _____ _____    ______ ____
ROOT
ATOM      1  C   UNL     1      -1.658  11.381  18.515  0.00  0.00    +0.000 A 
ATOM      2  S   UNL     1      -1.244  12.740  19.494  0.00  0.00    +0.000 S 
ATOM      3  C   UNL     1      -2.904  13.067  19.756  0.00  0.00    +0.000 A 
ATOM      4  N   UNL     1      -3.254  13.974  20.697  0.00  0.00    +0.000 N 
ATOM      5  N   UNL     1      -3.725  12.306  19.072  0.00  0.00    +0.000 NA
ATOM      6  C   UNL     1      -3.039  11.302  18.378  0.00  0.00    +0.000 A 
ATOM      7  H   UNL     1      -3.039  14.936  20.475  0.00  0.00    +0.000 HD
ENDROOT
BRANCH   4   8
ATOM      8  C   UNL     1      -4.396  13.847  21.527  0.00  0.00    +0.000 A 
ATOM      9  C   UNL     1      -5.656  14.402  21.196  0.00  0.00    +0.000 A 
ATOM     10  C   UNL     1      -5.969  15.126  19.911  0.00  0.00    +0.000 C 
ATOM     11  C   UNL     1      -6.726  14.288  22.102  0.00  0.00    +0.000 A 
ATOM     12  C   UNL     1      -6.600  13.582  23.298  0.00  0.00    +0.000 A 
ATOM     13  C   UNL     1      -7.758  13.480  24.243  0.00  0.00    +0.000 C 
ATOM     14  C   UNL     1      -5.384  12.966  23.595  0.00  0.00    +0.000 A 
ATOM     15  C   UNL     1      -4.299  13.098  22.723  0.00  0.00    +0.000 A 
ATOM     16 BR   UNL     1      -2.673  12.229  23.208  0.00  0.00    +0.000 Br
ENDBRANCH   4   8
BRANCH   6  17
ATOM     17  C   UNL     1      -3.840  10.250  17.662  0.00  0.00    +0.000 C 
ATOM     18  F   UNL     1      -5.183  10.436  17.762  0.00  0.00    +0.000 F 
ATOM     19  F   UNL     1      -3.566  10.238  16.330  0.00  0.00    +0.000 F 
ATOM     20  F   UNL     1      -3.586   8.999  18.126  0.00  0.00    +0.000 F 
ENDBRANCH   6  17
BRANCH   1  21
ATOM     21  C   UNL     1      -0.566  10.475  18.016  0.00  0.00    +0.000 C 
BRANCH  21  22
ATOM     22  N   UNL     1       0.562  10.299  18.959  0.00  0.00    +0.000 NA
BRANCH  22  23
ATOM     23  C   UNL     1       1.708   9.662  18.266  0.00  0.00    +0.000 C 
BRANCH  23  25
ATOM     24  C   UNL     1       2.935   7.492  17.690  0.00  0.00    +0.000 C 
ATOM     25  C   UNL     1       2.041   8.218  18.681  0.00  0.00    +0.000 C 
ENDBRANCH  23  25
ENDBRANCH  22  23
BRANCH  22  26
ATOM     26  C   UNL     1       0.144   9.458  20.100  0.00  0.00    +0.000 C 
BRANCH  26  27
ATOM     27  C   UNL     1       0.572   9.982  21.434  0.00  0.00    +0.000 C 
ATOM     28  C   UNL     1      -0.044   9.353  22.662  0.00  0.00    +0.000 C 
ATOM     29  C   UNL     1       1.417   9.158  22.373  0.00  0.00    +0.000 C 
ENDBRANCH  26  27
ENDBRANCH  22  26
ENDBRANCH  21  22
ENDBRANCH   1  21
TORSDOF 8
ENDMDL
MODEL 7
REMARK VINA RESULT:      -5.9      1.626      2.240
REMARK  Name = 
REMARK  11 active torsions:
REMARK  status: ('A' for Active; 'I' for Inactive)
REMARK    1  A    between atoms: C_1  and  C_2
REMARK    2  A    between atoms: C_2  and  C_3
REMARK    3  A    between atoms: C_3  and  N_4
REMARK    4  A    between atoms: N_4  and  C_5
REMARK    5  A    between atoms: N_4  and  C_25
REMARK    6  A    between atoms: C_5  and  C_6
REMARK    7  A    between atoms: N_9  and  C_10
REMARK    8  A    between atoms: C_11  and  C_12
REMARK    9  A    between atoms: C_14  and  C_15
REMARK   10  A    between atoms: C_20  and  C_21
REMARK   11  A    between atoms: C_25  and  C_26
REMARK                            x       y       z     vdW  Elec       q    Type
REMARK                         _______ _______ _______ _____ _____    ______ ____
ROOT
ATOM      1  C   UNL     1       1.990   8.269  19.077  0.00  0.00    +0.000 A 
ATOM      2  S   UNL     1       1.912   9.347  17.733  0.00  0.00    +0.000 S 
ATOM      3  C   UNL     1       0.841  10.363  18.599  0.00  0.00    +0.000 A 
ATOM      4  N   UNL     1       0.556  11.590  18.106  0.00  0.00    +0.000 N 
ATOM      5  N   UNL     1       0.458   9.888  19.761  0.00  0.00    +0.000 NA
ATOM      6  C   UNL     1       1.131   8.703  20.080  0.00  0.00    +0.000 A 
ATOM      7  H   UNL     1      -0.013  11.602  17.272  0.00  0.00    +0.000 HD
ENDROOT
BRANCH   4   8
ATOM      8  C   UNL     1       0.366  12.739  18.914  0.00  0.00    +0.000 A 
ATOM      9  C   UNL     1       1.415  13.635  19.239  0.00  0.00    +0.000 A 
ATOM     10  C   UNL     1       2.828  13.532  18.725  0.00  0.00    +0.000 C 
ATOM     11  C   UNL     1       1.161  14.718  20.099  0.00  0.00    +0.000 A 
ATOM     12  C   UNL     1      -0.118  14.977  20.593  0.00  0.00    +0.000 A 
ATOM     13  C   UNL     1      -0.356  16.140  21.508  0.00  0.00    +0.000 C 
ATOM     14  C   UNL     1      -1.171  14.145  20.214  0.00  0.00    +0.000 A 
ATOM     15  C   UNL     1      -0.931  13.042  19.388  0.00  0.00    +0.000 A 
ATOM     16 BR   UNL     1      -2.425  11.953  18.923  0.00  0.00    +0.000 Br
ENDBRANCH   4   8
BRANCH   6  17
ATOM     17  C   UNL     1       0.922   8.105  21.444  0.00  0.00    +0.000 C 
ATOM     18  F   UNL     1       1.351   6.820  21.539  0.00  0.00    +0.000 F 
ATOM     19  F   UNL     1       1.605   8.794  22.397  0.00  0.00    +0.000 F 
ATOM     20  F   UNL     1      -0.384   8.109  21.818  0.00  0.00    +0.000 F 
ENDBRANCH   6  17
BRANCH   1  21
ATOM     21  C   UNL     1       2.950   7.111  19.036  0.00  0.00    +0.000 C 
BRANCH  21  22
ATOM     22  N   UNL     1       2.785   6.221  17.864  0.00  0.00    +0.000 NA
BRANCH  22  23
ATOM     23  C   UNL     1       1.798   5.157  18.170  0.00  0.00    +0.000 C 
BRANCH  23  25
ATOM     24  C   UNL     1       1.541   2.623  18.411  0.00  0.00    +0.000 C 
ATOM     25  C   UNL     1       2.083   3.768  17.572  0.00  0.00    +0.000 C 
ENDBRANCH  23  25
ENDBRANCH  22  23
BRANCH  22  26
ATOM     26  C   UNL     1       4.080   5.607  17.507  0.00  0.00    +0.000 C 
BRANCH  26  27
ATOM     27  C   UNL     1       5.084   5.609  18.616  0.00  0.00    +0.000 C 
ATOM     28  C   UNL     1       5.507   4.271  19.177  0.00  0.00    +0.000 C 
ATOM     29  C   UNL     1       6.491   5.106  18.409  0.00  0.00    +0.000 C 
ENDBRANCH  26  27
ENDBRANCH  22  26
ENDBRANCH  21  22
ENDBRANCH   1  21
TORSDOF 8
ENDMDL
MODEL 8
REMARK VINA RESULT:      -5.9      0.881      1.379
REMARK  Name = 
REMARK  11 active torsions:
REMARK  status: ('A' for Active; 'I' for Inactive)
REMARK    1  A    between atoms: C_1  and  C_2
REMARK    2  A    between atoms: C_2  and  C_3
REMARK    3  A    between atoms: C_3  and  N_4
REMARK    4  A    between atoms: N_4  and  C_5
REMARK    5  A    between atoms: N_4  and  C_25
REMARK    6  A    between atoms: C_5  and  C_6
REMARK    7  A    between atoms: N_9  and  C_10
REMARK    8  A    between atoms: C_11  and  C_12
REMARK    9  A    between atoms: C_14  and  C_15
REMARK   10  A    between atoms: C_20  and  C_21
REMARK   11  A    between atoms: C_25  and  C_26
REMARK                            x       y       z     vdW  Elec       q    Type
REMARK                         _______ _______ _______ _____ _____    ______ ____
ROOT
ATOM      1  C   UNL     1       1.342   8.911  19.591  0.00  0.00    +0.000 A 
ATOM      2  S   UNL     1       1.335   9.854  18.147  0.00  0.00    +0.000 S 
ATOM      3  C   UNL     1       0.358  11.033  18.911  0.00  0.00    +0.000 A 
ATOM      4  N   UNL     1       0.167  12.224  18.300  0.00  0.00    +0.000 N 
ATOM      5  N   UNL     1      -0.049  10.708  20.116  0.00  0.00    +0.000 NA
ATOM      6  C   UNL     1       0.532   9.510  20.549  0.00  0.00    +0.000 A 
ATOM      7  H   UNL     1      -0.409  12.200  17.471  0.00  0.00    +0.000 HD
ENDROOT
BRANCH   4   8
ATOM      8  C   UNL     1       0.078  13.459  18.991  0.00  0.00    +0.000 A 
ATOM      9  C   UNL     1      -1.091  13.879  19.672  0.00  0.00    +0.000 A 
ATOM     10  C   UNL     1      -2.348  13.059  19.817  0.00  0.00    +0.000 C 
ATOM     11  C   UNL     1      -1.123  15.147  20.281  0.00  0.00    +0.000 A 
ATOM     12  C   UNL     1      -0.007  15.984  20.289  0.00  0.00    +0.000 A 
ATOM     13  C   UNL     1      -0.073  17.329  20.944  0.00  0.00    +0.000 C 
ATOM     14  C   UNL     1       1.172  15.544  19.687  0.00  0.00    +0.000 A 
ATOM     15  C   UNL     1       1.212  14.302  19.046  0.00  0.00    +0.000 A 
ATOM     16 BR   UNL     1       2.861  13.781  18.245  0.00  0.00    +0.000 Br
ENDBRANCH   4   8
BRANCH   6  17
ATOM     17  C   UNL     1       0.291   9.068  21.966  0.00  0.00    +0.000 C 
ATOM     18  F   UNL     1      -0.614   8.059  22.069  0.00  0.00    +0.000 F 
ATOM     19  F   UNL     1       1.432   8.601  22.540  0.00  0.00    +0.000 F 
ATOM     20  F   UNL     1      -0.160  10.077  22.755  0.00  0.00    +0.000 F 
ENDBRANCH   6  17
BRANCH   1  21
ATOM     21  C   UNL     1       2.206   7.681  19.662  0.00  0.00    +0.000 C 
BRANCH  21  22
ATOM     22  N   UNL     1       2.325   6.943  18.384  0.00  0.00    +0.000 NA
BRANCH  22  23
ATOM     23  C   UNL     1       2.271   5.482  18.636  0.00  0.00    +0.000 C 
BRANCH  23  25
ATOM     24  C   UNL     1       0.946   3.945  20.194  0.00  0.00    +0.000 C 
ATOM     25  C   UNL     1       1.986   5.048  20.084  0.00  0.00    +0.000 C 
ENDBRANCH  23  25
ENDBRANCH  22  23
BRANCH  22  26
ATOM     26  C   UNL     1       3.599   7.284  17.718  0.00  0.00    +0.000 C 
BRANCH  26  27
ATOM     27  C   UNL     1       4.370   6.097  17.232  0.00  0.00    +0.000 C 
ATOM     28  C   UNL     1       5.182   6.262  15.968  0.00  0.00    +0.000 C 
ATOM     29  C   UNL     1       5.877   6.059  17.284  0.00  0.00    +0.000 C 
ENDBRANCH  26  27
ENDBRANCH  22  26
ENDBRANCH  21  22
ENDBRANCH   1  21
TORSDOF 8
ENDMDL
MODEL 9
REMARK VINA RESULT:      -5.9      2.446      8.017
REMARK  Name = 
REMARK  11 active torsions:
REMARK  status: ('A' for Active; 'I' for Inactive)
REMARK    1  A    between atoms: C_1  and  C_2
REMARK    2  A    between atoms: C_2  and  C_3
REMARK    3  A    between atoms: C_3  and  N_4
REMARK    4  A    between atoms: N_4  and  C_5
REMARK    5  A    between atoms: N_4  and  C_25
REMARK    6  A    between atoms: C_5  and  C_6
REMARK    7  A    between atoms: N_9  and  C_10
REMARK    8  A    between atoms: C_11  and  C_12
REMARK    9  A    between atoms: C_14  and  C_15
REMARK   10  A    between atoms: C_20  and  C_21
REMARK   11  A    between atoms: C_25  and  C_26
REMARK                            x       y       z     vdW  Elec       q    Type
REMARK                         _______ _______ _______ _____ _____    ______ ____
ROOT
ATOM      1  C   UNL     1       1.097   9.344  19.012  0.00  0.00    +0.000 A 
ATOM      2  S   UNL     1       2.039   9.035  17.599  0.00  0.00    +0.000 S 
ATOM      3  C   UNL     1       2.779   7.700  18.374  0.00  0.00    +0.000 A 
ATOM      4  N   UNL     1       3.532   6.850  17.640  0.00  0.00    +0.000 N 
ATOM      5  N   UNL     1       2.455   7.553  19.637  0.00  0.00    +0.000 NA
ATOM      6  C   UNL     1       1.461   8.461  20.022  0.00  0.00    +0.000 A 
ATOM      7  H   UNL     1       4.411   7.221  17.309  0.00  0.00    +0.000 HD
ENDROOT
BRANCH   4   8
ATOM      8  C   UNL     1       3.577   5.449  17.857  0.00  0.00    +0.000 A 
ATOM      9  C   UNL     1       2.440   4.614  17.740  0.00  0.00    +0.000 A 
ATOM     10  C   UNL     1       1.071   5.074  17.308  0.00  0.00    +0.000 C 
ATOM     11  C   UNL     1       2.552   3.243  18.034  0.00  0.00    +0.000 A 
ATOM     12  C   UNL     1       3.774   2.665  18.377  0.00  0.00    +0.000 A 
ATOM     13  C   UNL     1       3.861   1.201  18.686  0.00  0.00    +0.000 C 
ATOM     14  C   UNL     1       4.914   3.468  18.418  0.00  0.00    +0.000 A 
ATOM     15  C   UNL     1       4.815   4.839  18.164  0.00  0.00    +0.000 A 
ATOM     16 BR   UNL     1       6.421   5.864  18.247  0.00  0.00    +0.000 Br
ENDBRANCH   4   8
BRANCH   6  17
ATOM     17  C   UNL     1       0.865   8.330  21.397  0.00  0.00    +0.000 C 
ATOM     18  F   UNL     1       1.285   9.294  22.259  0.00  0.00    +0.000 F 
ATOM     19  F   UNL     1      -0.491   8.432  21.362  0.00  0.00    +0.000 F 
ATOM     20  F   UNL     1       1.155   7.136  21.977  0.00  0.00    +0.000 F 
ENDBRANCH   6  17
BRANCH   1  21
ATOM     21  C   UNL     1       0.034  10.407  18.969  0.00  0.00    +0.000 C 
BRANCH  21  22
ATOM     22  N   UNL     1       0.225  11.503  19.946  0.00  0.00    +0.000 NA
BRANCH  22  23
ATOM     23  C   UNL     1      -1.035  11.745  20.690  0.00  0.00    +0.000 C 
BRANCH  23  25
ATOM     24  C   UNL     1      -1.371  11.061  23.133  0.00  0.00    +0.000 C 
ATOM     25  C   UNL     1      -0.890  12.136  22.171  0.00  0.00    +0.000 C 
ENDBRANCH  23  25
ENDBRANCH  22  23
BRANCH  22  26
ATOM     26  C   UNL     1       0.633  12.740  19.248  0.00  0.00    +0.000 C 
BRANCH  26  27
ATOM     27  C   UNL     1       2.081  13.082  19.406  0.00  0.00    +0.000 C 
ATOM     28  C   UNL     1       2.907  13.219  18.148  0.00  0.00    +0.000 C 
ATOM     29  C   UNL     1       2.625  14.427  18.995  0.00  0.00    +0.000 C 
ENDBRANCH  26  27
ENDBRANCH  22  26
ENDBRANCH  21  22
ENDBRANCH   1  21
TORSDOF 8
ENDMDL
