MODEL 1
REMARK VINA RESULT:      -8.9      0.000      0.000
REMARK  Name = 
REMARK  3 active torsions:
REMARK  status: ('A' for Active; 'I' for Inactive)
REMARK    1  A    between atoms: N_1  and  C_2
REMARK    2  A    between atoms: C_5  and  C_6
REMARK    3  A    between atoms: C_14  and  C_15
REMARK                            x       y       z     vdW  Elec       q    Type
REMARK                         _______ _______ _______ _____ _____    ______ ____
ROOT
ATOM      1  C   UNL     1       4.168   4.033  18.863  0.00  0.00    +0.000 A 
ATOM      2  N   UNL     1       3.347   4.056  19.930  0.00  0.00    +0.000 NA
ATOM      3  C   UNL     1       2.650   5.191  20.165  0.00  0.00    +0.000 A 
ATOM      4  C   UNL     1       2.720   6.349  19.398  0.00  0.00    +0.000 A 
ATOM      5  C   UNL     1       3.572   6.270  18.285  0.00  0.00    +0.000 A 
ATOM      6  C   UNL     1       4.316   5.111  17.970  0.00  0.00    +0.000 A 
ENDROOT
BRANCH   6   7
ATOM      7  C   UNL     1       5.185   5.088  16.759  0.00  0.00    +0.000 A 
ATOM      8  C   UNL     1       6.474   5.661  16.768  0.00  0.00    +0.000 A 
ATOM      9  C   UNL     1       7.286   5.672  15.627  0.00  0.00    +0.000 A 
ATOM     10  C   UNL     1       6.844   5.062  14.454  0.00  0.00    +0.000 A 
ATOM     11  C   UNL     1       5.583   4.453  14.416  0.00  0.00    +0.000 A 
ATOM     12  C   UNL     1       4.754   4.516  15.546  0.00  0.00    +0.000 A 
ATOM     13  C   UNL     1       5.105   3.784  13.153  0.00  0.00    +0.000 C 
ATOM     14  C   UNL     1       6.298   3.257  12.360  0.00  0.00    +0.000 C 
ATOM     15  N   UNL     1       7.308   4.274  12.195  0.00  0.00    +0.000 N 
ATOM     16  C   UNL     1       7.716   5.062  13.248  0.00  0.00    +0.000 C 
ATOM     17  O   UNL     1       8.743   5.727  13.186  0.00  0.00    +0.000 OA
ATOM     18  H   UNL     1       7.982   4.206  11.440  0.00  0.00    +0.000 HD
ENDBRANCH   6   7
BRANCH   4  19
ATOM     19  C   UNL     1       1.952   7.573  19.726  0.00  0.00    +0.000 A 
ATOM     20  C   UNL     1       1.353   7.749  20.991  0.00  0.00    +0.000 A 
ATOM     21  C   UNL     1       0.623   8.902  21.299  0.00  0.00    +0.000 A 
ATOM     22  C   UNL     1       0.493   9.904  20.352  0.00  0.00    +0.000 A 
ATOM     23  F   UNL     1      -0.202  11.010  20.648  0.00  0.00    +0.000 F 
ATOM     24  C   UNL     1       1.074   9.774  19.101  0.00  0.00    +0.000 A 
ATOM     25  C   UNL     1       1.792   8.615  18.790  0.00  0.00    +0.000 A 
ENDBRANCH   4  19
BRANCH   1  26
ATOM     26  N   UNL     1       4.849   2.824  18.720  0.00  0.00    +0.000 N 
ATOM     27  H   UNL     1       4.469   2.376  17.889  0.00  0.00    +0.000 HD
ATOM     28  H   UNL     1       4.745   2.248  19.547  0.00  0.00    +0.000 HD
ENDBRANCH   1  26
TORSDOF 3
ENDMDL
MODEL 2
REMARK VINA RESULT:      -8.2      4.007      8.295
REMARK  Name = 
REMARK  3 active torsions:
REMARK  status: ('A' for Active; 'I' for Inactive)
REMARK    1  A    between atoms: N_1  and  C_2
REMARK    2  A    between atoms: C_5  and  C_6
REMARK    3  A    between atoms: C_14  and  C_15
REMARK                            x       y       z     vdW  Elec       q    Type
REMARK                         _______ _______ _______ _____ _____    ______ ____
ROOT
ATOM      1  C   UNL     1       3.472   4.913  19.352  0.00  0.00    +0.000 A 
ATOM      2  N   UNL     1       4.230   3.832  19.089  0.00  0.00    +0.000 NA
ATOM      3  C   UNL     1       4.888   3.796  17.907  0.00  0.00    +0.000 A 
ATOM      4  C   UNL     1       4.835   4.783  16.929  0.00  0.00    +0.000 A 
ATOM      5  C   UNL     1       4.049   5.899  17.258  0.00  0.00    +0.000 A 
ATOM      6  C   UNL     1       3.350   6.011  18.480  0.00  0.00    +0.000 A 
ENDROOT
BRANCH   6   7
ATOM      7  C   UNL     1       2.552   7.236  18.774  0.00  0.00    +0.000 A 
ATOM      8  C   UNL     1       2.235   8.167  17.763  0.00  0.00    +0.000 A 
ATOM      9  C   UNL     1       1.512   9.335  18.034  0.00  0.00    +0.000 A 
ATOM     10  C   UNL     1       1.043   9.578  19.323  0.00  0.00    +0.000 A 
ATOM     11  C   UNL     1       1.309   8.660  20.348  0.00  0.00    +0.000 A 
ATOM     12  C   UNL     1       2.097   7.531  20.074  0.00  0.00    +0.000 A 
ATOM     13  C   UNL     1       0.795   8.914  21.742  0.00  0.00    +0.000 C 
ATOM     14  C   UNL     1      -0.493   9.729  21.681  0.00  0.00    +0.000 C 
ATOM     15  N   UNL     1      -0.339  10.892  20.841  0.00  0.00    +0.000 N 
ATOM     16  C   UNL     1       0.262  10.812  19.605  0.00  0.00    +0.000 C 
ATOM     17  O   UNL     1       0.155  11.717  18.786  0.00  0.00    +0.000 OA
ATOM     18  H   UNL     1      -0.956  11.689  20.954  0.00  0.00    +0.000 HD
ENDBRANCH   6   7
BRANCH   4  19
ATOM     19  C   UNL     1       5.557   4.670  15.640  0.00  0.00    +0.000 A 
ATOM     20  C   UNL     1       5.004   3.973  14.546  0.00  0.00    +0.000 A 
ATOM     21  C   UNL     1       5.687   3.862  13.330  0.00  0.00    +0.000 A 
ATOM     22  C   UNL     1       6.927   4.461  13.183  0.00  0.00    +0.000 A 
ATOM     23  F   UNL     1       7.580   4.359  12.019  0.00  0.00    +0.000 F 
ATOM     24  C   UNL     1       7.501   5.164  14.231  0.00  0.00    +0.000 A 
ATOM     25  C   UNL     1       6.822   5.262  15.450  0.00  0.00    +0.000 A 
ENDBRANCH   4  19
BRANCH   1  26
ATOM     26  N   UNL     1       2.827   4.844  20.588  0.00  0.00    +0.000 N 
ATOM     27  H   UNL     1       2.769   3.856  20.826  0.00  0.00    +0.000 HD
ATOM     28  H   UNL     1       1.914   5.281  20.546  0.00  0.00    +0.000 HD
ENDBRANCH   1  26
TORSDOF 3
ENDMDL
MODEL 3
REMARK VINA RESULT:      -8.1      4.007      8.424
REMARK  Name = 
REMARK  3 active torsions:
REMARK  status: ('A' for Active; 'I' for Inactive)
REMARK    1  A    between atoms: N_1  and  C_2
REMARK    2  A    between atoms: C_5  and  C_6
REMARK    3  A    between atoms: C_14  and  C_15
REMARK                            x       y       z     vdW  Elec       q    Type
REMARK                         _______ _______ _______ _____ _____    ______ ____
ROOT
ATOM      1  C   UNL     1       2.936   5.050  19.987  0.00  0.00    +0.000 A 
ATOM      2  N   UNL     1       3.647   3.938  19.721  0.00  0.00    +0.000 NA
ATOM      3  C   UNL     1       4.389   3.919  18.590  0.00  0.00    +0.000 A 
ATOM      4  C   UNL     1       4.470   4.955  17.667  0.00  0.00    +0.000 A 
ATOM      5  C   UNL     1       3.730   6.101  17.997  0.00  0.00    +0.000 A 
ATOM      6  C   UNL     1       2.947   6.196  19.170  0.00  0.00    +0.000 A 
ENDROOT
BRANCH   6   7
ATOM      7  C   UNL     1       2.203   7.453  19.470  0.00  0.00    +0.000 A 
ATOM      8  C   UNL     1       1.871   8.372  18.453  0.00  0.00    +0.000 A 
ATOM      9  C   UNL     1       1.200   9.569  18.729  0.00  0.00    +0.000 A 
ATOM     10  C   UNL     1       0.797   9.855  20.032  0.00  0.00    +0.000 A 
ATOM     11  C   UNL     1       1.079   8.951  21.064  0.00  0.00    +0.000 A 
ATOM     12  C   UNL     1       1.817   7.791  20.782  0.00  0.00    +0.000 A 
ATOM     13  C   UNL     1       0.636   9.251  22.474  0.00  0.00    +0.000 C 
ATOM     14  C   UNL     1      -0.626  10.108  22.451  0.00  0.00    +0.000 C 
ATOM     15  N   UNL     1      -0.471  11.247  21.579  0.00  0.00    +0.000 N 
ATOM     16  C   UNL     1       0.070  11.121  20.320  0.00  0.00    +0.000 C 
ATOM     17  O   UNL     1      -0.043  12.012  19.486  0.00  0.00    +0.000 OA
ATOM     18  H   UNL     1      -1.057  12.066  21.701  0.00  0.00    +0.000 HD
ENDBRANCH   6   7
BRANCH   4  19
ATOM     19  C   UNL     1       5.281   4.861  16.430  0.00  0.00    +0.000 A 
ATOM     20  C   UNL     1       6.610   5.330  16.384  0.00  0.00    +0.000 A 
ATOM     21  C   UNL     1       7.374   5.247  15.215  0.00  0.00    +0.000 A 
ATOM     22  C   UNL     1       6.826   4.678  14.077  0.00  0.00    +0.000 A 
ATOM     23  F   UNL     1       7.558   4.593  12.959  0.00  0.00    +0.000 F 
ATOM     24  C   UNL     1       5.527   4.196  14.083  0.00  0.00    +0.000 A 
ATOM     25  C   UNL     1       4.760   4.292  15.250  0.00  0.00    +0.000 A 
ENDBRANCH   4  19
BRANCH   1  26
ATOM     26  N   UNL     1       2.195   4.961  21.166  0.00  0.00    +0.000 N 
ATOM     27  H   UNL     1       2.430   4.063  21.585  0.00  0.00    +0.000 HD
ATOM     28  H   UNL     1       1.203   5.049  20.979  0.00  0.00    +0.000 HD
ENDBRANCH   1  26
TORSDOF 3
ENDMDL
MODEL 4
REMARK VINA RESULT:      -8.0      4.027      8.494
REMARK  Name = 
REMARK  3 active torsions:
REMARK  status: ('A' for Active; 'I' for Inactive)
REMARK    1  A    between atoms: N_1  and  C_2
REMARK    2  A    between atoms: C_5  and  C_6
REMARK    3  A    between atoms: C_14  and  C_15
REMARK                            x       y       z     vdW  Elec       q    Type
REMARK                         _______ _______ _______ _____ _____    ______ ____
ROOT
ATOM      1  C   UNL     1       2.312   4.993  19.793  0.00  0.00    +0.000 A 
ATOM      2  N   UNL     1       2.934   3.844  19.466  0.00  0.00    +0.000 NA
ATOM      3  C   UNL     1       3.843   3.882  18.465  0.00  0.00    +0.000 A 
ATOM      4  C   UNL     1       4.182   5.013  17.731  0.00  0.00    +0.000 A 
ATOM      5  C   UNL     1       3.524   6.190  18.122  0.00  0.00    +0.000 A 
ATOM      6  C   UNL     1       2.577   6.227  19.170  0.00  0.00    +0.000 A 
ENDROOT
BRANCH   6   7
ATOM      7  C   UNL     1       1.932   7.517  19.548  0.00  0.00    +0.000 A 
ATOM      8  C   UNL     1       1.665   8.515  18.587  0.00  0.00    +0.000 A 
ATOM      9  C   UNL     1       1.088   9.742  18.936  0.00  0.00    +0.000 A 
ATOM     10  C   UNL     1       0.715   9.983  20.257  0.00  0.00    +0.000 A 
ATOM     11  C   UNL     1       0.934   9.003  21.234  0.00  0.00    +0.000 A 
ATOM     12  C   UNL     1       1.580   7.809  20.880  0.00  0.00    +0.000 A 
ATOM     13  C   UNL     1       0.524   9.256  22.663  0.00  0.00    +0.000 C 
ATOM     14  C   UNL     1      -0.671  10.205  22.701  0.00  0.00    +0.000 C 
ATOM     15  N   UNL     1      -0.435  11.376  21.893  0.00  0.00    +0.000 N 
ATOM     16  C   UNL     1       0.088  11.281  20.623  0.00  0.00    +0.000 C 
ATOM     17  O   UNL     1       0.037  12.224  19.841  0.00  0.00    +0.000 OA
ATOM     18  H   UNL     1      -0.957  12.229  22.066  0.00  0.00    +0.000 HD
ENDBRANCH   6   7
BRANCH   4  19
ATOM     19  C   UNL     1       5.167   4.983  16.625  0.00  0.00    +0.000 A 
ATOM     20  C   UNL     1       4.863   4.381  15.386  0.00  0.00    +0.000 A 
ATOM     21  C   UNL     1       5.794   4.347  14.342  0.00  0.00    +0.000 A 
ATOM     22  C   UNL     1       7.039   4.931  14.515  0.00  0.00    +0.000 A 
ATOM     23  F   UNL     1       7.929   4.903  13.515  0.00  0.00    +0.000 F 
ATOM     24  C   UNL     1       7.373   5.541  15.713  0.00  0.00    +0.000 A 
ATOM     25  C   UNL     1       6.445   5.561  16.760  0.00  0.00    +0.000 A 
ENDBRANCH   4  19
BRANCH   1  26
ATOM     26  N   UNL     1       1.385   4.842  20.825  0.00  0.00    +0.000 N 
ATOM     27  H   UNL     1       1.924   4.752  21.684  0.00  0.00    +0.000 HD
ATOM     28  H   UNL     1       0.788   4.040  20.661  0.00  0.00    +0.000 HD
ENDBRANCH   1  26
TORSDOF 3
ENDMDL
MODEL 5
REMARK VINA RESULT:      -7.8      4.129      8.066
REMARK  Name = 
REMARK  3 active torsions:
REMARK  status: ('A' for Active; 'I' for Inactive)
REMARK    1  A    between atoms: N_1  and  C_2
REMARK    2  A    between atoms: C_5  and  C_6
REMARK    3  A    between atoms: C_14  and  C_15
REMARK                            x       y       z     vdW  Elec       q    Type
REMARK                         _______ _______ _______ _____ _____    ______ ____
ROOT
ATOM      1  C   UNL     1       3.035   4.008  19.002  0.00  0.00    +0.000 A 
ATOM      2  N   UNL     1       3.659   2.920  18.512  0.00  0.00    +0.000 NA
ATOM      3  C   UNL     1       4.431   3.077  17.413  0.00  0.00    +0.000 A 
ATOM      4  C   UNL     1       4.626   4.274  16.734  0.00  0.00    +0.000 A 
ATOM      5  C   UNL     1       3.973   5.385  17.294  0.00  0.00    +0.000 A 
ATOM      6  C   UNL     1       3.166   5.296  18.450  0.00  0.00    +0.000 A 
ENDROOT
BRANCH   6   7
ATOM      7  C   UNL     1       2.520   6.520  19.005  0.00  0.00    +0.000 A 
ATOM      8  C   UNL     1       2.081   6.577  20.344  0.00  0.00    +0.000 A 
ATOM      9  C   UNL     1       1.446   7.710  20.866  0.00  0.00    +0.000 A 
ATOM     10  C   UNL     1       1.278   8.841  20.069  0.00  0.00    +0.000 A 
ATOM     11  C   UNL     1       1.731   8.834  18.743  0.00  0.00    +0.000 A 
ATOM     12  C   UNL     1       2.298   7.665  18.215  0.00  0.00    +0.000 A 
ATOM     13  C   UNL     1       1.559  10.059  17.881  0.00  0.00    +0.000 C 
ATOM     14  C   UNL     1       1.572  11.313  18.749  0.00  0.00    +0.000 C 
ATOM     15  N   UNL     1       0.662  11.190  19.862  0.00  0.00    +0.000 N 
ATOM     16  C   UNL     1       0.616  10.049  20.631  0.00  0.00    +0.000 C 
ATOM     17  O   UNL     1       0.055  10.038  21.721  0.00  0.00    +0.000 OA
ATOM     18  H   UNL     1       0.307  12.020  20.325  0.00  0.00    +0.000 HD
ENDBRANCH   6   7
BRANCH   4  19
ATOM     19  C   UNL     1       5.463   4.376  15.516  0.00  0.00    +0.000 A 
ATOM     20  C   UNL     1       6.644   5.146  15.496  0.00  0.00    +0.000 A 
ATOM     21  C   UNL     1       7.432   5.247  14.345  0.00  0.00    +0.000 A 
ATOM     22  C   UNL     1       7.060   4.564  13.198  0.00  0.00    +0.000 A 
ATOM     23  F   UNL     1       7.816   4.656  12.097  0.00  0.00    +0.000 F 
ATOM     24  C   UNL     1       5.912   3.788  13.179  0.00  0.00    +0.000 A 
ATOM     25  C   UNL     1       5.118   3.700  14.327  0.00  0.00    +0.000 A 
ENDBRANCH   4  19
BRANCH   1  26
ATOM     26  N   UNL     1       2.254   3.734  20.126  0.00  0.00    +0.000 N 
ATOM     27  H   UNL     1       2.855   3.236  20.779  0.00  0.00    +0.000 HD
ATOM     28  H   UNL     1       1.432   3.197  19.875  0.00  0.00    +0.000 HD
ENDBRANCH   1  26
TORSDOF 3
ENDMDL
MODEL 6
REMARK VINA RESULT:      -7.7      4.149      8.161
REMARK  Name = 
REMARK  3 active torsions:
REMARK  status: ('A' for Active; 'I' for Inactive)
REMARK    1  A    between atoms: N_1  and  C_2
REMARK    2  A    between atoms: C_5  and  C_6
REMARK    3  A    between atoms: C_14  and  C_15
REMARK                            x       y       z     vdW  Elec       q    Type
REMARK                         _______ _______ _______ _____ _____    ______ ____
ROOT
ATOM      1  C   UNL     1       2.914   4.610  19.873  0.00  0.00    +0.000 A 
ATOM      2  N   UNL     1       3.611   3.517  19.508  0.00  0.00    +0.000 NA
ATOM      3  C   UNL     1       4.387   3.603  18.404  0.00  0.00    +0.000 A 
ATOM      4  C   UNL     1       4.517   4.730  17.600  0.00  0.00    +0.000 A 
ATOM      5  C   UNL     1       3.789   5.851  18.032  0.00  0.00    +0.000 A 
ATOM      6  C   UNL     1       2.973   5.837  19.185  0.00  0.00    +0.000 A 
ENDROOT
BRANCH   6   7
ATOM      7  C   UNL     1       2.245   7.070  19.599  0.00  0.00    +0.000 A 
ATOM      8  C   UNL     1       1.710   7.208  20.898  0.00  0.00    +0.000 A 
ATOM      9  C   UNL     1       0.999   8.349  21.287  0.00  0.00    +0.000 A 
ATOM     10  C   UNL     1       0.846   9.410  20.395  0.00  0.00    +0.000 A 
ATOM     11  C   UNL     1       1.392   9.324  19.108  0.00  0.00    +0.000 A 
ATOM     12  C   UNL     1       2.038   8.143  18.711  0.00  0.00    +0.000 A 
ATOM     13  C   UNL     1       1.237  10.473  18.144  0.00  0.00    +0.000 C 
ATOM     14  C   UNL     1       1.143  11.788  18.912  0.00  0.00    +0.000 C 
ATOM     15  N   UNL     1       0.161  11.709  19.967  0.00  0.00    +0.000 N 
ATOM     16  C   UNL     1       0.103  10.628  20.817  0.00  0.00    +0.000 C 
ATOM     17  O   UNL     1      -0.533  10.674  21.864  0.00  0.00    +0.000 OA
ATOM     18  H   UNL     1      -0.256  12.556  20.340  0.00  0.00    +0.000 HD
ENDBRANCH   6   7
BRANCH   4  19
ATOM     19  C   UNL     1       5.362   4.752  16.384  0.00  0.00    +0.000 A 
ATOM     20  C   UNL     1       4.962   4.101  15.198  0.00  0.00    +0.000 A 
ATOM     21  C   UNL     1       5.762   4.116  14.050  0.00  0.00    +0.000 A 
ATOM     22  C   UNL     1       6.968   4.798  14.065  0.00  0.00    +0.000 A 
ATOM     23  F   UNL     1       7.733   4.817  12.966  0.00  0.00    +0.000 F 
ATOM     24  C   UNL     1       7.393   5.458  15.207  0.00  0.00    +0.000 A 
ATOM     25  C   UNL     1       6.597   5.430  16.357  0.00  0.00    +0.000 A 
ENDBRANCH   4  19
BRANCH   1  26
ATOM     26  N   UNL     1       2.136   4.411  21.014  0.00  0.00    +0.000 N 
ATOM     27  H   UNL     1       2.782   4.168  21.763  0.00  0.00    +0.000 HD
ATOM     28  H   UNL     1       1.442   3.690  20.858  0.00  0.00    +0.000 HD
ENDBRANCH   1  26
TORSDOF 3
ENDMDL
MODEL 7
REMARK VINA RESULT:      -7.6      3.624      6.056
REMARK  Name = 
REMARK  3 active torsions:
REMARK  status: ('A' for Active; 'I' for Inactive)
REMARK    1  A    between atoms: N_1  and  C_2
REMARK    2  A    between atoms: C_5  and  C_6
REMARK    3  A    between atoms: C_14  and  C_15
REMARK                            x       y       z     vdW  Elec       q    Type
REMARK                         _______ _______ _______ _____ _____    ______ ____
ROOT
ATOM      1  C   UNL     1       1.270   9.292  21.549  0.00  0.00    +0.000 A 
ATOM      2  N   UNL     1       0.534  10.391  21.799  0.00  0.00    +0.000 NA
ATOM      3  C   UNL     1      -0.395  10.751  20.883  0.00  0.00    +0.000 A 
ATOM      4  C   UNL     1      -0.645  10.082  19.690  0.00  0.00    +0.000 A 
ATOM      5  C   UNL     1       0.132   8.931  19.483  0.00  0.00    +0.000 A 
ATOM      6  C   UNL     1       1.107   8.489  20.405  0.00  0.00    +0.000 A 
ENDROOT
BRANCH   6   7
ATOM      7  C   UNL     1       1.881   7.244  20.132  0.00  0.00    +0.000 A 
ATOM      8  C   UNL     1       1.667   6.066  20.878  0.00  0.00    +0.000 A 
ATOM      9  C   UNL     1       2.410   4.902  20.650  0.00  0.00    +0.000 A 
ATOM     10  C   UNL     1       3.358   4.871  19.629  0.00  0.00    +0.000 A 
ATOM     11  C   UNL     1       3.576   6.011  18.845  0.00  0.00    +0.000 A 
ATOM     12  C   UNL     1       2.875   7.191  19.135  0.00  0.00    +0.000 A 
ATOM     13  C   UNL     1       4.594   5.980  17.734  0.00  0.00    +0.000 C 
ATOM     14  C   UNL     1       4.717   4.563  17.180  0.00  0.00    +0.000 C 
ATOM     15  N   UNL     1       4.904   3.601  18.238  0.00  0.00    +0.000 N 
ATOM     16  C   UNL     1       4.135   3.627  19.380  0.00  0.00    +0.000 C 
ATOM     17  O   UNL     1       4.100   2.672  20.146  0.00  0.00    +0.000 OA
ATOM     18  H   UNL     1       5.325   2.699  18.040  0.00  0.00    +0.000 HD
ENDBRANCH   6   7
BRANCH   4  19
ATOM     19  C   UNL     1      -1.658  10.544  18.713  0.00  0.00    +0.000 A 
ATOM     20  C   UNL     1      -1.683  10.052  17.391  0.00  0.00    +0.000 A 
ATOM     21  C   UNL     1      -2.636  10.491  16.465  0.00  0.00    +0.000 A 
ATOM     22  C   UNL     1      -3.591  11.418  16.853  0.00  0.00    +0.000 A 
ATOM     23  F   UNL     1      -4.506  11.835  15.969  0.00  0.00    +0.000 F 
ATOM     24  C   UNL     1      -3.607  11.918  18.144  0.00  0.00    +0.000 A 
ATOM     25  C   UNL     1      -2.645  11.488  19.064  0.00  0.00    +0.000 A 
ENDBRANCH   4  19
BRANCH   1  26
ATOM     26  N   UNL     1       2.207   9.019  22.546  0.00  0.00    +0.000 N 
ATOM     27  H   UNL     1       3.121   9.214  22.143  0.00  0.00    +0.000 HD
ATOM     28  H   UNL     1       2.126   8.061  22.867  0.00  0.00    +0.000 HD
ENDBRANCH   1  26
TORSDOF 3
ENDMDL
MODEL 8
REMARK VINA RESULT:      -7.5      4.336      6.510
REMARK  Name = 
REMARK  3 active torsions:
REMARK  status: ('A' for Active; 'I' for Inactive)
REMARK    1  A    between atoms: N_1  and  C_2
REMARK    2  A    between atoms: C_5  and  C_6
REMARK    3  A    between atoms: C_14  and  C_15
REMARK                            x       y       z     vdW  Elec       q    Type
REMARK                         _______ _______ _______ _____ _____    ______ ____
ROOT
ATOM      1  C   UNL     1       1.256   9.320  21.641  0.00  0.00    +0.000 A 
ATOM      2  N   UNL     1       0.558  10.445  21.884  0.00  0.00    +0.000 NA
ATOM      3  C   UNL     1      -0.377  10.815  20.980  0.00  0.00    +0.000 A 
ATOM      4  C   UNL     1      -0.671  10.133  19.805  0.00  0.00    +0.000 A 
ATOM      5  C   UNL     1       0.067   8.955  19.605  0.00  0.00    +0.000 A 
ATOM      6  C   UNL     1       1.046   8.501  20.516  0.00  0.00    +0.000 A 
ENDROOT
BRANCH   6   7
ATOM      7  C   UNL     1       1.778   7.228  20.252  0.00  0.00    +0.000 A 
ATOM      8  C   UNL     1       2.896   7.187  19.393  0.00  0.00    +0.000 A 
ATOM      9  C   UNL     1       3.570   5.993  19.114  0.00  0.00    +0.000 A 
ATOM     10  C   UNL     1       3.171   4.809  19.733  0.00  0.00    +0.000 A 
ATOM     11  C   UNL     1       2.086   4.816  20.618  0.00  0.00    +0.000 A 
ATOM     12  C   UNL     1       1.376   6.008  20.829  0.00  0.00    +0.000 A 
ATOM     13  C   UNL     1       1.656   3.539  21.296  0.00  0.00    +0.000 C 
ATOM     14  C   UNL     1       2.856   2.614  21.472  0.00  0.00    +0.000 C 
ATOM     15  N   UNL     1       3.585   2.461  20.236  0.00  0.00    +0.000 N 
ATOM     16  C   UNL     1       3.900   3.544  19.447  0.00  0.00    +0.000 C 
ATOM     17  O   UNL     1       4.736   3.461  18.555  0.00  0.00    +0.000 OA
ATOM     18  H   UNL     1       4.182   1.653  20.092  0.00  0.00    +0.000 HD
ENDBRANCH   6   7
BRANCH   4  19
ATOM     19  C   UNL     1      -1.689  10.607  18.838  0.00  0.00    +0.000 A 
ATOM     20  C   UNL     1      -1.732  10.117  17.516  0.00  0.00    +0.000 A 
ATOM     21  C   UNL     1      -2.690  10.568  16.601  0.00  0.00    +0.000 A 
ATOM     22  C   UNL     1      -3.631  11.504  16.999  0.00  0.00    +0.000 A 
ATOM     23  F   UNL     1      -4.550  11.932  16.125  0.00  0.00    +0.000 F 
ATOM     24  C   UNL     1      -3.629  12.002  18.292  0.00  0.00    +0.000 A 
ATOM     25  C   UNL     1      -2.662  11.560  19.201  0.00  0.00    +0.000 A 
ENDBRANCH   4  19
BRANCH   1  26
ATOM     26  N   UNL     1       2.204   9.037  22.626  0.00  0.00    +0.000 N 
ATOM     27  H   UNL     1       2.194   9.827  23.268  0.00  0.00    +0.000 HD
ATOM     28  H   UNL     1       3.118   8.886  22.217  0.00  0.00    +0.000 HD
ENDBRANCH   1  26
TORSDOF 3
ENDMDL
MODEL 9
REMARK VINA RESULT:      -7.5      4.515      8.351
REMARK  Name = 
REMARK  3 active torsions:
REMARK  status: ('A' for Active; 'I' for Inactive)
REMARK    1  A    between atoms: N_1  and  C_2
REMARK    2  A    between atoms: C_5  and  C_6
REMARK    3  A    between atoms: C_14  and  C_15
REMARK                            x       y       z     vdW  Elec       q    Type
REMARK                         _______ _______ _______ _____ _____    ______ ____
ROOT
ATOM      1  C   UNL     1       2.285   6.912  20.045  0.00  0.00    +0.000 A 
ATOM      2  N   UNL     1       2.987   5.773  20.197  0.00  0.00    +0.000 NA
ATOM      3  C   UNL     1       3.725   5.342  19.148  0.00  0.00    +0.000 A 
ATOM      4  C   UNL     1       3.810   5.975  17.913  0.00  0.00    +0.000 A 
ATOM      5  C   UNL     1       3.078   7.169  17.809  0.00  0.00    +0.000 A 
ATOM      6  C   UNL     1       2.300   7.686  18.870  0.00  0.00    +0.000 A 
ENDROOT
BRANCH   6   7
ATOM      7  C   UNL     1       1.566   8.972  18.698  0.00  0.00    +0.000 A 
ATOM      8  C   UNL     1       2.241  10.211  18.707  0.00  0.00    +0.000 A 
ATOM      9  C   UNL     1       1.557  11.426  18.578  0.00  0.00    +0.000 A 
ATOM     10  C   UNL     1       0.177  11.429  18.385  0.00  0.00    +0.000 A 
ATOM     11  C   UNL     1      -0.524  10.217  18.336  0.00  0.00    +0.000 A 
ATOM     12  C   UNL     1       0.167   9.013  18.542  0.00  0.00    +0.000 A 
ATOM     13  C   UNL     1      -2.016  10.216  18.118  0.00  0.00    +0.000 C 
ATOM     14  C   UNL     1      -2.423  11.436  17.297  0.00  0.00    +0.000 C 
ATOM     15  N   UNL     1      -1.864  12.647  17.846  0.00  0.00    +0.000 N 
ATOM     16  C   UNL     1      -0.545  12.721  18.232  0.00  0.00    +0.000 C 
ATOM     17  O   UNL     1      -0.001  13.800  18.439  0.00  0.00    +0.000 OA
ATOM     18  H   UNL     1      -2.289  13.545  17.639  0.00  0.00    +0.000 HD
ENDBRANCH   6   7
BRANCH   4  19
ATOM     19  C   UNL     1       4.615   5.436  16.792  0.00  0.00    +0.000 A 
ATOM     20  C   UNL     1       5.168   6.284  15.810  0.00  0.00    +0.000 A 
ATOM     21  C   UNL     1       5.924   5.775  14.748  0.00  0.00    +0.000 A 
ATOM     22  C   UNL     1       6.152   4.411  14.661  0.00  0.00    +0.000 A 
ATOM     23  F   UNL     1       6.879   3.924  13.648  0.00  0.00    +0.000 F 
ATOM     24  C   UNL     1       5.634   3.546  15.611  0.00  0.00    +0.000 A 
ATOM     25  C   UNL     1       4.867   4.055  16.664  0.00  0.00    +0.000 A 
ENDBRANCH   4  19
BRANCH   1  26
ATOM     26  N   UNL     1       1.547   7.259  21.178  0.00  0.00    +0.000 N 
ATOM     27  H   UNL     1       0.869   6.513  21.318  0.00  0.00    +0.000 HD
ATOM     28  H   UNL     1       1.105   8.163  21.061  0.00  0.00    +0.000 HD
ENDBRANCH   1  26
TORSDOF 3
ENDMDL
