MODEL 1
REMARK VINA RESULT:      -7.6      0.000      0.000
REMARK  Name = 
REMARK  3 active torsions:
REMARK  status: ('A' for Active; 'I' for Inactive)
REMARK    1  A    between atoms: C_2  and  C_3
REMARK    2  A    between atoms: N_6  and  C_7
REMARK    3  A    between atoms: C_19  and  N_20
REMARK                            x       y       z     vdW  Elec       q    Type
REMARK                         _______ _______ _______ _____ _____    ______ ____
ROOT
ATOM      1  C   UNL     1       2.517   7.524  19.384  0.00  0.00    +0.000 C 
ATOM      2  C   UNL     1       2.158   7.951  17.960  0.00  0.00    +0.000 C 
ATOM      3  C   UNL     1       1.674   9.376  18.123  0.00  0.00    +0.000 C 
ATOM      4  N   UNL     1       1.085   9.395  19.440  0.00  0.00    +0.000 N 
ATOM      5  C   UNL     1       1.514   8.293  20.206  0.00  0.00    +0.000 C 
ATOM      6  O   UNL     1       1.198   8.009  21.353  0.00  0.00    +0.000 OA
ENDROOT
BRANCH   1   8
ATOM      7  O   UNL     1       1.444   5.455  19.952  0.00  0.00    +0.000 OA
ATOM      8  C   UNL     1       2.467   6.019  19.551  0.00  0.00    +0.000 C 
ATOM      9  N   UNL     1       3.577   5.293  19.177  0.00  0.00    +0.000 N 
ATOM     10  C   UNL     1       3.514   3.852  19.023  0.00  0.00    +0.000 C 
ATOM     11  C   UNL     1       4.956   3.387  19.118  0.00  0.00    +0.000 C 
ATOM     12  C   UNL     1       5.765   4.558  18.552  0.00  0.00    +0.000 C 
ATOM     13  C   UNL     1       4.918   5.793  18.886  0.00  0.00    +0.000 C 
BRANCH  12  14
ATOM     14  N   UNL     1       6.060   4.427  17.136  0.00  0.00    +0.000 N 
ATOM     15  C   UNL     1       5.219   3.934  16.175  0.00  0.00    +0.000 A 
ATOM     16  C   UNL     1       5.896   4.014  14.985  0.00  0.00    +0.000 A 
ATOM     17  C   UNL     1       7.145   4.569  15.324  0.00  0.00    +0.000 A 
ATOM     18  N   UNL     1       7.253   4.815  16.634  0.00  0.00    +0.000 NA
ENDBRANCH  12  14
ENDBRANCH   1   8
BRANCH   4  19
ATOM     19  C   UNL     1       0.310  10.479  19.923  0.00  0.00    +0.000 A 
ATOM     20  C   UNL     1      -0.984  10.708  19.429  0.00  0.00    +0.000 A 
ATOM     21  C   UNL     1      -1.745  11.795  19.868  0.00  0.00    +0.000 A 
ATOM     22  C   UNL     1      -1.212  12.672  20.797  0.00  0.00    +0.000 A 
ATOM     23  F   UNL     1      -1.924  13.734  21.190  0.00  0.00    +0.000 F 
ATOM     24  C   UNL     1       0.057  12.460  21.322  0.00  0.00    +0.000 A 
ATOM     25  C   UNL     1       0.808  11.355  20.901  0.00  0.00    +0.000 A 
ENDBRANCH   4  19
TORSDOF 3
ENDMDL
MODEL 2
REMARK VINA RESULT:      -7.3      0.923      1.093
REMARK  Name = 
REMARK  3 active torsions:
REMARK  status: ('A' for Active; 'I' for Inactive)
REMARK    1  A    between atoms: C_2  and  C_3
REMARK    2  A    between atoms: N_6  and  C_7
REMARK    3  A    between atoms: C_19  and  N_20
REMARK                            x       y       z     vdW  Elec       q    Type
REMARK                         _______ _______ _______ _____ _____    ______ ____
ROOT
ATOM      1  C   UNL     1       2.491   7.426  19.195  0.00  0.00    +0.000 C 
ATOM      2  C   UNL     1       1.871   8.039  17.938  0.00  0.00    +0.000 C 
ATOM      3  C   UNL     1       1.508   9.445  18.364  0.00  0.00    +0.000 C 
ATOM      4  N   UNL     1       1.204   9.315  19.769  0.00  0.00    +0.000 N 
ATOM      5  C   UNL     1       1.721   8.114  20.294  0.00  0.00    +0.000 C 
ATOM      6  O   UNL     1       1.633   7.697  21.440  0.00  0.00    +0.000 OA
ENDROOT
BRANCH   1   8
ATOM      7  O   UNL     1       1.347   5.341  19.503  0.00  0.00    +0.000 OA
ATOM      8  C   UNL     1       2.395   5.915  19.191  0.00  0.00    +0.000 C 
ATOM      9  N   UNL     1       3.494   5.201  18.764  0.00  0.00    +0.000 N 
ATOM     10  C   UNL     1       3.395   3.789  18.448  0.00  0.00    +0.000 C 
ATOM     11  C   UNL     1       4.822   3.272  18.524  0.00  0.00    +0.000 C 
ATOM     12  C   UNL     1       5.676   4.474  18.111  0.00  0.00    +0.000 C 
ATOM     13  C   UNL     1       4.856   5.689  18.561  0.00  0.00    +0.000 C 
BRANCH  12  14
ATOM     14  N   UNL     1       6.005   4.492  16.697  0.00  0.00    +0.000 N 
ATOM     15  C   UNL     1       5.172   4.148  15.667  0.00  0.00    +0.000 A 
ATOM     16  C   UNL     1       5.883   4.333  14.509  0.00  0.00    +0.000 A 
ATOM     17  C   UNL     1       7.144   4.791  14.938  0.00  0.00    +0.000 A 
ATOM     18  N   UNL     1       7.226   4.883  16.269  0.00  0.00    +0.000 NA
ENDBRANCH  12  14
ENDBRANCH   1   8
BRANCH   4  19
ATOM     19  C   UNL     1       0.604  10.352  20.527  0.00  0.00    +0.000 A 
ATOM     20  C   UNL     1       0.991  11.689  20.343  0.00  0.00    +0.000 A 
ATOM     21  C   UNL     1       0.436  12.716  21.110  0.00  0.00    +0.000 A 
ATOM     22  C   UNL     1      -0.504  12.413  22.080  0.00  0.00    +0.000 A 
ATOM     23  F   UNL     1      -1.009  13.390  22.842  0.00  0.00    +0.000 F 
ATOM     24  C   UNL     1      -0.925  11.103  22.272  0.00  0.00    +0.000 A 
ATOM     25  C   UNL     1      -0.387  10.077  21.483  0.00  0.00    +0.000 A 
ENDBRANCH   4  19
TORSDOF 3
ENDMDL
MODEL 3
REMARK VINA RESULT:      -7.2      3.864      8.885
REMARK  Name = 
REMARK  3 active torsions:
REMARK  status: ('A' for Active; 'I' for Inactive)
REMARK    1  A    between atoms: C_2  and  C_3
REMARK    2  A    between atoms: N_6  and  C_7
REMARK    3  A    between atoms: C_19  and  N_20
REMARK                            x       y       z     vdW  Elec       q    Type
REMARK                         _______ _______ _______ _____ _____    ______ ____
ROOT
ATOM      1  C   UNL     1       1.308   9.609  19.599  0.00  0.00    +0.000 C 
ATOM      2  C   UNL     1       0.960   8.535  20.631  0.00  0.00    +0.000 C 
ATOM      3  C   UNL     1       1.960   7.433  20.356  0.00  0.00    +0.000 C 
ATOM      4  N   UNL     1       2.206   7.533  18.938  0.00  0.00    +0.000 N 
ATOM      5  C   UNL     1       1.792   8.782  18.434  0.00  0.00    +0.000 C 
ATOM      6  O   UNL     1       1.851   9.182  17.281  0.00  0.00    +0.000 OA
ENDROOT
BRANCH   1   8
ATOM      7  O   UNL     1      -1.020  10.059  19.242  0.00  0.00    +0.000 OA
ATOM      8  C   UNL     1       0.128  10.510  19.302  0.00  0.00    +0.000 C 
ATOM      9  N   UNL     1       0.367  11.861  19.168  0.00  0.00    +0.000 N 
ATOM     10  C   UNL     1      -0.721  12.820  19.179  0.00  0.00    +0.000 C 
ATOM     11  C   UNL     1      -0.151  14.063  18.518  0.00  0.00    +0.000 C 
ATOM     12  C   UNL     1       1.338  14.026  18.873  0.00  0.00    +0.000 C 
ATOM     13  C   UNL     1       1.654  12.531  19.004  0.00  0.00    +0.000 C 
BRANCH  12  14
ATOM     14  N   UNL     1       1.668  14.791  20.063  0.00  0.00    +0.000 N 
ATOM     15  C   UNL     1       1.216  16.046  20.370  0.00  0.00    +0.000 A 
ATOM     16  C   UNL     1       1.760  16.370  21.587  0.00  0.00    +0.000 A 
ATOM     17  C   UNL     1       2.532  15.247  21.941  0.00  0.00    +0.000 A 
ATOM     18  N   UNL     1       2.486  14.285  21.012  0.00  0.00    +0.000 NA
ENDBRANCH  12  14
ENDBRANCH   1   8
BRANCH   4  19
ATOM     19  C   UNL     1       2.919   6.549  18.208  0.00  0.00    +0.000 A 
ATOM     20  C   UNL     1       2.436   5.234  18.119  0.00  0.00    +0.000 A 
ATOM     21  C   UNL     1       3.147   4.245  17.435  0.00  0.00    +0.000 A 
ATOM     22  C   UNL     1       4.359   4.559  16.844  0.00  0.00    +0.000 A 
ATOM     23  F   UNL     1       5.060   3.606  16.221  0.00  0.00    +0.000 F 
ATOM     24  C   UNL     1       4.854   5.857  16.894  0.00  0.00    +0.000 A 
ATOM     25  C   UNL     1       4.126   6.854  17.557  0.00  0.00    +0.000 A 
ENDBRANCH   4  19
TORSDOF 3
ENDMDL
MODEL 4
REMARK VINA RESULT:      -7.1      3.717      9.379
REMARK  Name = 
REMARK  3 active torsions:
REMARK  status: ('A' for Active; 'I' for Inactive)
REMARK    1  A    between atoms: C_2  and  C_3
REMARK    2  A    between atoms: N_6  and  C_7
REMARK    3  A    between atoms: C_19  and  N_20
REMARK                            x       y       z     vdW  Elec       q    Type
REMARK                         _______ _______ _______ _____ _____    ______ ____
ROOT
ATOM      1  C   UNL     1       0.703  10.249  19.758  0.00  0.00    +0.000 C 
ATOM      2  C   UNL     1       1.431  10.278  18.413  0.00  0.00    +0.000 C 
ATOM      3  C   UNL     1       1.690   8.818  18.112  0.00  0.00    +0.000 C 
ATOM      4  N   UNL     1       1.846   8.216  19.415  0.00  0.00    +0.000 N 
ATOM      5  C   UNL     1       1.322   9.046  20.426  0.00  0.00    +0.000 C 
ATOM      6  O   UNL     1       1.302   8.840  21.630  0.00  0.00    +0.000 OA
ENDROOT
BRANCH   1   8
ATOM      7  O   UNL     1       1.830  12.290  20.318  0.00  0.00    +0.000 OA
ATOM      8  C   UNL     1       0.857  11.553  20.511  0.00  0.00    +0.000 C 
ATOM      9  N   UNL     1      -0.156  11.925  21.368  0.00  0.00    +0.000 N 
ATOM     10  C   UNL     1      -0.234  13.274  21.896  0.00  0.00    +0.000 C 
ATOM     11  C   UNL     1      -1.111  13.159  23.131  0.00  0.00    +0.000 C 
ATOM     12  C   UNL     1      -2.065  12.006  22.805  0.00  0.00    +0.000 C 
ATOM     13  C   UNL     1      -1.254  11.103  21.868  0.00  0.00    +0.000 C 
BRANCH  12  14
ATOM     14  N   UNL     1      -3.328  12.443  22.235  0.00  0.00    +0.000 N 
ATOM     15  C   UNL     1      -3.551  12.786  20.929  0.00  0.00    +0.000 A 
ATOM     16  C   UNL     1      -4.880  13.112  20.833  0.00  0.00    +0.000 A 
ATOM     17  C   UNL     1      -5.383  12.938  22.136  0.00  0.00    +0.000 A 
ATOM     18  N   UNL     1      -4.440  12.538  22.996  0.00  0.00    +0.000 NA
ENDBRANCH  12  14
ENDBRANCH   1   8
BRANCH   4  19
ATOM     19  C   UNL     1       2.320   6.893  19.602  0.00  0.00    +0.000 A 
ATOM     20  C   UNL     1       3.382   6.399  18.830  0.00  0.00    +0.000 A 
ATOM     21  C   UNL     1       3.835   5.085  18.977  0.00  0.00    +0.000 A 
ATOM     22  C   UNL     1       3.218   4.248  19.891  0.00  0.00    +0.000 A 
ATOM     23  F   UNL     1       3.625   2.979  20.008  0.00  0.00    +0.000 F 
ATOM     24  C   UNL     1       2.179   4.714  20.687  0.00  0.00    +0.000 A 
ATOM     25  C   UNL     1       1.744   6.040  20.557  0.00  0.00    +0.000 A 
ENDBRANCH   4  19
TORSDOF 3
ENDMDL
MODEL 5
REMARK VINA RESULT:      -7.0      4.225     10.229
REMARK  Name = 
REMARK  3 active torsions:
REMARK  status: ('A' for Active; 'I' for Inactive)
REMARK    1  A    between atoms: C_2  and  C_3
REMARK    2  A    between atoms: N_6  and  C_7
REMARK    3  A    between atoms: C_19  and  N_20
REMARK                            x       y       z     vdW  Elec       q    Type
REMARK                         _______ _______ _______ _____ _____    ______ ____
ROOT
ATOM      1  C   UNL     1      -0.556  11.168  21.023  0.00  0.00    +0.000 C 
ATOM      2  C   UNL     1      -0.791  11.464  19.540  0.00  0.00    +0.000 C 
ATOM      3  C   UNL     1      -0.321  10.206  18.843  0.00  0.00    +0.000 C 
ATOM      4  N   UNL     1       0.733   9.709  19.694  0.00  0.00    +0.000 N 
ATOM      5  C   UNL     1       0.667  10.285  20.978  0.00  0.00    +0.000 C 
ATOM      6  O   UNL     1       1.411  10.089  21.928  0.00  0.00    +0.000 OA
ENDROOT
BRANCH   1   8
ATOM      7  O   UNL     1       0.598  13.151  21.720  0.00  0.00    +0.000 OA
ATOM      8  C   UNL     1      -0.404  12.437  21.834  0.00  0.00    +0.000 C 
ATOM      9  N   UNL     1      -1.449  12.806  22.653  0.00  0.00    +0.000 N 
ATOM     10  C   UNL     1      -1.516  14.136  23.229  0.00  0.00    +0.000 C 
ATOM     11  C   UNL     1      -2.459  14.000  24.412  0.00  0.00    +0.000 C 
ATOM     12  C   UNL     1      -3.427  12.890  23.993  0.00  0.00    +0.000 C 
ATOM     13  C   UNL     1      -2.595  11.999  23.062  0.00  0.00    +0.000 C 
BRANCH  12  14
ATOM     14  N   UNL     1      -4.645  13.387  23.377  0.00  0.00    +0.000 N 
ATOM     15  C   UNL     1      -5.292  14.553  23.686  0.00  0.00    +0.000 A 
ATOM     16  C   UNL     1      -6.376  14.633  22.851  0.00  0.00    +0.000 A 
ATOM     17  C   UNL     1      -6.307  13.464  22.068  0.00  0.00    +0.000 A 
ATOM     18  N   UNL     1      -5.259  12.698  22.390  0.00  0.00    +0.000 NA
ENDBRANCH  12  14
ENDBRANCH   1   8
BRANCH   4  19
ATOM     19  C   UNL     1       1.605   8.659  19.310  0.00  0.00    +0.000 A 
ATOM     20  C   UNL     1       2.271   8.699  18.074  0.00  0.00    +0.000 A 
ATOM     21  C   UNL     1       3.103   7.654  17.665  0.00  0.00    +0.000 A 
ATOM     22  C   UNL     1       3.268   6.551  18.485  0.00  0.00    +0.000 A 
ATOM     23  F   UNL     1       4.034   5.532  18.080  0.00  0.00    +0.000 F 
ATOM     24  C   UNL     1       2.641   6.491  19.724  0.00  0.00    +0.000 A 
ATOM     25  C   UNL     1       1.828   7.552  20.144  0.00  0.00    +0.000 A 
ENDBRANCH   4  19
TORSDOF 3
ENDMDL
MODEL 6
REMARK VINA RESULT:      -6.8      4.468     10.481
REMARK  Name = 
REMARK  3 active torsions:
REMARK  status: ('A' for Active; 'I' for Inactive)
REMARK    1  A    between atoms: C_2  and  C_3
REMARK    2  A    between atoms: N_6  and  C_7
REMARK    3  A    between atoms: C_19  and  N_20
REMARK                            x       y       z     vdW  Elec       q    Type
REMARK                         _______ _______ _______ _____ _____    ______ ____
ROOT
ATOM      1  C   UNL     1      -0.840  11.350  21.350  0.00  0.00    +0.000 C 
ATOM      2  C   UNL     1      -1.244  11.634  19.902  0.00  0.00    +0.000 C 
ATOM      3  C   UNL     1      -0.794  10.399  19.153  0.00  0.00    +0.000 C 
ATOM      4  N   UNL     1       0.366   9.951  19.886  0.00  0.00    +0.000 N 
ATOM      5  C   UNL     1       0.410  10.525  21.172  0.00  0.00    +0.000 C 
ATOM      6  O   UNL     1       1.258  10.363  22.037  0.00  0.00    +0.000 OA
ENDROOT
BRANCH   1   8
ATOM      7  O   UNL     1       0.369  13.301  22.048  0.00  0.00    +0.000 OA
ATOM      8  C   UNL     1      -0.662  12.626  22.146  0.00  0.00    +0.000 C 
ATOM      9  N   UNL     1      -1.712  13.046  22.933  0.00  0.00    +0.000 N 
ATOM     10  C   UNL     1      -1.744  14.386  23.487  0.00  0.00    +0.000 C 
ATOM     11  C   UNL     1      -2.720  14.303  24.648  0.00  0.00    +0.000 C 
ATOM     12  C   UNL     1      -3.719  13.224  24.220  0.00  0.00    +0.000 C 
ATOM     13  C   UNL     1      -2.897  12.288  23.325  0.00  0.00    +0.000 C 
BRANCH  12  14
ATOM     14  N   UNL     1      -4.902  13.755  23.567  0.00  0.00    +0.000 N 
ATOM     15  C   UNL     1      -5.674  13.110  22.639  0.00  0.00    +0.000 A 
ATOM     16  C   UNL     1      -6.691  13.969  22.310  0.00  0.00    +0.000 A 
ATOM     17  C   UNL     1      -6.451  15.117  23.091  0.00  0.00    +0.000 A 
ATOM     18  N   UNL     1      -5.359  14.994  23.853  0.00  0.00    +0.000 NA
ENDBRANCH  12  14
ENDBRANCH   1   8
BRANCH   4  19
ATOM     19  C   UNL     1       1.240   8.943  19.407  0.00  0.00    +0.000 A 
ATOM     20  C   UNL     1       1.549   7.828  20.202  0.00  0.00    +0.000 A 
ATOM     21  C   UNL     1       2.438   6.846  19.759  0.00  0.00    +0.000 A 
ATOM     22  C   UNL     1       3.038   6.977  18.518  0.00  0.00    +0.000 A 
ATOM     23  F   UNL     1       3.918   6.057  18.107  0.00  0.00    +0.000 F 
ATOM     24  C   UNL     1       2.736   8.057  17.697  0.00  0.00    +0.000 A 
ATOM     25  C   UNL     1       1.823   9.027  18.133  0.00  0.00    +0.000 A 
ENDBRANCH   4  19
TORSDOF 3
ENDMDL
MODEL 7
REMARK VINA RESULT:      -6.8      3.968      8.992
REMARK  Name = 
REMARK  3 active torsions:
REMARK  status: ('A' for Active; 'I' for Inactive)
REMARK    1  A    between atoms: C_2  and  C_3
REMARK    2  A    between atoms: N_6  and  C_7
REMARK    3  A    between atoms: C_19  and  N_20
REMARK                            x       y       z     vdW  Elec       q    Type
REMARK                         _______ _______ _______ _____ _____    ______ ____
ROOT
ATOM      1  C   UNL     1       2.022   8.142  19.604  0.00  0.00    +0.000 C 
ATOM      2  C   UNL     1       0.992   7.557  20.573  0.00  0.00    +0.000 C 
ATOM      3  C   UNL     1       1.496   6.154  20.830  0.00  0.00    +0.000 C 
ATOM      4  N   UNL     1       2.154   5.789  19.598  0.00  0.00    +0.000 N 
ATOM      5  C   UNL     1       2.440   6.926  18.817  0.00  0.00    +0.000 C 
ATOM      6  O   UNL     1       2.981   6.966  17.721  0.00  0.00    +0.000 OA
ENDROOT
BRANCH   1   8
ATOM      7  O   UNL     1       1.285   9.160  17.561  0.00  0.00    +0.000 OA
ATOM      8  C   UNL     1       1.442   9.274  18.782  0.00  0.00    +0.000 C 
ATOM      9  N   UNL     1       1.034  10.409  19.447  0.00  0.00    +0.000 N 
ATOM     10  C   UNL     1       0.208  11.406  18.792  0.00  0.00    +0.000 C 
ATOM     11  C   UNL     1       0.397  12.669  19.613  0.00  0.00    +0.000 C 
ATOM     12  C   UNL     1       0.652  12.156  21.033  0.00  0.00    +0.000 C 
ATOM     13  C   UNL     1       1.326  10.795  20.824  0.00  0.00    +0.000 C 
BRANCH  12  14
ATOM     14  N   UNL     1      -0.549  12.086  21.847  0.00  0.00    +0.000 N 
ATOM     15  C   UNL     1      -1.699  12.804  21.659  0.00  0.00    +0.000 A 
ATOM     16  C   UNL     1      -2.573  12.408  22.639  0.00  0.00    +0.000 A 
ATOM     17  C   UNL     1      -1.861  11.444  23.380  0.00  0.00    +0.000 A 
ATOM     18  N   UNL     1      -0.626  11.250  22.906  0.00  0.00    +0.000 NA
ENDBRANCH  12  14
ENDBRANCH   1   8
BRANCH   4  19
ATOM     19  C   UNL     1       2.586   4.468  19.315  0.00  0.00    +0.000 A 
ATOM     20  C   UNL     1       3.848   4.023  19.739  0.00  0.00    +0.000 A 
ATOM     21  C   UNL     1       4.303   2.738  19.435  0.00  0.00    +0.000 A 
ATOM     22  C   UNL     1       3.503   1.888  18.690  0.00  0.00    +0.000 A 
ATOM     23  F   UNL     1       3.951   0.671  18.365  0.00  0.00    +0.000 F 
ATOM     24  C   UNL     1       2.239   2.291  18.275  0.00  0.00    +0.000 A 
ATOM     25  C   UNL     1       1.774   3.571  18.605  0.00  0.00    +0.000 A 
ENDBRANCH   4  19
TORSDOF 3
ENDMDL
MODEL 8
REMARK VINA RESULT:      -6.7      3.769      9.259
REMARK  Name = 
REMARK  3 active torsions:
REMARK  status: ('A' for Active; 'I' for Inactive)
REMARK    1  A    between atoms: C_2  and  C_3
REMARK    2  A    between atoms: N_6  and  C_7
REMARK    3  A    between atoms: C_19  and  N_20
REMARK                            x       y       z     vdW  Elec       q    Type
REMARK                         _______ _______ _______ _____ _____    ______ ____
ROOT
ATOM      1  C   UNL     1       1.324   9.691  19.402  0.00  0.00    +0.000 C 
ATOM      2  C   UNL     1       0.680   8.909  20.549  0.00  0.00    +0.000 C 
ATOM      3  C   UNL     1       1.544   7.673  20.671  0.00  0.00    +0.000 C 
ATOM      4  N   UNL     1       2.006   7.437  19.324  0.00  0.00    +0.000 N 
ATOM      5  C   UNL     1       1.850   8.585  18.523  0.00  0.00    +0.000 C 
ATOM      6  O   UNL     1       2.132   8.718  17.341  0.00  0.00    +0.000 OA
ENDROOT
BRANCH   1   8
ATOM      7  O   UNL     1      -0.395  10.240  17.823  0.00  0.00    +0.000 OA
ATOM      8  C   UNL     1       0.338  10.629  18.737  0.00  0.00    +0.000 C 
ATOM      9  N   UNL     1       0.239  11.912  19.229  0.00  0.00    +0.000 N 
ATOM     10  C   UNL     1      -0.867  12.774  18.857  0.00  0.00    +0.000 C 
ATOM     11  C   UNL     1      -0.380  14.182  19.152  0.00  0.00    +0.000 C 
ATOM     12  C   UNL     1       0.579  14.006  20.333  0.00  0.00    +0.000 C 
ATOM     13  C   UNL     1       1.150  12.595  20.143  0.00  0.00    +0.000 C 
BRANCH  12  14
ATOM     14  N   UNL     1      -0.052  14.203  21.626  0.00  0.00    +0.000 N 
ATOM     15  C   UNL     1      -0.172  15.391  22.296  0.00  0.00    +0.000 A 
ATOM     16  C   UNL     1      -0.848  15.118  23.457  0.00  0.00    +0.000 A 
ATOM     17  C   UNL     1      -1.097  13.733  23.406  0.00  0.00    +0.000 A 
ATOM     18  N   UNL     1      -0.607  13.170  22.296  0.00  0.00    +0.000 NA
ENDBRANCH  12  14
ENDBRANCH   1   8
BRANCH   4  19
ATOM     19  C   UNL     1       2.671   6.247  18.934  0.00  0.00    +0.000 A 
ATOM     20  C   UNL     1       3.963   5.964  19.405  0.00  0.00    +0.000 A 
ATOM     21  C   UNL     1       4.647   4.814  18.999  0.00  0.00    +0.000 A 
ATOM     22  C   UNL     1       4.048   3.943  18.105  0.00  0.00    +0.000 A 
ATOM     23  F   UNL     1       4.714   2.862  17.686  0.00  0.00    +0.000 F 
ATOM     24  C   UNL     1       2.761   4.184  17.638  0.00  0.00    +0.000 A 
ATOM     25  C   UNL     1       2.067   5.322  18.068  0.00  0.00    +0.000 A 
ENDBRANCH   4  19
TORSDOF 3
ENDMDL
MODEL 9
REMARK VINA RESULT:      -6.6      4.114     10.153
REMARK  Name = 
REMARK  3 active torsions:
REMARK  status: ('A' for Active; 'I' for Inactive)
REMARK    1  A    between atoms: C_2  and  C_3
REMARK    2  A    between atoms: N_6  and  C_7
REMARK    3  A    between atoms: C_19  and  N_20
REMARK                            x       y       z     vdW  Elec       q    Type
REMARK                         _______ _______ _______ _____ _____    ______ ____
ROOT
ATOM      1  C   UNL     1      -0.342  11.196  20.827  0.00  0.00    +0.000 C 
ATOM      2  C   UNL     1      -0.433  11.514  19.333  0.00  0.00    +0.000 C 
ATOM      3  C   UNL     1      -0.035  10.216  18.664  0.00  0.00    +0.000 C 
ATOM      4  N   UNL     1       0.897   9.619  19.590  0.00  0.00    +0.000 N 
ATOM      5  C   UNL     1       0.789  10.199  20.869  0.00  0.00    +0.000 C 
ATOM      6  O   UNL     1       1.435   9.931  21.871  0.00  0.00    +0.000 OA
ENDROOT
BRANCH   1   8
ATOM      7  O   UNL     1       0.916  13.097  21.573  0.00  0.00    +0.000 OA
ATOM      8  C   UNL     1      -0.130  12.445  21.657  0.00  0.00    +0.000 C 
ATOM      9  N   UNL     1      -1.168  12.869  22.459  0.00  0.00    +0.000 N 
ATOM     10  C   UNL     1      -1.166  14.193  23.050  0.00  0.00    +0.000 C 
ATOM     11  C   UNL     1      -2.140  14.102  24.212  0.00  0.00    +0.000 C 
ATOM     12  C   UNL     1      -3.166  13.059  23.758  0.00  0.00    +0.000 C 
ATOM     13  C   UNL     1      -2.369  12.129  22.834  0.00  0.00    +0.000 C 
BRANCH  12  14
ATOM     14  N   UNL     1      -4.338  13.636  23.124  0.00  0.00    +0.000 N 
ATOM     15  C   UNL     1      -5.151  14.602  23.651  0.00  0.00    +0.000 A 
ATOM     16  C   UNL     1      -6.113  14.861  22.709  0.00  0.00    +0.000 A 
ATOM     17  C   UNL     1      -5.803  13.998  21.640  0.00  0.00    +0.000 A 
ATOM     18  N   UNL     1      -4.727  13.245  21.890  0.00  0.00    +0.000 NA
ENDBRANCH  12  14
ENDBRANCH   1   8
BRANCH   4  19
ATOM     19  C   UNL     1       1.691   8.489  19.265  0.00  0.00    +0.000 A 
ATOM     20  C   UNL     1       1.767   7.394  20.140  0.00  0.00    +0.000 A 
ATOM     21  C   UNL     1       2.574   6.291  19.852  0.00  0.00    +0.000 A 
ATOM     22  C   UNL     1       3.325   6.279  18.689  0.00  0.00    +0.000 A 
ATOM     23  F   UNL     1       4.128   5.242  18.428  0.00  0.00    +0.000 F 
ATOM     24  C   UNL     1       3.254   7.338  17.791  0.00  0.00    +0.000 A 
ATOM     25  C   UNL     1       2.423   8.431  18.069  0.00  0.00    +0.000 A 
ENDBRANCH   4  19
TORSDOF 3
ENDMDL
