MODEL 1
REMARK VINA RESULT:      -7.8      0.000      0.000
REMARK  Name = 
REMARK  9 active torsions:
REMARK  status: ('A' for Active; 'I' for Inactive)
REMARK    1  A    between atoms: C_1  and  O_2
REMARK    2  A    between atoms: O_2  and  C_3
REMARK    3  A    between atoms: C_5  and  C_6
REMARK    4  A    between atoms: C_6  and  O_7
REMARK    5  A    between atoms: O_7  and  C_8
REMARK    6  A    between atoms: C_8  and  C_9
REMARK    7  A    between atoms: C_9  and  C_10
REMARK    8  A    between atoms: C_22  and  O_23
REMARK    9  A    between atoms: O_23  and  C_24
REMARK                            x       y       z     vdW  Elec       q    Type
REMARK                         _______ _______ _______ _____ _____    ______ ____
ROOT
ATOM      1  C   UNL     1       3.910   6.092  17.406  0.00  0.00    +0.000 C 
ENDROOT
BRANCH   1   2
ATOM      2  C   UNL     1       4.298   4.838  18.249  0.00  0.00    +0.000 C 
ATOM      3  C   UNL     1       5.327   5.205  19.360  0.00  0.00    +0.000 C 
ATOM      4  C   UNL     1       6.717   5.544  18.823  0.00  0.00    +0.000 C 
ATOM      5  N   UNL     1       7.261   4.471  17.995  0.00  0.00    +0.000 NA
ATOM      6  C   UNL     1       6.384   4.197  16.862  0.00  0.00    +0.000 C 
ATOM      7  C   UNL     1       4.981   3.793  17.316  0.00  0.00    +0.000 C 
ATOM      8  H   UNL     1       7.348   3.627  18.563  0.00  0.00    +0.000 HD
BRANCH   2   9
ATOM      9  C   UNL     1       2.989   4.276  18.872  0.00  0.00    +0.000 A 
ATOM     10  C   UNL     1       2.600   4.570  20.191  0.00  0.00    +0.000 A 
ATOM     11  C   UNL     1       1.443   4.014  20.750  0.00  0.00    +0.000 A 
ATOM     12  C   UNL     1       0.653   3.143  20.007  0.00  0.00    +0.000 A 
ATOM     13  C   UNL     1       1.019   2.825  18.707  0.00  0.00    +0.000 A 
ATOM     14  C   UNL     1       2.175   3.382  18.150  0.00  0.00    +0.000 A 
ENDBRANCH   2   9
ENDBRANCH   1   2
BRANCH   1  15
ATOM     15  O   UNL     1       2.740   6.724  17.933  0.00  0.00    +0.000 OA
BRANCH  15  16
ATOM     16  C   UNL     1       2.863   8.145  17.950  0.00  0.00    +0.000 C 
BRANCH  16  19
ATOM     17  C   UNL     1       0.563   9.106  20.837  0.00  0.00    +0.000 A 
ATOM     18  C   UNL     1       1.589   8.514  20.095  0.00  0.00    +0.000 A 
ATOM     19  C   UNL     1       1.720   8.755  18.721  0.00  0.00    +0.000 A 
ATOM     20  C   UNL     1       0.812   9.631  18.109  0.00  0.00    +0.000 A 
ATOM     21  C   UNL     1      -0.222  10.225  18.838  0.00  0.00    +0.000 A 
ATOM     22  C   UNL     1      -0.347   9.956  20.203  0.00  0.00    +0.000 A 
BRANCH  17  24
ATOM     23  C   UNL     1      -0.165   9.639  23.039  0.00  0.00    +0.000 C 
ATOM     24  O   UNL     1       0.563   8.782  22.168  0.00  0.00    +0.000 OA
ENDBRANCH  17  24
BRANCH  21  25
ATOM     25  O   UNL     1      -1.033  11.053  18.108  0.00  0.00    +0.000 OA
ATOM     26  C   UNL     1      -1.016  12.434  18.442  0.00  0.00    +0.000 C 
ENDBRANCH  21  25
ENDBRANCH  16  19
ENDBRANCH  15  16
ENDBRANCH   1  15
TORSDOF 7
ENDMDL
MODEL 2
REMARK VINA RESULT:      -7.8      0.339      2.273
REMARK  Name = 
REMARK  9 active torsions:
REMARK  status: ('A' for Active; 'I' for Inactive)
REMARK    1  A    between atoms: C_1  and  O_2
REMARK    2  A    between atoms: O_2  and  C_3
REMARK    3  A    between atoms: C_5  and  C_6
REMARK    4  A    between atoms: C_6  and  O_7
REMARK    5  A    between atoms: O_7  and  C_8
REMARK    6  A    between atoms: C_8  and  C_9
REMARK    7  A    between atoms: C_9  and  C_10
REMARK    8  A    between atoms: C_22  and  O_23
REMARK    9  A    between atoms: O_23  and  C_24
REMARK                            x       y       z     vdW  Elec       q    Type
REMARK                         _______ _______ _______ _____ _____    ______ ____
ROOT
ATOM      1  C   UNL     1       4.151   6.418  17.642  0.00  0.00    +0.000 C 
ENDROOT
BRANCH   1   2
ATOM      2  C   UNL     1       4.462   5.030  18.284  0.00  0.00    +0.000 C 
ATOM      3  C   UNL     1       5.579   5.148  19.364  0.00  0.00    +0.000 C 
ATOM      4  C   UNL     1       6.964   5.436  18.788  0.00  0.00    +0.000 C 
ATOM      5  N   UNL     1       7.359   4.445  17.790  0.00  0.00    +0.000 NA
ATOM      6  C   UNL     1       6.402   4.409  16.690  0.00  0.00    +0.000 C 
ATOM      7  C   UNL     1       4.992   4.070  17.176  0.00  0.00    +0.000 C 
ATOM      8  H   UNL     1       7.395   3.526  18.232  0.00  0.00    +0.000 HD
BRANCH   2   9
ATOM      9  C   UNL     1       3.140   4.504  18.910  0.00  0.00    +0.000 A 
ATOM     10  C   UNL     1       2.760   4.813  20.228  0.00  0.00    +0.000 A 
ATOM     11  C   UNL     1       1.590   4.288  20.791  0.00  0.00    +0.000 A 
ATOM     12  C   UNL     1       0.779   3.433  20.052  0.00  0.00    +0.000 A 
ATOM     13  C   UNL     1       1.136   3.100  18.754  0.00  0.00    +0.000 A 
ATOM     14  C   UNL     1       2.304   3.626  18.192  0.00  0.00    +0.000 A 
ENDBRANCH   2   9
ENDBRANCH   1   2
BRANCH   1  15
ATOM     15  O   UNL     1       2.853   6.881  18.025  0.00  0.00    +0.000 OA
BRANCH  15  16
ATOM     16  C   UNL     1       2.642   8.243  17.656  0.00  0.00    +0.000 C 
BRANCH  16  19
ATOM     17  C   UNL     1      -0.335  10.274  18.905  0.00  0.00    +0.000 A 
ATOM     18  C   UNL     1       0.632   9.709  18.068  0.00  0.00    +0.000 A 
ATOM     19  C   UNL     1       1.638   8.881  18.582  0.00  0.00    +0.000 A 
ATOM     20  C   UNL     1       1.637   8.606  19.958  0.00  0.00    +0.000 A 
ATOM     21  C   UNL     1       0.680   9.168  20.806  0.00  0.00    +0.000 A 
ATOM     22  C   UNL     1      -0.304  10.007  20.277  0.00  0.00    +0.000 A 
BRANCH  17  24
ATOM     23  C   UNL     1      -1.858  12.099  19.021  0.00  0.00    +0.000 C 
ATOM     24  O   UNL     1      -1.257  11.057  18.262  0.00  0.00    +0.000 OA
ENDBRANCH  17  24
BRANCH  21  25
ATOM     25  O   UNL     1       0.805   8.815  22.123  0.00  0.00    +0.000 OA
ATOM     26  C   UNL     1      -0.076   9.440  23.048  0.00  0.00    +0.000 C 
ENDBRANCH  21  25
ENDBRANCH  16  19
ENDBRANCH  15  16
ENDBRANCH   1  15
TORSDOF 7
ENDMDL
MODEL 3
REMARK VINA RESULT:      -7.7      0.529      2.542
REMARK  Name = 
REMARK  9 active torsions:
REMARK  status: ('A' for Active; 'I' for Inactive)
REMARK    1  A    between atoms: C_1  and  O_2
REMARK    2  A    between atoms: O_2  and  C_3
REMARK    3  A    between atoms: C_5  and  C_6
REMARK    4  A    between atoms: C_6  and  O_7
REMARK    5  A    between atoms: O_7  and  C_8
REMARK    6  A    between atoms: C_8  and  C_9
REMARK    7  A    between atoms: C_9  and  C_10
REMARK    8  A    between atoms: C_22  and  O_23
REMARK    9  A    between atoms: O_23  and  C_24
REMARK                            x       y       z     vdW  Elec       q    Type
REMARK                         _______ _______ _______ _____ _____    ______ ____
ROOT
ATOM      1  C   UNL     1       3.996   6.215  17.584  0.00  0.00    +0.000 C 
ENDROOT
BRANCH   1   2
ATOM      2  C   UNL     1       4.382   4.858  18.249  0.00  0.00    +0.000 C 
ATOM      3  C   UNL     1       5.468   5.060  19.349  0.00  0.00    +0.000 C 
ATOM      4  C   UNL     1       6.843   5.430  18.795  0.00  0.00    +0.000 C 
ATOM      5  N   UNL     1       7.320   4.455  17.818  0.00  0.00    +0.000 NA
ATOM      6  C   UNL     1       6.389   4.344  16.701  0.00  0.00    +0.000 C 
ATOM      7  C   UNL     1       4.995   3.921  17.165  0.00  0.00    +0.000 C 
ATOM      8  H   UNL     1       7.406   3.545  18.273  0.00  0.00    +0.000 HD
BRANCH   2   9
ATOM      9  C   UNL     1       3.085   4.255  18.857  0.00  0.00    +0.000 A 
ATOM     10  C   UNL     1       2.129   3.589  18.071  0.00  0.00    +0.000 A 
ATOM     11  C   UNL     1       0.942   3.096  18.628  0.00  0.00    +0.000 A 
ATOM     12  C   UNL     1       0.679   3.268  19.983  0.00  0.00    +0.000 A 
ATOM     13  C   UNL     1       1.599   3.933  20.781  0.00  0.00    +0.000 A 
ATOM     14  C   UNL     1       2.784   4.423  20.223  0.00  0.00    +0.000 A 
ENDBRANCH   2   9
ENDBRANCH   1   2
BRANCH   1  15
ATOM     15  O   UNL     1       3.255   7.039  18.489  0.00  0.00    +0.000 OA
BRANCH  15  16
ATOM     16  C   UNL     1       2.322   7.875  17.808  0.00  0.00    +0.000 C 
BRANCH  16  19
ATOM     17  C   UNL     1       0.460  10.899  19.202  0.00  0.00    +0.000 A 
ATOM     18  C   UNL     1       1.105  10.023  18.323  0.00  0.00    +0.000 A 
ATOM     19  C   UNL     1       1.674   8.828  18.781  0.00  0.00    +0.000 A 
ATOM     20  C   UNL     1       1.558   8.513  20.143  0.00  0.00    +0.000 A 
ATOM     21  C   UNL     1       0.921   9.382  21.033  0.00  0.00    +0.000 A 
ATOM     22  C   UNL     1       0.377  10.578  20.560  0.00  0.00    +0.000 A 
BRANCH  17  24
ATOM     23  C   UNL     1      -1.402  11.961  18.171  0.00  0.00    +0.000 C 
ATOM     24  O   UNL     1      -0.051  12.024  18.611  0.00  0.00    +0.000 OA
ENDBRANCH  17  24
BRANCH  21  25
ATOM     25  O   UNL     1       0.887   8.946  22.331  0.00  0.00    +0.000 OA
ATOM     26  C   UNL     1      -0.120   9.494  23.171  0.00  0.00    +0.000 C 
ENDBRANCH  21  25
ENDBRANCH  16  19
ENDBRANCH  15  16
ENDBRANCH   1  15
TORSDOF 7
ENDMDL
MODEL 4
REMARK VINA RESULT:      -7.7      1.004      1.004
REMARK  Name = 
REMARK  9 active torsions:
REMARK  status: ('A' for Active; 'I' for Inactive)
REMARK    1  A    between atoms: C_1  and  O_2
REMARK    2  A    between atoms: O_2  and  C_3
REMARK    3  A    between atoms: C_5  and  C_6
REMARK    4  A    between atoms: C_6  and  O_7
REMARK    5  A    between atoms: O_7  and  C_8
REMARK    6  A    between atoms: C_8  and  C_9
REMARK    7  A    between atoms: C_9  and  C_10
REMARK    8  A    between atoms: C_22  and  O_23
REMARK    9  A    between atoms: O_23  and  C_24
REMARK                            x       y       z     vdW  Elec       q    Type
REMARK                         _______ _______ _______ _____ _____    ______ ____
ROOT
ATOM      1  C   UNL     1       4.363   6.434  17.324  0.00  0.00    +0.000 C 
ENDROOT
BRANCH   1   2
ATOM      2  C   UNL     1       4.677   5.043  17.957  0.00  0.00    +0.000 C 
ATOM      3  C   UNL     1       5.838   5.145  18.992  0.00  0.00    +0.000 C 
ATOM      4  C   UNL     1       7.203   5.409  18.361  0.00  0.00    +0.000 C 
ATOM      5  N   UNL     1       7.543   4.410  17.351  0.00  0.00    +0.000 NA
ATOM      6  C   UNL     1       6.542   4.386  16.290  0.00  0.00    +0.000 C 
ATOM      7  C   UNL     1       5.148   4.071  16.833  0.00  0.00    +0.000 C 
ATOM      8  H   UNL     1       7.582   3.491  17.795  0.00  0.00    +0.000 HD
BRANCH   2   9
ATOM      9  C   UNL     1       3.373   4.539  18.636  0.00  0.00    +0.000 A 
ATOM     10  C   UNL     1       3.178   4.605  20.027  0.00  0.00    +0.000 A 
ATOM     11  C   UNL     1       2.017   4.100  20.626  0.00  0.00    +0.000 A 
ATOM     12  C   UNL     1       1.028   3.508  19.848  0.00  0.00    +0.000 A 
ATOM     13  C   UNL     1       1.198   3.417  18.474  0.00  0.00    +0.000 A 
ATOM     14  C   UNL     1       2.358   3.923  17.878  0.00  0.00    +0.000 A 
ENDBRANCH   2   9
ENDBRANCH   1   2
BRANCH   1  15
ATOM     15  O   UNL     1       3.599   7.245  18.221  0.00  0.00    +0.000 OA
BRANCH  15  16
ATOM     16  C   UNL     1       2.639   8.044  17.532  0.00  0.00    +0.000 C 
BRANCH  16  19
ATOM     17  C   UNL     1       0.890   9.229  20.707  0.00  0.00    +0.000 A 
ATOM     18  C   UNL     1       1.541   8.421  19.770  0.00  0.00    +0.000 A 
ATOM     19  C   UNL     1       1.894   8.918  18.509  0.00  0.00    +0.000 A 
ATOM     20  C   UNL     1       1.605  10.259  18.216  0.00  0.00    +0.000 A 
ATOM     21  C   UNL     1       0.951  11.075  19.141  0.00  0.00    +0.000 A 
ATOM     22  C   UNL     1       0.589  10.556  20.386  0.00  0.00    +0.000 A 
BRANCH  17  24
ATOM     23  C   UNL     1       0.168   9.438  22.965  0.00  0.00    +0.000 C 
ATOM     24  O   UNL     1       0.612   8.610  21.897  0.00  0.00    +0.000 OA
ENDBRANCH  17  24
BRANCH  21  25
ATOM     25  O   UNL     1       0.731  12.359  18.715  0.00  0.00    +0.000 OA
ATOM     26  C   UNL     1       1.867  13.104  18.296  0.00  0.00    +0.000 C 
ENDBRANCH  21  25
ENDBRANCH  16  19
ENDBRANCH  15  16
ENDBRANCH   1  15
TORSDOF 7
ENDMDL
MODEL 5
REMARK VINA RESULT:      -7.6      0.852      2.394
REMARK  Name = 
REMARK  9 active torsions:
REMARK  status: ('A' for Active; 'I' for Inactive)
REMARK    1  A    between atoms: C_1  and  O_2
REMARK    2  A    between atoms: O_2  and  C_3
REMARK    3  A    between atoms: C_5  and  C_6
REMARK    4  A    between atoms: C_6  and  O_7
REMARK    5  A    between atoms: O_7  and  C_8
REMARK    6  A    between atoms: C_8  and  C_9
REMARK    7  A    between atoms: C_9  and  C_10
REMARK    8  A    between atoms: C_22  and  O_23
REMARK    9  A    between atoms: O_23  and  C_24
REMARK                            x       y       z     vdW  Elec       q    Type
REMARK                         _______ _______ _______ _____ _____    ______ ____
ROOT
ATOM      1  C   UNL     1       3.807   6.133  17.434  0.00  0.00    +0.000 C 
ENDROOT
BRANCH   1   2
ATOM      2  C   UNL     1       4.208   4.857  18.237  0.00  0.00    +0.000 C 
ATOM      3  C   UNL     1       5.282   5.188  19.318  0.00  0.00    +0.000 C 
ATOM      4  C   UNL     1       6.655   5.521  18.738  0.00  0.00    +0.000 C 
ATOM      5  N   UNL     1       7.155   4.459  17.869  0.00  0.00    +0.000 NA
ATOM      6  C   UNL     1       6.236   4.220  16.763  0.00  0.00    +0.000 C 
ATOM      7  C   UNL     1       4.844   3.824  17.258  0.00  0.00    +0.000 C 
ATOM      8  H   UNL     1       7.252   3.602  18.416  0.00  0.00    +0.000 HD
BRANCH   2   9
ATOM      9  C   UNL     1       2.915   4.299  18.895  0.00  0.00    +0.000 A 
ATOM     10  C   UNL     1       2.565   4.591  20.225  0.00  0.00    +0.000 A 
ATOM     11  C   UNL     1       1.421   4.037  20.815  0.00  0.00    +0.000 A 
ATOM     12  C   UNL     1       0.608   3.171  20.092  0.00  0.00    +0.000 A 
ATOM     13  C   UNL     1       0.936   2.855  18.782  0.00  0.00    +0.000 A 
ATOM     14  C   UNL     1       2.078   3.409  18.193  0.00  0.00    +0.000 A 
ENDBRANCH   2   9
ENDBRANCH   1   2
BRANCH   1  15
ATOM     15  O   UNL     1       3.404   7.187  18.313  0.00  0.00    +0.000 OA
BRANCH  15  16
ATOM     16  C   UNL     1       2.563   8.136  17.658  0.00  0.00    +0.000 C 
BRANCH  16  19
ATOM     17  C   UNL     1       0.824  11.119  19.279  0.00  0.00    +0.000 A 
ATOM     18  C   UNL     1       1.514  10.318  18.364  0.00  0.00    +0.000 A 
ATOM     19  C   UNL     1       1.862   8.998  18.677  0.00  0.00    +0.000 A 
ATOM     20  C   UNL     1       1.474   8.484  19.924  0.00  0.00    +0.000 A 
ATOM     21  C   UNL     1       0.789   9.275  20.849  0.00  0.00    +0.000 A 
ATOM     22  C   UNL     1       0.469  10.596  20.525  0.00  0.00    +0.000 A 
BRANCH  17  24
ATOM     23  C   UNL     1       1.643  13.139  18.325  0.00  0.00    +0.000 C 
ATOM     24  O   UNL     1       0.549  12.385  18.833  0.00  0.00    +0.000 OA
ENDBRANCH  17  24
BRANCH  21  25
ATOM     25  O   UNL     1       0.480   8.643  22.024  0.00  0.00    +0.000 OA
ATOM     26  C   UNL     1       0.060   9.461  23.108  0.00  0.00    +0.000 C 
ENDBRANCH  21  25
ENDBRANCH  16  19
ENDBRANCH  15  16
ENDBRANCH   1  15
TORSDOF 7
ENDMDL
MODEL 6
REMARK VINA RESULT:      -7.5      0.804      1.246
REMARK  Name = 
REMARK  9 active torsions:
REMARK  status: ('A' for Active; 'I' for Inactive)
REMARK    1  A    between atoms: C_1  and  O_2
REMARK    2  A    between atoms: O_2  and  C_3
REMARK    3  A    between atoms: C_5  and  C_6
REMARK    4  A    between atoms: C_6  and  O_7
REMARK    5  A    between atoms: O_7  and  C_8
REMARK    6  A    between atoms: C_8  and  C_9
REMARK    7  A    between atoms: C_9  and  C_10
REMARK    8  A    between atoms: C_22  and  O_23
REMARK    9  A    between atoms: O_23  and  C_24
REMARK                            x       y       z     vdW  Elec       q    Type
REMARK                         _______ _______ _______ _____ _____    ______ ____
ROOT
ATOM      1  C   UNL     1       4.021   6.194  17.604  0.00  0.00    +0.000 C 
ENDROOT
BRANCH   1   2
ATOM      2  C   UNL     1       4.421   4.852  18.290  0.00  0.00    +0.000 C 
ATOM      3  C   UNL     1       5.475   5.087  19.413  0.00  0.00    +0.000 C 
ATOM      4  C   UNL     1       6.855   5.483  18.890  0.00  0.00    +0.000 C 
ATOM      5  N   UNL     1       7.377   4.511  17.933  0.00  0.00    +0.000 NA
ATOM      6  C   UNL     1       6.476   4.370  16.795  0.00  0.00    +0.000 C 
ATOM      7  C   UNL     1       5.081   3.920  17.229  0.00  0.00    +0.000 C 
ATOM      8  H   UNL     1       7.473   3.608  18.398  0.00  0.00    +0.000 HD
BRANCH   2   9
ATOM      9  C   UNL     1       3.124   4.225  18.872  0.00  0.00    +0.000 A 
ATOM     10  C   UNL     1       2.184   3.561  18.063  0.00  0.00    +0.000 A 
ATOM     11  C   UNL     1       0.996   3.047  18.598  0.00  0.00    +0.000 A 
ATOM     12  C   UNL     1       0.716   3.192  19.952  0.00  0.00    +0.000 A 
ATOM     13  C   UNL     1       1.619   3.854  20.772  0.00  0.00    +0.000 A 
ATOM     14  C   UNL     1       2.805   4.366  20.237  0.00  0.00    +0.000 A 
ENDBRANCH   2   9
ENDBRANCH   1   2
BRANCH   1  15
ATOM     15  O   UNL     1       3.316   7.045  18.512  0.00  0.00    +0.000 OA
BRANCH  15  16
ATOM     16  C   UNL     1       2.316   7.819  17.852  0.00  0.00    +0.000 C 
BRANCH  16  19
ATOM     17  C   UNL     1       1.046   9.420  21.073  0.00  0.00    +0.000 A 
ATOM     18  C   UNL     1       1.557   8.491  20.161  0.00  0.00    +0.000 A 
ATOM     19  C   UNL     1       1.719   8.819  18.809  0.00  0.00    +0.000 A 
ATOM     20  C   UNL     1       1.384  10.117  18.393  0.00  0.00    +0.000 A 
ATOM     21  C   UNL     1       0.869  11.053  19.293  0.00  0.00    +0.000 A 
ATOM     22  C   UNL     1       0.696  10.699  20.634  0.00  0.00    +0.000 A 
BRANCH  17  24
ATOM     23  C   UNL     1      -0.080   9.519  23.166  0.00  0.00    +0.000 C 
ATOM     24  O   UNL     1       0.948   8.959  22.359  0.00  0.00    +0.000 OA
ENDBRANCH  17  24
BRANCH  21  25
ATOM     25  O   UNL     1       0.583  12.275  18.745  0.00  0.00    +0.000 OA
ATOM     26  C   UNL     1       0.541  13.387  19.631  0.00  0.00    +0.000 C 
ENDBRANCH  21  25
ENDBRANCH  16  19
ENDBRANCH  15  16
ENDBRANCH   1  15
TORSDOF 7
ENDMDL
MODEL 7
REMARK VINA RESULT:      -7.5      1.582      3.519
REMARK  Name = 
REMARK  9 active torsions:
REMARK  status: ('A' for Active; 'I' for Inactive)
REMARK    1  A    between atoms: C_1  and  O_2
REMARK    2  A    between atoms: O_2  and  C_3
REMARK    3  A    between atoms: C_5  and  C_6
REMARK    4  A    between atoms: C_6  and  O_7
REMARK    5  A    between atoms: O_7  and  C_8
REMARK    6  A    between atoms: C_8  and  C_9
REMARK    7  A    between atoms: C_9  and  C_10
REMARK    8  A    between atoms: C_22  and  O_23
REMARK    9  A    between atoms: O_23  and  C_24
REMARK                            x       y       z     vdW  Elec       q    Type
REMARK                         _______ _______ _______ _____ _____    ______ ____
ROOT
ATOM      1  C   UNL     1       2.263   5.741  18.108  0.00  0.00    +0.000 C 
ENDROOT
BRANCH   1   2
ATOM      2  C   UNL     1       2.954   4.424  18.581  0.00  0.00    +0.000 C 
ATOM      3  C   UNL     1       2.137   3.172  18.142  0.00  0.00    +0.000 C 
ATOM      4  C   UNL     1       0.816   3.005  18.891  0.00  0.00    +0.000 C 
ATOM      5  N   UNL     1       1.008   2.975  20.339  0.00  0.00    +0.000 NA
ATOM      6  C   UNL     1       1.648   4.201  20.802  0.00  0.00    +0.000 C 
ATOM      7  C   UNL     1       3.009   4.415  20.139  0.00  0.00    +0.000 C 
ATOM      8  H   UNL     1       1.599   2.177  20.578  0.00  0.00    +0.000 HD
BRANCH   2   9
ATOM      9  C   UNL     1       4.378   4.401  17.960  0.00  0.00    +0.000 A 
ATOM     10  C   UNL     1       5.526   4.721  18.706  0.00  0.00    +0.000 A 
ATOM     11  C   UNL     1       6.796   4.744  18.116  0.00  0.00    +0.000 A 
ATOM     12  C   UNL     1       6.947   4.456  16.764  0.00  0.00    +0.000 A 
ATOM     13  C   UNL     1       5.830   4.149  16.000  0.00  0.00    +0.000 A 
ATOM     14  C   UNL     1       4.562   4.126  16.591  0.00  0.00    +0.000 A 
ENDBRANCH   2   9
ENDBRANCH   1   2
BRANCH   1  15
ATOM     15  O   UNL     1       2.913   6.889  18.659  0.00  0.00    +0.000 OA
BRANCH  15  16
ATOM     16  C   UNL     1       2.552   8.087  17.975  0.00  0.00    +0.000 C 
BRANCH  16  19
ATOM     17  C   UNL     1       0.543   9.467  20.910  0.00  0.00    +0.000 A 
ATOM     18  C   UNL     1       1.475   8.743  20.159  0.00  0.00    +0.000 A 
ATOM     19  C   UNL     1       1.508   8.838  18.762  0.00  0.00    +0.000 A 
ATOM     20  C   UNL     1       0.600   9.702  18.131  0.00  0.00    +0.000 A 
ATOM     21  C   UNL     1      -0.339  10.427  18.869  0.00  0.00    +0.000 A 
ATOM     22  C   UNL     1      -0.368  10.303  20.260  0.00  0.00    +0.000 A 
BRANCH  17  24
ATOM     23  C   UNL     1      -0.442   9.768  23.054  0.00  0.00    +0.000 C 
ATOM     24  O   UNL     1       0.633   9.277  22.263  0.00  0.00    +0.000 OA
ENDBRANCH  17  24
BRANCH  21  25
ATOM     25  O   UNL     1      -1.162  11.225  18.119  0.00  0.00    +0.000 OA
ATOM     26  C   UNL     1      -2.069  10.573  17.240  0.00  0.00    +0.000 C 
ENDBRANCH  21  25
ENDBRANCH  16  19
ENDBRANCH  15  16
ENDBRANCH   1  15
TORSDOF 7
ENDMDL
MODEL 8
REMARK VINA RESULT:      -7.4      0.625      1.131
REMARK  Name = 
REMARK  9 active torsions:
REMARK  status: ('A' for Active; 'I' for Inactive)
REMARK    1  A    between atoms: C_1  and  O_2
REMARK    2  A    between atoms: O_2  and  C_3
REMARK    3  A    between atoms: C_5  and  C_6
REMARK    4  A    between atoms: C_6  and  O_7
REMARK    5  A    between atoms: O_7  and  C_8
REMARK    6  A    between atoms: C_8  and  C_9
REMARK    7  A    between atoms: C_9  and  C_10
REMARK    8  A    between atoms: C_22  and  O_23
REMARK    9  A    between atoms: O_23  and  C_24
REMARK                            x       y       z     vdW  Elec       q    Type
REMARK                         _______ _______ _______ _____ _____    ______ ____
ROOT
ATOM      1  C   UNL     1       3.741   6.115  17.437  0.00  0.00    +0.000 C 
ENDROOT
BRANCH   1   2
ATOM      2  C   UNL     1       4.216   4.782  18.093  0.00  0.00    +0.000 C 
ATOM      3  C   UNL     1       5.410   5.027  19.065  0.00  0.00    +0.000 C 
ATOM      4  C   UNL     1       6.713   5.397  18.358  0.00  0.00    +0.000 C 
ATOM      5  N   UNL     1       7.097   4.401  17.361  0.00  0.00    +0.000 NA
ATOM      6  C   UNL     1       6.055   4.249  16.353  0.00  0.00    +0.000 C 
ATOM      7  C   UNL     1       4.724   3.822  16.974  0.00  0.00    +0.000 C 
ATOM      8  H   UNL     1       7.245   3.506  17.829  0.00  0.00    +0.000 HD
BRANCH   2   9
ATOM      9  C   UNL     1       3.000   4.180  18.851  0.00  0.00    +0.000 A 
ATOM     10  C   UNL     1       1.945   3.535  18.183  0.00  0.00    +0.000 A 
ATOM     11  C   UNL     1       0.833   3.045  18.880  0.00  0.00    +0.000 A 
ATOM     12  C   UNL     1       0.746   3.196  20.259  0.00  0.00    +0.000 A 
ATOM     13  C   UNL     1       1.767   3.840  20.944  0.00  0.00    +0.000 A 
ATOM     14  C   UNL     1       2.877   4.329  20.247  0.00  0.00    +0.000 A 
ENDBRANCH   2   9
ENDBRANCH   1   2
BRANCH   1  15
ATOM     15  O   UNL     1       3.034   6.927  18.379  0.00  0.00    +0.000 OA
BRANCH  15  16
ATOM     16  C   UNL     1       2.782   8.236  17.872  0.00  0.00    +0.000 C 
BRANCH  16  19
ATOM     17  C   UNL     1       0.347   9.232  20.633  0.00  0.00    +0.000 A 
ATOM     18  C   UNL     1       1.413   8.638  19.951  0.00  0.00    +0.000 A 
ATOM     19  C   UNL     1       1.599   8.847  18.578  0.00  0.00    +0.000 A 
ATOM     20  C   UNL     1       0.705   9.694  17.906  0.00  0.00    +0.000 A 
ATOM     21  C   UNL     1      -0.367  10.290  18.574  0.00  0.00    +0.000 A 
ATOM     22  C   UNL     1      -0.547  10.053  19.939  0.00  0.00    +0.000 A 
BRANCH  17  24
ATOM     23  C   UNL     1       1.474   9.185  22.728  0.00  0.00    +0.000 C 
ATOM     24  O   UNL     1       0.295   8.941  21.971  0.00  0.00    +0.000 OA
ENDBRANCH  17  24
BRANCH  21  25
ATOM     25  O   UNL     1      -1.158  11.086  17.790  0.00  0.00    +0.000 OA
ATOM     26  C   UNL     1      -2.509  11.258  18.198  0.00  0.00    +0.000 C 
ENDBRANCH  21  25
ENDBRANCH  16  19
ENDBRANCH  15  16
ENDBRANCH   1  15
TORSDOF 7
ENDMDL
MODEL 9
REMARK VINA RESULT:      -7.4      1.549      3.635
REMARK  Name = 
REMARK  9 active torsions:
REMARK  status: ('A' for Active; 'I' for Inactive)
REMARK    1  A    between atoms: C_1  and  O_2
REMARK    2  A    between atoms: O_2  and  C_3
REMARK    3  A    between atoms: C_5  and  C_6
REMARK    4  A    between atoms: C_6  and  O_7
REMARK    5  A    between atoms: O_7  and  C_8
REMARK    6  A    between atoms: C_8  and  C_9
REMARK    7  A    between atoms: C_9  and  C_10
REMARK    8  A    between atoms: C_22  and  O_23
REMARK    9  A    between atoms: O_23  and  C_24
REMARK                            x       y       z     vdW  Elec       q    Type
REMARK                         _______ _______ _______ _____ _____    ______ ____
ROOT
ATOM      1  C   UNL     1       2.308   5.482  18.029  0.00  0.00    +0.000 C 
ENDROOT
BRANCH   1   2
ATOM      2  C   UNL     1       3.132   4.209  18.395  0.00  0.00    +0.000 C 
ATOM      3  C   UNL     1       2.414   2.915  17.905  0.00  0.00    +0.000 C 
ATOM      4  C   UNL     1       1.144   2.583  18.685  0.00  0.00    +0.000 C 
ATOM      5  N   UNL     1       1.393   2.483  20.121  0.00  0.00    +0.000 NA
ATOM      6  C   UNL     1       1.938   3.733  20.640  0.00  0.00    +0.000 C 
ATOM      7  C   UNL     1       3.247   4.111  19.947  0.00  0.00    +0.000 C 
ATOM      8  H   UNL     1       2.062   1.731  20.289  0.00  0.00    +0.000 HD
BRANCH   2   9
ATOM      9  C   UNL     1       4.528   4.354  17.727  0.00  0.00    +0.000 A 
ATOM     10  C   UNL     1       4.728   4.129  16.354  0.00  0.00    +0.000 A 
ATOM     11  C   UNL     1       6.004   4.216  15.780  0.00  0.00    +0.000 A 
ATOM     12  C   UNL     1       7.108   4.519  16.568  0.00  0.00    +0.000 A 
ATOM     13  C   UNL     1       6.942   4.733  17.929  0.00  0.00    +0.000 A 
ATOM     14  C   UNL     1       5.668   4.647  18.501  0.00  0.00    +0.000 A 
ENDBRANCH   2   9
ENDBRANCH   1   2
BRANCH   1  15
ATOM     15  O   UNL     1       2.822   6.636  18.700  0.00  0.00    +0.000 OA
BRANCH  15  16
ATOM     16  C   UNL     1       2.531   7.839  17.990  0.00  0.00    +0.000 C 
BRANCH  16  19
ATOM     17  C   UNL     1       0.761   9.329  21.023  0.00  0.00    +0.000 A 
ATOM     18  C   UNL     1       1.496   8.468  20.202  0.00  0.00    +0.000 A 
ATOM     19  C   UNL     1       1.695   8.757  18.846  0.00  0.00    +0.000 A 
ATOM     20  C   UNL     1       1.164   9.950  18.333  0.00  0.00    +0.000 A 
ATOM     21  C   UNL     1       0.424  10.816  19.141  0.00  0.00    +0.000 A 
ATOM     22  C   UNL     1       0.219  10.500  20.486  0.00  0.00    +0.000 A 
BRANCH  17  24
ATOM     23  C   UNL     1      -0.229   9.659  23.161  0.00  0.00    +0.000 C 
ATOM     24  O   UNL     1       0.653   8.919  22.325  0.00  0.00    +0.000 OA
ENDBRANCH  17  24
BRANCH  21  25
ATOM     25  O   UNL     1      -0.036  11.939  18.504  0.00  0.00    +0.000 OA
ATOM     26  C   UNL     1      -1.301  12.442  18.914  0.00  0.00    +0.000 C 
ENDBRANCH  21  25
ENDBRANCH  16  19
ENDBRANCH  15  16
ENDBRANCH   1  15
TORSDOF 7
ENDMDL
