MODEL 1
REMARK VINA RESULT:      -6.9      0.000      0.000
REMARK  Name = 
REMARK  11 active torsions:
REMARK  status: ('A' for Active; 'I' for Inactive)
REMARK    1  A    between atoms: C_1  and  C_2
REMARK    2  A    between atoms: C_2  and  N_3
REMARK    3  A    between atoms: N_3  and  C_4
REMARK    4  A    between atoms: N_3  and  C_7
REMARK    5  A    between atoms: C_4  and  C_5
REMARK    6  A    between atoms: C_5  and  O_6
REMARK    7  A    between atoms: C_7  and  C_8
REMARK    8  A    between atoms: C_8  and  C_9
REMARK    9  A    between atoms: C_9  and  C_10
REMARK   10  A    between atoms: C_11  and  C_12
REMARK   11  A    between atoms: C_16  and  C_17
REMARK                            x       y       z     vdW  Elec       q    Type
REMARK                         _______ _______ _______ _____ _____    ______ ____
ROOT
ATOM      1  C   UNL     1       1.941   7.539  18.699  0.00  0.00    +0.000 A 
ATOM      2  C   UNL     1       1.809   8.637  17.865  0.00  0.00    +0.000 A 
ATOM      3  C   UNL     1       1.443   9.875  18.396  0.00  0.00    +0.000 A 
ATOM      4  C   UNL     1       1.169  10.025  19.784  0.00  0.00    +0.000 A 
ATOM      5  C   UNL     1       0.774  11.165  20.606  0.00  0.00    +0.000 A 
ATOM      6  N   UNL     1       0.658  10.911  21.915  0.00  0.00    +0.000 NA
ATOM      7  S   UNL     1       0.983   9.326  22.208  0.00  0.00    +0.000 S 
ATOM      8  C   UNL     1       1.317   8.891  20.586  0.00  0.00    +0.000 A 
ATOM      9  C   UNL     1       1.697   7.642  20.070  0.00  0.00    +0.000 A 
ENDROOT
BRANCH   5  10
ATOM     10  C   UNL     1       0.555  12.546  20.135  0.00  0.00    +0.000 A 
ATOM     11  C   UNL     1      -0.636  13.226  20.418  0.00  0.00    +0.000 A 
ATOM     12  C   UNL     1      -0.893  14.488  19.862  0.00  0.00    +0.000 A 
ATOM     13  C   UNL     1       0.072  15.089  19.065  0.00  0.00    +0.000 A 
ATOM     14 BR   UNL     1      -0.293  16.765  18.274  0.00  0.00    +0.000 Br
ATOM     15  C   UNL     1       1.293  14.465  18.835  0.00  0.00    +0.000 A 
ATOM     16  C   UNL     1       1.530  13.188  19.364  0.00  0.00    +0.000 A 
ENDBRANCH   5  10
BRANCH   1  18
ATOM     17  C   UNL     1       2.848   5.176  17.687  0.00  0.00    +0.000 C 
ATOM     18  C   UNL     1       2.380   6.297  18.159  0.00  0.00    +0.000 C 
BRANCH  17  19
ATOM     19  C   UNL     1       3.392   3.867  17.138  0.00  0.00    +0.000 C 
BRANCH  19  20
ATOM     20  C   UNL     1       4.541   3.403  18.026  0.00  0.00    +0.000 C 
BRANCH  20  21
ATOM     21  C   UNL     1       5.566   4.515  18.260  0.00  0.00    +0.000 C 
BRANCH  21  22
ATOM     22  N   UNL     1       6.772   4.419  17.408  0.00  0.00    +0.000 NA
BRANCH  22  24
ATOM     23  C   UNL     1       6.803   4.685  14.857  0.00  0.00    +0.000 C 
ATOM     24  C   UNL     1       6.602   5.309  16.231  0.00  0.00    +0.000 C 
ENDBRANCH  22  24
BRANCH  22  25
ATOM     25  C   UNL     1       7.987   4.764  18.190  0.00  0.00    +0.000 C 
BRANCH  25  26
ATOM     26  C   UNL     1       7.795   5.853  19.273  0.00  0.00    +0.000 C 
BRANCH  26  27
ATOM     27  O   UNL     1       8.100   5.379  20.578  0.00  0.00    +0.000 OA
ATOM     28  H   UNL     1       7.353   5.644  21.145  0.00  0.00    +0.000 HD
ENDBRANCH  26  27
ENDBRANCH  25  26
ENDBRANCH  22  25
ENDBRANCH  21  22
ENDBRANCH  20  21
ENDBRANCH  19  20
ENDBRANCH  17  19
ENDBRANCH   1  18
TORSDOF 10
ENDMDL
MODEL 2
REMARK VINA RESULT:      -6.8      0.952      1.115
REMARK  Name = 
REMARK  11 active torsions:
REMARK  status: ('A' for Active; 'I' for Inactive)
REMARK    1  A    between atoms: C_1  and  C_2
REMARK    2  A    between atoms: C_2  and  N_3
REMARK    3  A    between atoms: N_3  and  C_4
REMARK    4  A    between atoms: N_3  and  C_7
REMARK    5  A    between atoms: C_4  and  C_5
REMARK    6  A    between atoms: C_5  and  O_6
REMARK    7  A    between atoms: C_7  and  C_8
REMARK    8  A    between atoms: C_8  and  C_9
REMARK    9  A    between atoms: C_9  and  C_10
REMARK   10  A    between atoms: C_11  and  C_12
REMARK   11  A    between atoms: C_16  and  C_17
REMARK                            x       y       z     vdW  Elec       q    Type
REMARK                         _______ _______ _______ _____ _____    ______ ____
ROOT
ATOM      1  C   UNL     1       2.025   7.418  19.277  0.00  0.00    +0.000 A 
ATOM      2  C   UNL     1       2.048   8.461  18.365  0.00  0.00    +0.000 A 
ATOM      3  C   UNL     1       1.593   9.726  18.743  0.00  0.00    +0.000 A 
ATOM      4  C   UNL     1       1.071   9.958  20.046  0.00  0.00    +0.000 A 
ATOM      5  C   UNL     1       0.535  11.142  20.710  0.00  0.00    +0.000 A 
ATOM      6  N   UNL     1       0.183  10.968  21.990  0.00  0.00    +0.000 NA
ATOM      7  S   UNL     1       0.448   9.408  22.435  0.00  0.00    +0.000 S 
ATOM      8  C   UNL     1       1.071   8.877  20.931  0.00  0.00    +0.000 A 
ATOM      9  C   UNL     1       1.537   7.602  20.571  0.00  0.00    +0.000 A 
ENDROOT
BRANCH   5  10
ATOM     10  C   UNL     1       0.407  12.489  20.122  0.00  0.00    +0.000 A 
ATOM     11  C   UNL     1       1.019  13.599  20.716  0.00  0.00    +0.000 A 
ATOM     12  C   UNL     1       0.790  14.894  20.228  0.00  0.00    +0.000 A 
ATOM     13  C   UNL     1      -0.011  15.066  19.107  0.00  0.00    +0.000 A 
ATOM     14 BR   UNL     1      -0.363  16.813  18.478  0.00  0.00    +0.000 Br
ATOM     15  C   UNL     1      -0.567  13.970  18.455  0.00  0.00    +0.000 A 
ATOM     16  C   UNL     1      -0.363  12.682  18.969  0.00  0.00    +0.000 A 
ENDBRANCH   5  10
BRANCH   1  18
ATOM     17  C   UNL     1       2.972   4.965  18.558  0.00  0.00    +0.000 C 
ATOM     18  C   UNL     1       2.554   6.150  18.903  0.00  0.00    +0.000 C 
BRANCH  17  19
ATOM     19  C   UNL     1       3.461   3.583  18.154  0.00  0.00    +0.000 C 
BRANCH  19  20
ATOM     20  C   UNL     1       4.048   3.662  16.749  0.00  0.00    +0.000 C 
BRANCH  20  21
ATOM     21  C   UNL     1       5.131   4.738  16.643  0.00  0.00    +0.000 C 
BRANCH  21  22
ATOM     22  N   UNL     1       6.494   4.208  16.421  0.00  0.00    +0.000 NA
BRANCH  22  24
ATOM     23  C   UNL     1       6.166   4.012  13.885  0.00  0.00    +0.000 C 
ATOM     24  C   UNL     1       6.944   4.592  15.059  0.00  0.00    +0.000 C 
ENDBRANCH  22  24
BRANCH  22  25
ATOM     25  C   UNL     1       7.421   4.707  17.470  0.00  0.00    +0.000 C 
BRANCH  25  26
ATOM     26  C   UNL     1       6.801   5.688  18.494  0.00  0.00    +0.000 C 
BRANCH  26  27
ATOM     27  O   UNL     1       6.660   5.107  19.784  0.00  0.00    +0.000 OA
ATOM     28  H   UNL     1       6.865   4.160  19.679  0.00  0.00    +0.000 HD
ENDBRANCH  26  27
ENDBRANCH  25  26
ENDBRANCH  22  25
ENDBRANCH  21  22
ENDBRANCH  20  21
ENDBRANCH  19  20
ENDBRANCH  17  19
ENDBRANCH   1  18
TORSDOF 10
ENDMDL
MODEL 3
REMARK VINA RESULT:      -6.7      0.831      1.210
REMARK  Name = 
REMARK  11 active torsions:
REMARK  status: ('A' for Active; 'I' for Inactive)
REMARK    1  A    between atoms: C_1  and  C_2
REMARK    2  A    between atoms: C_2  and  N_3
REMARK    3  A    between atoms: N_3  and  C_4
REMARK    4  A    between atoms: N_3  and  C_7
REMARK    5  A    between atoms: C_4  and  C_5
REMARK    6  A    between atoms: C_5  and  O_6
REMARK    7  A    between atoms: C_7  and  C_8
REMARK    8  A    between atoms: C_8  and  C_9
REMARK    9  A    between atoms: C_9  and  C_10
REMARK   10  A    between atoms: C_11  and  C_12
REMARK   11  A    between atoms: C_16  and  C_17
REMARK                            x       y       z     vdW  Elec       q    Type
REMARK                         _______ _______ _______ _____ _____    ______ ____
ROOT
ATOM      1  C   UNL     1       1.908   7.113  18.693  0.00  0.00    +0.000 A 
ATOM      2  C   UNL     1       1.887   8.180  17.809  0.00  0.00    +0.000 A 
ATOM      3  C   UNL     1       1.626   9.468  18.278  0.00  0.00    +0.000 A 
ATOM      4  C   UNL     1       1.346   9.706  19.653  0.00  0.00    +0.000 A 
ATOM      5  C   UNL     1       1.043  10.912  20.416  0.00  0.00    +0.000 A 
ATOM      6  N   UNL     1       0.886  10.729  21.733  0.00  0.00    +0.000 NA
ATOM      7  S   UNL     1       1.063   9.137  22.102  0.00  0.00    +0.000 S 
ATOM      8  C   UNL     1       1.381   8.600  20.506  0.00  0.00    +0.000 A 
ATOM      9  C   UNL     1       1.654   7.300  20.053  0.00  0.00    +0.000 A 
ENDROOT
BRANCH   5  10
ATOM     10  C   UNL     1       0.955  12.284  19.881  0.00  0.00    +0.000 A 
ATOM     11  C   UNL     1       1.947  13.233  20.157  0.00  0.00    +0.000 A 
ATOM     12  C   UNL     1       1.798  14.568  19.754  0.00  0.00    +0.000 A 
ATOM     13  C   UNL     1       0.675  14.936  19.024  0.00  0.00    +0.000 A 
ATOM     14 BR   UNL     1       0.446  16.744  18.525  0.00  0.00    +0.000 Br
ATOM     15  C   UNL     1      -0.285  13.993  18.672  0.00  0.00    +0.000 A 
ATOM     16  C   UNL     1      -0.147  12.668  19.109  0.00  0.00    +0.000 A 
ENDBRANCH   5  10
BRANCH   1  18
ATOM     17  C   UNL     1       2.611   4.632  17.810  0.00  0.00    +0.000 C 
ATOM     18  C   UNL     1       2.242   5.814  18.216  0.00  0.00    +0.000 C 
BRANCH  17  19
ATOM     19  C   UNL     1       3.041   3.253  17.337  0.00  0.00    +0.000 C 
BRANCH  19  20
ATOM     20  C   UNL     1       4.549   3.120  17.520  0.00  0.00    +0.000 C 
BRANCH  20  21
ATOM     21  C   UNL     1       5.323   3.885  16.445  0.00  0.00    +0.000 C 
BRANCH  21  22
ATOM     22  N   UNL     1       6.505   4.617  16.952  0.00  0.00    +0.000 NA
BRANCH  22  24
ATOM     23  C   UNL     1       5.188   6.632  16.064  0.00  0.00    +0.000 C 
ATOM     24  C   UNL     1       6.532   5.970  16.339  0.00  0.00    +0.000 C 
ENDBRANCH  22  24
BRANCH  22  25
ATOM     25  C   UNL     1       6.475   4.683  18.436  0.00  0.00    +0.000 C 
BRANCH  25  26
ATOM     26  C   UNL     1       7.318   5.816  19.069  0.00  0.00    +0.000 C 
BRANCH  26  27
ATOM     27  O   UNL     1       8.359   5.318  19.900  0.00  0.00    +0.000 OA
ATOM     28  H   UNL     1       7.923   4.795  20.596  0.00  0.00    +0.000 HD
ENDBRANCH  26  27
ENDBRANCH  25  26
ENDBRANCH  22  25
ENDBRANCH  21  22
ENDBRANCH  20  21
ENDBRANCH  19  20
ENDBRANCH  17  19
ENDBRANCH   1  18
TORSDOF 10
ENDMDL
MODEL 4
REMARK VINA RESULT:      -6.7      4.336      9.524
REMARK  Name = 
REMARK  11 active torsions:
REMARK  status: ('A' for Active; 'I' for Inactive)
REMARK    1  A    between atoms: C_1  and  C_2
REMARK    2  A    between atoms: C_2  and  N_3
REMARK    3  A    between atoms: N_3  and  C_4
REMARK    4  A    between atoms: N_3  and  C_7
REMARK    5  A    between atoms: C_4  and  C_5
REMARK    6  A    between atoms: C_5  and  O_6
REMARK    7  A    between atoms: C_7  and  C_8
REMARK    8  A    between atoms: C_8  and  C_9
REMARK    9  A    between atoms: C_9  and  C_10
REMARK   10  A    between atoms: C_11  and  C_12
REMARK   11  A    between atoms: C_16  and  C_17
REMARK                            x       y       z     vdW  Elec       q    Type
REMARK                         _______ _______ _______ _____ _____    ______ ____
ROOT
ATOM      1  C   UNL     1       2.015   7.011  20.113  0.00  0.00    +0.000 A 
ATOM      2  C   UNL     1       2.658   7.521  18.996  0.00  0.00    +0.000 A 
ATOM      3  C   UNL     1       3.474   6.693  18.224  0.00  0.00    +0.000 A 
ATOM      4  C   UNL     1       3.687   5.333  18.582  0.00  0.00    +0.000 A 
ATOM      5  C   UNL     1       4.468   4.254  17.984  0.00  0.00    +0.000 A 
ATOM      6  N   UNL     1       4.373   3.071  18.603  0.00  0.00    +0.000 NA
ATOM      7  S   UNL     1       3.389   3.203  19.913  0.00  0.00    +0.000 S 
ATOM      8  C   UNL     1       3.017   4.863  19.714  0.00  0.00    +0.000 A 
ATOM      9  C   UNL     1       2.183   5.678  20.494  0.00  0.00    +0.000 A 
ENDROOT
BRANCH   5  10
ATOM     10  C   UNL     1       5.283   4.343  16.757  0.00  0.00    +0.000 A 
ATOM     11  C   UNL     1       6.658   4.595  16.821  0.00  0.00    +0.000 A 
ATOM     12  C   UNL     1       7.405   4.806  15.652  0.00  0.00    +0.000 A 
ATOM     13  C   UNL     1       6.778   4.708  14.417  0.00  0.00    +0.000 A 
ATOM     14 BR   UNL     1       7.770   5.042  12.844  0.00  0.00    +0.000 Br
ATOM     15  C   UNL     1       5.428   4.383  14.330  0.00  0.00    +0.000 A 
ATOM     16  C   UNL     1       4.680   4.208  15.502  0.00  0.00    +0.000 A 
ENDBRANCH   5  10
BRANCH   1  18
ATOM     17  C   UNL     1       0.336   8.568  21.592  0.00  0.00    +0.000 C 
ATOM     18  C   UNL     1       1.132   7.844  20.855  0.00  0.00    +0.000 C 
BRANCH  17  19
ATOM     19  C   UNL     1      -0.591   9.414  22.450  0.00  0.00    +0.000 C 
BRANCH  19  20
ATOM     20  C   UNL     1      -0.333  10.885  22.147  0.00  0.00    +0.000 C 
BRANCH  20  21
ATOM     21  C   UNL     1      -0.695  11.242  20.703  0.00  0.00    +0.000 C 
BRANCH  21  22
ATOM     22  N   UNL     1      -0.288  12.604  20.293  0.00  0.00    +0.000 NA
BRANCH  22  24
ATOM     23  C   UNL     1       1.773  14.131  20.236  0.00  0.00    +0.000 C 
ATOM     24  C   UNL     1       1.156  12.785  20.593  0.00  0.00    +0.000 C 
ENDBRANCH  22  24
BRANCH  22  25
ATOM     25  C   UNL     1      -0.585  12.823  18.854  0.00  0.00    +0.000 C 
BRANCH  25  26
ATOM     26  C   UNL     1      -1.677  11.905  18.253  0.00  0.00    +0.000 C 
BRANCH  26  27
ATOM     27  O   UNL     1      -1.720  11.972  16.834  0.00  0.00    +0.000 OA
ATOM     28  H   UNL     1      -2.197  11.176  16.539  0.00  0.00    +0.000 HD
ENDBRANCH  26  27
ENDBRANCH  25  26
ENDBRANCH  22  25
ENDBRANCH  21  22
ENDBRANCH  20  21
ENDBRANCH  19  20
ENDBRANCH  17  19
ENDBRANCH   1  18
TORSDOF 10
ENDMDL
MODEL 5
REMARK VINA RESULT:      -6.7      4.813      9.579
REMARK  Name = 
REMARK  11 active torsions:
REMARK  status: ('A' for Active; 'I' for Inactive)
REMARK    1  A    between atoms: C_1  and  C_2
REMARK    2  A    between atoms: C_2  and  N_3
REMARK    3  A    between atoms: N_3  and  C_4
REMARK    4  A    between atoms: N_3  and  C_7
REMARK    5  A    between atoms: C_4  and  C_5
REMARK    6  A    between atoms: C_5  and  O_6
REMARK    7  A    between atoms: C_7  and  C_8
REMARK    8  A    between atoms: C_8  and  C_9
REMARK    9  A    between atoms: C_9  and  C_10
REMARK   10  A    between atoms: C_11  and  C_12
REMARK   11  A    between atoms: C_16  and  C_17
REMARK                            x       y       z     vdW  Elec       q    Type
REMARK                         _______ _______ _______ _____ _____    ______ ____
ROOT
ATOM      1  C   UNL     1       0.872   9.496  19.614  0.00  0.00    +0.000 A 
ATOM      2  C   UNL     1       1.453   9.515  18.356  0.00  0.00    +0.000 A 
ATOM      3  C   UNL     1       2.234   8.437  17.934  0.00  0.00    +0.000 A 
ATOM      4  C   UNL     1       2.474   7.326  18.789  0.00  0.00    +0.000 A 
ATOM      5  C   UNL     1       3.229   6.087  18.629  0.00  0.00    +0.000 A 
ATOM      6  N   UNL     1       3.173   5.246  19.669  0.00  0.00    +0.000 NA
ATOM      7  S   UNL     1       2.257   5.899  20.867  0.00  0.00    +0.000 S 
ATOM      8  C   UNL     1       1.865   7.351  20.047  0.00  0.00    +0.000 A 
ATOM      9  C   UNL     1       1.067   8.421  20.482  0.00  0.00    +0.000 A 
ENDROOT
BRANCH   5  10
ATOM     10  C   UNL     1       3.979   5.673  17.428  0.00  0.00    +0.000 A 
ATOM     11  C   UNL     1       4.095   4.322  17.078  0.00  0.00    +0.000 A 
ATOM     12  C   UNL     1       4.913   3.923  16.011  0.00  0.00    +0.000 A 
ATOM     13  C   UNL     1       5.572   4.889  15.261  0.00  0.00    +0.000 A 
ATOM     14 BR   UNL     1       6.715   4.351  13.856  0.00  0.00    +0.000 Br
ATOM     15  C   UNL     1       5.409   6.241  15.544  0.00  0.00    +0.000 A 
ATOM     16  C   UNL     1       4.618   6.631  16.633  0.00  0.00    +0.000 A 
ENDBRANCH   5  10
BRANCH   1  18
ATOM     17  C   UNL     1      -0.801  11.529  20.321  0.00  0.00    +0.000 C 
ATOM     18  C   UNL     1       0.022  10.568  20.009  0.00  0.00    +0.000 C 
BRANCH  17  19
ATOM     19  C   UNL     1      -1.762  12.650  20.685  0.00  0.00    +0.000 C 
BRANCH  19  20
ATOM     20  C   UNL     1      -3.113  12.366  20.040  0.00  0.00    +0.000 C 
BRANCH  20  21
ATOM     21  C   UNL     1      -2.970  11.943  18.577  0.00  0.00    +0.000 C 
BRANCH  21  22
ATOM     22  N   UNL     1      -3.784  10.767  18.201  0.00  0.00    +0.000 NA
BRANCH  22  24
ATOM     23  C   UNL     1      -6.334  11.034  18.297  0.00  0.00    +0.000 C 
ATOM     24  C   UNL     1      -5.029  11.235  17.538  0.00  0.00    +0.000 C 
ENDBRANCH  22  24
BRANCH  22  25
ATOM     25  C   UNL     1      -3.003   9.854  17.327  0.00  0.00    +0.000 C 
BRANCH  25  26
ATOM     26  C   UNL     1      -3.165  10.088  15.806  0.00  0.00    +0.000 C 
BRANCH  26  27
ATOM     27  O   UNL     1      -2.388  11.185  15.341  0.00  0.00    +0.000 OA
ATOM     28  H   UNL     1      -2.990  11.737  14.810  0.00  0.00    +0.000 HD
ENDBRANCH  26  27
ENDBRANCH  25  26
ENDBRANCH  22  25
ENDBRANCH  21  22
ENDBRANCH  20  21
ENDBRANCH  19  20
ENDBRANCH  17  19
ENDBRANCH   1  18
TORSDOF 10
ENDMDL
MODEL 6
REMARK VINA RESULT:      -6.7      3.001      3.822
REMARK  Name = 
REMARK  11 active torsions:
REMARK  status: ('A' for Active; 'I' for Inactive)
REMARK    1  A    between atoms: C_1  and  C_2
REMARK    2  A    between atoms: C_2  and  N_3
REMARK    3  A    between atoms: N_3  and  C_4
REMARK    4  A    between atoms: N_3  and  C_7
REMARK    5  A    between atoms: C_4  and  C_5
REMARK    6  A    between atoms: C_5  and  O_6
REMARK    7  A    between atoms: C_7  and  C_8
REMARK    8  A    between atoms: C_8  and  C_9
REMARK    9  A    between atoms: C_9  and  C_10
REMARK   10  A    between atoms: C_11  and  C_12
REMARK   11  A    between atoms: C_16  and  C_17
REMARK                            x       y       z     vdW  Elec       q    Type
REMARK                         _______ _______ _______ _____ _____    ______ ____
ROOT
ATOM      1  C   UNL     1       1.264   9.790  18.918  0.00  0.00    +0.000 A 
ATOM      2  C   UNL     1       0.260   9.342  19.762  0.00  0.00    +0.000 A 
ATOM      3  C   UNL     1      -0.685  10.241  20.259  0.00  0.00    +0.000 A 
ATOM      4  C   UNL     1      -0.618  11.626  19.940  0.00  0.00    +0.000 A 
ATOM      5  C   UNL     1      -1.442  12.775  20.301  0.00  0.00    +0.000 A 
ATOM      6  N   UNL     1      -1.076  13.937  19.746  0.00  0.00    +0.000 NA
ATOM      7  S   UNL     1       0.256  13.714  18.810  0.00  0.00    +0.000 S 
ATOM      8  C   UNL     1       0.410  12.030  19.083  0.00  0.00    +0.000 A 
ATOM      9  C   UNL     1       1.360  11.137  18.565  0.00  0.00    +0.000 A 
ENDROOT
BRANCH   5  10
ATOM     10  C   UNL     1      -2.643  12.751  21.158  0.00  0.00    +0.000 A 
ATOM     11  C   UNL     1      -3.920  12.947  20.617  0.00  0.00    +0.000 A 
ATOM     12  C   UNL     1      -5.045  13.050  21.449  0.00  0.00    +0.000 A 
ATOM     13  C   UNL     1      -4.892  12.902  22.821  0.00  0.00    +0.000 A 
ATOM     14 BR   UNL     1      -6.397  13.093  23.947  0.00  0.00    +0.000 Br
ATOM     15  C   UNL     1      -3.644  12.631  23.372  0.00  0.00    +0.000 A 
ATOM     16  C   UNL     1      -2.518  12.564  22.538  0.00  0.00    +0.000 A 
ENDBRANCH   5  10
BRANCH   1  18
ATOM     17  C   UNL     1       3.013   8.029  17.791  0.00  0.00    +0.000 C 
ATOM     18  C   UNL     1       2.181   8.854  18.362  0.00  0.00    +0.000 C 
BRANCH  17  19
ATOM     19  C   UNL     1       3.984   7.067  17.125  0.00  0.00    +0.000 C 
BRANCH  19  20
ATOM     20  C   UNL     1       4.034   5.780  17.940  0.00  0.00    +0.000 C 
BRANCH  20  21
ATOM     21  C   UNL     1       4.848   4.691  17.237  0.00  0.00    +0.000 C 
BRANCH  21  22
ATOM     22  N   UNL     1       6.123   4.356  17.910  0.00  0.00    +0.000 NA
BRANCH  22  24
ATOM     23  C   UNL     1       6.884   4.652  15.478  0.00  0.00    +0.000 C 
ATOM     24  C   UNL     1       7.241   4.570  16.957  0.00  0.00    +0.000 C 
ENDBRANCH  22  24
BRANCH  22  25
ATOM     25  C   UNL     1       6.286   5.168  19.144  0.00  0.00    +0.000 C 
BRANCH  25  26
ATOM     26  C   UNL     1       7.706   5.733  19.387  0.00  0.00    +0.000 C 
BRANCH  26  27
ATOM     27  O   UNL     1       8.180   5.462  20.699  0.00  0.00    +0.000 OA
ATOM     28  H   UNL     1       8.563   6.295  21.027  0.00  0.00    +0.000 HD
ENDBRANCH  26  27
ENDBRANCH  25  26
ENDBRANCH  22  25
ENDBRANCH  21  22
ENDBRANCH  20  21
ENDBRANCH  19  20
ENDBRANCH  17  19
ENDBRANCH   1  18
TORSDOF 10
ENDMDL
MODEL 7
REMARK VINA RESULT:      -6.7      1.608      2.270
REMARK  Name = 
REMARK  11 active torsions:
REMARK  status: ('A' for Active; 'I' for Inactive)
REMARK    1  A    between atoms: C_1  and  C_2
REMARK    2  A    between atoms: C_2  and  N_3
REMARK    3  A    between atoms: N_3  and  C_4
REMARK    4  A    between atoms: N_3  and  C_7
REMARK    5  A    between atoms: C_4  and  C_5
REMARK    6  A    between atoms: C_5  and  O_6
REMARK    7  A    between atoms: C_7  and  C_8
REMARK    8  A    between atoms: C_8  and  C_9
REMARK    9  A    between atoms: C_9  and  C_10
REMARK   10  A    between atoms: C_11  and  C_12
REMARK   11  A    between atoms: C_16  and  C_17
REMARK                            x       y       z     vdW  Elec       q    Type
REMARK                         _______ _______ _______ _____ _____    ______ ____
ROOT
ATOM      1  C   UNL     1       1.959   7.441  19.124  0.00  0.00    +0.000 A 
ATOM      2  C   UNL     1       1.929   8.458  18.182  0.00  0.00    +0.000 A 
ATOM      3  C   UNL     1       1.535   9.743  18.557  0.00  0.00    +0.000 A 
ATOM      4  C   UNL     1       1.129  10.026  19.891  0.00  0.00    +0.000 A 
ATOM      5  C   UNL     1       0.676  11.241  20.560  0.00  0.00    +0.000 A 
ATOM      6  N   UNL     1       0.427  11.112  21.869  0.00  0.00    +0.000 NA
ATOM      7  S   UNL     1       0.693   9.560  22.339  0.00  0.00    +0.000 S 
ATOM      8  C   UNL     1       1.178   8.970  20.805  0.00  0.00    +0.000 A 
ATOM      9  C   UNL     1       1.583   7.675  20.448  0.00  0.00    +0.000 A 
ENDROOT
BRANCH   5  10
ATOM     10  C   UNL     1       0.529  12.573  19.943  0.00  0.00    +0.000 A 
ATOM     11  C   UNL     1       1.631  13.242  19.397  0.00  0.00    +0.000 A 
ATOM     12  C   UNL     1       1.513  14.559  18.927  0.00  0.00    +0.000 A 
ATOM     13  C   UNL     1       0.272  15.182  18.957  0.00  0.00    +0.000 A 
ATOM     14 BR   UNL     1       0.120  16.973  18.373  0.00  0.00    +0.000 Br
ATOM     15  C   UNL     1      -0.851  14.507  19.423  0.00  0.00    +0.000 A 
ATOM     16  C   UNL     1      -0.719  13.205  19.924  0.00  0.00    +0.000 A 
ENDBRANCH   5  10
BRANCH   1  18
ATOM     17  C   UNL     1       2.794   4.958  18.368  0.00  0.00    +0.000 C 
ATOM     18  C   UNL     1       2.427   6.151  18.747  0.00  0.00    +0.000 C 
BRANCH  17  19
ATOM     19  C   UNL     1       3.223   3.569  17.927  0.00  0.00    +0.000 C 
BRANCH  19  20
ATOM     20  C   UNL     1       4.306   3.706  16.863  0.00  0.00    +0.000 C 
BRANCH  20  21
ATOM     21  C   UNL     1       5.532   4.455  17.390  0.00  0.00    +0.000 C 
BRANCH  21  22
ATOM     22  N   UNL     1       5.862   5.686  16.638  0.00  0.00    +0.000 NA
BRANCH  22  24
ATOM     23  C   UNL     1       7.513   7.420  17.559  0.00  0.00    +0.000 C 
ATOM     24  C   UNL     1       7.272   6.059  16.920  0.00  0.00    +0.000 C 
ENDBRANCH  22  24
BRANCH  22  25
ATOM     25  C   UNL     1       5.624   5.484  15.185  0.00  0.00    +0.000 C 
BRANCH  25  26
ATOM     26  C   UNL     1       6.768   4.782  14.415  0.00  0.00    +0.000 C 
BRANCH  26  27
ATOM     27  O   UNL     1       6.403   3.482  13.969  0.00  0.00    +0.000 OA
ATOM     28  H   UNL     1       7.067   2.873  14.339  0.00  0.00    +0.000 HD
ENDBRANCH  26  27
ENDBRANCH  25  26
ENDBRANCH  22  25
ENDBRANCH  21  22
ENDBRANCH  20  21
ENDBRANCH  19  20
ENDBRANCH  17  19
ENDBRANCH   1  18
TORSDOF 10
ENDMDL
MODEL 8
REMARK VINA RESULT:      -6.6      5.128      9.809
REMARK  Name = 
REMARK  11 active torsions:
REMARK  status: ('A' for Active; 'I' for Inactive)
REMARK    1  A    between atoms: C_1  and  C_2
REMARK    2  A    between atoms: C_2  and  N_3
REMARK    3  A    between atoms: N_3  and  C_4
REMARK    4  A    between atoms: N_3  and  C_7
REMARK    5  A    between atoms: C_4  and  C_5
REMARK    6  A    between atoms: C_5  and  O_6
REMARK    7  A    between atoms: C_7  and  C_8
REMARK    8  A    between atoms: C_8  and  C_9
REMARK    9  A    between atoms: C_9  and  C_10
REMARK   10  A    between atoms: C_11  and  C_12
REMARK   11  A    between atoms: C_16  and  C_17
REMARK                            x       y       z     vdW  Elec       q    Type
REMARK                         _______ _______ _______ _____ _____    ______ ____
ROOT
ATOM      1  C   UNL     1       1.245   9.377  19.483  0.00  0.00    +0.000 A 
ATOM      2  C   UNL     1       1.918   9.409  18.272  0.00  0.00    +0.000 A 
ATOM      3  C   UNL     1       2.654   8.299  17.855  0.00  0.00    +0.000 A 
ATOM      4  C   UNL     1       2.757   7.139  18.671  0.00  0.00    +0.000 A 
ATOM      5  C   UNL     1       3.439   5.859  18.506  0.00  0.00    +0.000 A 
ATOM      6  N   UNL     1       3.251   4.980  19.498  0.00  0.00    +0.000 NA
ATOM      7  S   UNL     1       2.294   5.643  20.658  0.00  0.00    +0.000 S 
ATOM      8  C   UNL     1       2.060   7.152  19.882  0.00  0.00    +0.000 A 
ATOM      9  C   UNL     1       1.305   8.255  20.310  0.00  0.00    +0.000 A 
ENDROOT
BRANCH   5  10
ATOM     10  C   UNL     1       4.246   5.445  17.342  0.00  0.00    +0.000 A 
ATOM     11  C   UNL     1       4.854   6.393  16.510  0.00  0.00    +0.000 A 
ATOM     12  C   UNL     1       5.513   6.002  15.335  0.00  0.00    +0.000 A 
ATOM     13  C   UNL     1       5.608   4.651  15.027  0.00  0.00    +0.000 A 
ATOM     14 BR   UNL     1       6.450   4.126  13.419  0.00  0.00    +0.000 Br
ATOM     15  C   UNL     1       5.079   3.689  15.879  0.00  0.00    +0.000 A 
ATOM     16  C   UNL     1       4.391   4.088  17.033  0.00  0.00    +0.000 A 
ENDBRANCH   5  10
BRANCH   1  18
ATOM     17  C   UNL     1      -0.348  11.459  20.232  0.00  0.00    +0.000 C 
ATOM     18  C   UNL     1       0.442  10.487  19.867  0.00  0.00    +0.000 C 
BRANCH  17  19
ATOM     19  C   UNL     1      -1.267  12.592  20.658  0.00  0.00    +0.000 C 
BRANCH  19  20
ATOM     20  C   UNL     1      -2.244  12.882  19.525  0.00  0.00    +0.000 C 
BRANCH  20  21
ATOM     21  C   UNL     1      -2.845  11.599  18.948  0.00  0.00    +0.000 C 
BRANCH  21  22
ATOM     22  N   UNL     1      -3.620  11.797  17.702  0.00  0.00    +0.000 NA
BRANCH  22  24
ATOM     23  C   UNL     1      -2.088   9.849  17.038  0.00  0.00    +0.000 C 
ATOM     24  C   UNL     1      -3.351  10.662  16.783  0.00  0.00    +0.000 C 
ENDBRANCH  22  24
BRANCH  22  25
ATOM     25  C   UNL     1      -5.067  11.930  18.008  0.00  0.00    +0.000 C 
BRANCH  25  26
ATOM     26  C   UNL     1      -5.784  10.621  18.417  0.00  0.00    +0.000 C 
BRANCH  26  27
ATOM     27  O   UNL     1      -7.198  10.765  18.448  0.00  0.00    +0.000 OA
ATOM     28  H   UNL     1      -7.372  11.697  18.671  0.00  0.00    +0.000 HD
ENDBRANCH  26  27
ENDBRANCH  25  26
ENDBRANCH  22  25
ENDBRANCH  21  22
ENDBRANCH  20  21
ENDBRANCH  19  20
ENDBRANCH  17  19
ENDBRANCH   1  18
TORSDOF 10
ENDMDL
MODEL 9
REMARK VINA RESULT:      -6.6      4.393      9.600
REMARK  Name = 
REMARK  11 active torsions:
REMARK  status: ('A' for Active; 'I' for Inactive)
REMARK    1  A    between atoms: C_1  and  C_2
REMARK    2  A    between atoms: C_2  and  N_3
REMARK    3  A    between atoms: N_3  and  C_4
REMARK    4  A    between atoms: N_3  and  C_7
REMARK    5  A    between atoms: C_4  and  C_5
REMARK    6  A    between atoms: C_5  and  O_6
REMARK    7  A    between atoms: C_7  and  C_8
REMARK    8  A    between atoms: C_8  and  C_9
REMARK    9  A    between atoms: C_9  and  C_10
REMARK   10  A    between atoms: C_11  and  C_12
REMARK   11  A    between atoms: C_16  and  C_17
REMARK                            x       y       z     vdW  Elec       q    Type
REMARK                         _______ _______ _______ _____ _____    ______ ____
ROOT
ATOM      1  C   UNL     1       2.058   7.106  20.119  0.00  0.00    +0.000 A 
ATOM      2  C   UNL     1       2.732   7.602  19.015  0.00  0.00    +0.000 A 
ATOM      3  C   UNL     1       3.511   6.748  18.233  0.00  0.00    +0.000 A 
ATOM      4  C   UNL     1       3.655   5.373  18.569  0.00  0.00    +0.000 A 
ATOM      5  C   UNL     1       4.384   4.267  17.957  0.00  0.00    +0.000 A 
ATOM      6  N   UNL     1       4.227   3.080  18.555  0.00  0.00    +0.000 NA
ATOM      7  S   UNL     1       3.242   3.239  19.862  0.00  0.00    +0.000 S 
ATOM      8  C   UNL     1       2.954   4.918  19.689  0.00  0.00    +0.000 A 
ATOM      9  C   UNL     1       2.156   5.761  20.478  0.00  0.00    +0.000 A 
ENDROOT
BRANCH   5  10
ATOM     10  C   UNL     1       5.211   4.336  16.737  0.00  0.00    +0.000 A 
ATOM     11  C   UNL     1       6.577   4.636  16.806  0.00  0.00    +0.000 A 
ATOM     12  C   UNL     1       7.331   4.826  15.638  0.00  0.00    +0.000 A 
ATOM     13  C   UNL     1       6.722   4.661  14.401  0.00  0.00    +0.000 A 
ATOM     14 BR   UNL     1       7.722   4.968  12.828  0.00  0.00    +0.000 Br
ATOM     15  C   UNL     1       5.385   4.288  14.311  0.00  0.00    +0.000 A 
ATOM     16  C   UNL     1       4.628   4.134  15.481  0.00  0.00    +0.000 A 
ENDBRANCH   5  10
BRANCH   1  18
ATOM     17  C   UNL     1       0.386   8.711  21.556  0.00  0.00    +0.000 C 
ATOM     18  C   UNL     1       1.211   7.970  20.870  0.00  0.00    +0.000 C 
BRANCH  17  19
ATOM     19  C   UNL     1      -0.574   9.575  22.356  0.00  0.00    +0.000 C 
BRANCH  19  20
ATOM     20  C   UNL     1      -0.603  10.971  21.744  0.00  0.00    +0.000 C 
BRANCH  20  21
ATOM     21  C   UNL     1      -0.843  10.926  20.233  0.00  0.00    +0.000 C 
BRANCH  21  22
ATOM     22  N   UNL     1      -1.781  11.957  19.735  0.00  0.00    +0.000 NA
BRANCH  22  24
ATOM     23  C   UNL     1      -0.297  13.675  18.541  0.00  0.00    +0.000 C 
ATOM     24  C   UNL     1      -1.106  13.279  19.770  0.00  0.00    +0.000 C 
ENDBRANCH  22  24
BRANCH  22  25
ATOM     25  C   UNL     1      -2.252  11.612  18.369  0.00  0.00    +0.000 C 
BRANCH  25  26
ATOM     26  C   UNL     1      -2.000  10.150  17.928  0.00  0.00    +0.000 C 
BRANCH  26  27
ATOM     27  O   UNL     1      -3.177   9.523  17.432  0.00  0.00    +0.000 OA
ATOM     28  H   UNL     1      -3.547   9.015  18.176  0.00  0.00    +0.000 HD
ENDBRANCH  26  27
ENDBRANCH  25  26
ENDBRANCH  22  25
ENDBRANCH  21  22
ENDBRANCH  20  21
ENDBRANCH  19  20
ENDBRANCH  17  19
ENDBRANCH   1  18
TORSDOF 10
ENDMDL
