MODEL 1
REMARK VINA RESULT:      -8.2      0.000      0.000
REMARK  Name = 
REMARK  4 active torsions:
REMARK  status: ('A' for Active; 'I' for Inactive)
REMARK    1  A    between atoms: C_1  and  C_2
REMARK    2  A    between atoms: C_2  and  O_3
REMARK    3  A    between atoms: O_3  and  C_4
REMARK    4  A    between atoms: C_4  and  C_6
REMARK                            x       y       z     vdW  Elec       q    Type
REMARK                         _______ _______ _______ _____ _____    ______ ____
ROOT
ATOM      1  C   UNL     1       5.506   4.969  17.441  0.00  0.00    +0.000 A 
ATOM      2  C   UNL     1       5.127   4.245  18.584  0.00  0.00    +0.000 A 
ATOM      3  C   UNL     1       4.132   4.714  19.446  0.00  0.00    +0.000 A 
ATOM      4  C   UNL     1       3.538   5.928  19.104  0.00  0.00    +0.000 A 
ATOM      5  N   UNL     1       2.549   6.666  19.693  0.00  0.00    +0.000 N 
ATOM      6  C   UNL     1       2.315   7.790  18.941  0.00  0.00    +0.000 A 
ATOM      7  N   UNL     1       1.336   8.669  19.269  0.00  0.00    +0.000 N 
ATOM      8  C   UNL     1       0.822   8.849  20.619  0.00  0.00    +0.000 C 
ATOM      9  C   UNL     1       1.207  10.238  21.125  0.00  0.00    +0.000 C 
ATOM     10  C   UNL     1       0.739  11.322  20.148  0.00  0.00    +0.000 C 
ATOM     11  C   UNL     1       1.218  11.051  18.716  0.00  0.00    +0.000 C 
ATOM     12  C   UNL     1       0.868   9.633  18.275  0.00  0.00    +0.000 C 
ATOM     13  O   UNL     1      -0.716  11.359  20.164  0.00  0.00    +0.000 OA
ATOM     14  C   UNL     1      -1.212  12.567  20.565  0.00  0.00    +0.000 C 
ATOM     15  O   UNL     1      -2.383  12.868  20.677  0.00  0.00    +0.000 OA
ATOM     16  C   UNL     1      -0.061  13.416  20.835  0.00  0.00    +0.000 A 
ATOM     17  C   UNL     1      -0.054  14.738  21.247  0.00  0.00    +0.000 A 
ATOM     18  C   UNL     1       1.188  15.349  21.431  0.00  0.00    +0.000 A 
ATOM     19  C   UNL     1       2.373  14.627  21.205  0.00  0.00    +0.000 A 
ATOM     20  C   UNL     1       2.332  13.292  20.791  0.00  0.00    +0.000 A 
ATOM     21  C   UNL     1       1.094  12.696  20.605  0.00  0.00    +0.000 A 
ATOM     22  N   UNL     1       3.115   7.809  17.897  0.00  0.00    +0.000 NA
ATOM     23  C   UNL     1       3.879   6.669  17.981  0.00  0.00    +0.000 A 
ATOM     24  C   UNL     1       4.884   6.193  17.130  0.00  0.00    +0.000 A 
ATOM     25  H   UNL     1       2.026   6.393  20.507  0.00  0.00    +0.000 HD
ENDROOT
BRANCH   1  26
ATOM     26  C   UNL     1       6.631   4.436  16.628  0.00  0.00    +0.000 C 
ATOM     27  O   UNL     1       7.807   4.592  16.906  0.00  0.00    +0.000 OA
BRANCH  26  28
ATOM     28  O   UNL     1       6.140   3.889  15.490  0.00  0.00    +0.000 OA
BRANCH  28  30
ATOM     29  C   UNL     1       6.054   3.665  13.121  0.00  0.00    +0.000 C 
ATOM     30  C   UNL     1       6.571   4.508  14.273  0.00  0.00    +0.000 C 
ENDBRANCH  28  30
ENDBRANCH  26  28
ENDBRANCH   1  26
TORSDOF 3
ENDMDL
MODEL 2
REMARK VINA RESULT:      -8.1      5.703      8.997
REMARK  Name = 
REMARK  4 active torsions:
REMARK  status: ('A' for Active; 'I' for Inactive)
REMARK    1  A    between atoms: C_1  and  C_2
REMARK    2  A    between atoms: C_2  and  O_3
REMARK    3  A    between atoms: O_3  and  C_4
REMARK    4  A    between atoms: C_4  and  C_6
REMARK                            x       y       z     vdW  Elec       q    Type
REMARK                         _______ _______ _______ _____ _____    ______ ____
ROOT
ATOM      1  C   UNL     1       9.197  12.208  18.066  0.00  0.00    +0.000 A 
ATOM      2  C   UNL     1      10.182  11.583  18.848  0.00  0.00    +0.000 A 
ATOM      3  C   UNL     1      10.116  10.219  19.148  0.00  0.00    +0.000 A 
ATOM      4  C   UNL     1       9.027   9.522  18.623  0.00  0.00    +0.000 A 
ATOM      5  N   UNL     1       8.653   8.209  18.701  0.00  0.00    +0.000 N 
ATOM      6  C   UNL     1       7.495   8.026  17.987  0.00  0.00    +0.000 A 
ATOM      7  N   UNL     1       6.937   6.799  17.847  0.00  0.00    +0.000 N 
ATOM      8  C   UNL     1       7.124   5.707  18.791  0.00  0.00    +0.000 C 
ATOM      9  C   UNL     1       5.799   5.409  19.488  0.00  0.00    +0.000 C 
ATOM     10  C   UNL     1       4.693   5.140  18.463  0.00  0.00    +0.000 C 
ATOM     11  C   UNL     1       4.585   6.265  17.426  0.00  0.00    +0.000 C 
ATOM     12  C   UNL     1       5.942   6.573  16.800  0.00  0.00    +0.000 C 
ATOM     13  O   UNL     1       4.992   3.890  17.779  0.00  0.00    +0.000 OA
ATOM     14  C   UNL     1       4.021   2.945  17.953  0.00  0.00    +0.000 C 
ATOM     15  O   UNL     1       4.020   1.816  17.503  0.00  0.00    +0.000 OA
ATOM     16  C   UNL     1       2.995   3.555  18.784  0.00  0.00    +0.000 A 
ATOM     17  C   UNL     1       1.803   2.998  19.215  0.00  0.00    +0.000 A 
ATOM     18  C   UNL     1       0.968   3.792  20.004  0.00  0.00    +0.000 A 
ATOM     19  C   UNL     1       1.348   5.103  20.339  0.00  0.00    +0.000 A 
ATOM     20  C   UNL     1       2.560   5.636  19.890  0.00  0.00    +0.000 A 
ATOM     21  C   UNL     1       3.379   4.842  19.102  0.00  0.00    +0.000 A 
ATOM     22  N   UNL     1       7.107   9.166  17.458  0.00  0.00    +0.000 NA
ATOM     23  C   UNL     1       8.039  10.103  17.842  0.00  0.00    +0.000 A 
ATOM     24  C   UNL     1       8.112  11.471  17.556  0.00  0.00    +0.000 A 
ATOM     25  H   UNL     1       9.180   7.479  19.149  0.00  0.00    +0.000 HD
ENDROOT
BRANCH   1  26
ATOM     26  C   UNL     1       9.304  13.678  17.868  0.00  0.00    +0.000 C 
ATOM     27  O   UNL     1       8.362  14.448  17.947  0.00  0.00    +0.000 OA
BRANCH  26  28
ATOM     28  O   UNL     1      10.559  13.984  17.459  0.00  0.00    +0.000 OA
BRANCH  28  30
ATOM     29  C   UNL     1      11.625  14.964  19.349  0.00  0.00    +0.000 C 
ATOM     30  C   UNL     1      11.084  15.220  17.954  0.00  0.00    +0.000 C 
ENDBRANCH  28  30
ENDBRANCH  26  28
ENDBRANCH   1  26
TORSDOF 3
ENDMDL
MODEL 3
REMARK VINA RESULT:      -7.9      5.241      8.915
REMARK  Name = 
REMARK  4 active torsions:
REMARK  status: ('A' for Active; 'I' for Inactive)
REMARK    1  A    between atoms: C_1  and  C_2
REMARK    2  A    between atoms: C_2  and  O_3
REMARK    3  A    between atoms: O_3  and  C_4
REMARK    4  A    between atoms: C_4  and  C_6
REMARK                            x       y       z     vdW  Elec       q    Type
REMARK                         _______ _______ _______ _____ _____    ______ ____
ROOT
ATOM      1  C   UNL     1       9.170  12.204  18.062  0.00  0.00    +0.000 A 
ATOM      2  C   UNL     1      10.157  11.579  18.842  0.00  0.00    +0.000 A 
ATOM      3  C   UNL     1      10.094  10.215  19.140  0.00  0.00    +0.000 A 
ATOM      4  C   UNL     1       9.006   9.517  18.616  0.00  0.00    +0.000 A 
ATOM      5  N   UNL     1       8.635   8.203  18.692  0.00  0.00    +0.000 N 
ATOM      6  C   UNL     1       7.476   8.019  17.978  0.00  0.00    +0.000 A 
ATOM      7  N   UNL     1       6.920   6.791  17.838  0.00  0.00    +0.000 N 
ATOM      8  C   UNL     1       7.111   5.697  18.779  0.00  0.00    +0.000 C 
ATOM      9  C   UNL     1       5.787   5.396  19.478  0.00  0.00    +0.000 C 
ATOM     10  C   UNL     1       4.680   5.127  18.453  0.00  0.00    +0.000 C 
ATOM     11  C   UNL     1       4.568   6.253  17.417  0.00  0.00    +0.000 C 
ATOM     12  C   UNL     1       5.925   6.564  16.791  0.00  0.00    +0.000 C 
ATOM     13  O   UNL     1       4.981   3.879  17.766  0.00  0.00    +0.000 OA
ATOM     14  C   UNL     1       4.012   2.931  17.940  0.00  0.00    +0.000 C 
ATOM     15  O   UNL     1       4.013   1.803  17.488  0.00  0.00    +0.000 OA
ATOM     16  C   UNL     1       2.986   3.538  18.773  0.00  0.00    +0.000 A 
ATOM     17  C   UNL     1       1.795   2.978  19.205  0.00  0.00    +0.000 A 
ATOM     18  C   UNL     1       0.960   3.769  19.996  0.00  0.00    +0.000 A 
ATOM     19  C   UNL     1       1.337   5.080  20.333  0.00  0.00    +0.000 A 
ATOM     20  C   UNL     1       2.547   5.616  19.883  0.00  0.00    +0.000 A 
ATOM     21  C   UNL     1       3.368   4.825  19.093  0.00  0.00    +0.000 A 
ATOM     22  N   UNL     1       7.085   9.159  17.452  0.00  0.00    +0.000 NA
ATOM     23  C   UNL     1       8.016  10.096  17.836  0.00  0.00    +0.000 A 
ATOM     24  C   UNL     1       8.086  11.465  17.553  0.00  0.00    +0.000 A 
ATOM     25  H   UNL     1       9.164   7.473  19.138  0.00  0.00    +0.000 HD
ENDROOT
BRANCH   1  26
ATOM     26  C   UNL     1       9.275  13.675  17.867  0.00  0.00    +0.000 C 
ATOM     27  O   UNL     1      10.314  14.303  17.961  0.00  0.00    +0.000 OA
BRANCH  26  28
ATOM     28  O   UNL     1       8.033  14.194  17.711  0.00  0.00    +0.000 OA
BRANCH  28  30
ATOM     29  C   UNL     1       7.357  14.912  19.879  0.00  0.00    +0.000 C 
ATOM     30  C   UNL     1       7.754  15.366  18.485  0.00  0.00    +0.000 C 
ENDBRANCH  28  30
ENDBRANCH  26  28
ENDBRANCH   1  26
TORSDOF 3
ENDMDL
MODEL 4
REMARK VINA RESULT:      -7.8      5.866      9.313
REMARK  Name = 
REMARK  4 active torsions:
REMARK  status: ('A' for Active; 'I' for Inactive)
REMARK    1  A    between atoms: C_1  and  C_2
REMARK    2  A    between atoms: C_2  and  O_3
REMARK    3  A    between atoms: O_3  and  C_4
REMARK    4  A    between atoms: C_4  and  C_6
REMARK                            x       y       z     vdW  Elec       q    Type
REMARK                         _______ _______ _______ _____ _____    ______ ____
ROOT
ATOM      1  C   UNL     1       9.550  12.766  18.784  0.00  0.00    +0.000 A 
ATOM      2  C   UNL     1      10.236  12.154  19.846  0.00  0.00    +0.000 A 
ATOM      3  C   UNL     1      10.122  10.782  20.091  0.00  0.00    +0.000 A 
ATOM      4  C   UNL     1       9.300  10.064  19.223  0.00  0.00    +0.000 A 
ATOM      5  N   UNL     1       8.970   8.739  19.155  0.00  0.00    +0.000 N 
ATOM      6  C   UNL     1       8.129   8.537  18.089  0.00  0.00    +0.000 A 
ATOM      7  N   UNL     1       7.695   7.296  17.756  0.00  0.00    +0.000 N 
ATOM      8  C   UNL     1       7.593   6.189  18.696  0.00  0.00    +0.000 C 
ATOM      9  C   UNL     1       6.122   5.835  18.901  0.00  0.00    +0.000 C 
ATOM     10  C   UNL     1       5.437   5.556  17.559  0.00  0.00    +0.000 C 
ATOM     11  C   UNL     1       5.644   6.700  16.558  0.00  0.00    +0.000 C 
ATOM     12  C   UNL     1       7.121   7.063  16.432  0.00  0.00    +0.000 C 
ATOM     13  O   UNL     1       5.995   4.331  17.003  0.00  0.00    +0.000 OA
ATOM     14  C   UNL     1       5.058   3.353  16.829  0.00  0.00    +0.000 C 
ATOM     15  O   UNL     1       5.250   2.235  16.393  0.00  0.00    +0.000 OA
ATOM     16  C   UNL     1       3.790   3.912  17.271  0.00  0.00    +0.000 A 
ATOM     17  C   UNL     1       2.543   3.310  17.267  0.00  0.00    +0.000 A 
ATOM     18  C   UNL     1       1.463   4.060  17.736  0.00  0.00    +0.000 A 
ATOM     19  C   UNL     1       1.659   5.374  18.193  0.00  0.00    +0.000 A 
ATOM     20  C   UNL     1       2.931   5.954  18.186  0.00  0.00    +0.000 A 
ATOM     21  C   UNL     1       3.997   5.203  17.714  0.00  0.00    +0.000 A 
ATOM     22  N   UNL     1       7.900   9.676  17.473  0.00  0.00    +0.000 NA
ATOM     23  C   UNL     1       8.613  10.631  18.159  0.00  0.00    +0.000 A 
ATOM     24  C   UNL     1       8.728  12.007  17.929  0.00  0.00    +0.000 A 
ATOM     25  H   UNL     1       9.341   8.016  19.747  0.00  0.00    +0.000 HD
ENDROOT
BRANCH   1  26
ATOM     26  C   UNL     1       9.664  14.243  18.650  0.00  0.00    +0.000 C 
ATOM     27  O   UNL     1       9.118  15.039  19.393  0.00  0.00    +0.000 OA
BRANCH  26  28
ATOM     28  O   UNL     1      10.341  14.537  17.513  0.00  0.00    +0.000 OA
BRANCH  28  30
ATOM     29  C   UNL     1      12.333  13.452  16.789  0.00  0.00    +0.000 C 
ATOM     30  C   UNL     1      11.766  14.577  17.638  0.00  0.00    +0.000 C 
ENDBRANCH  28  30
ENDBRANCH  26  28
ENDBRANCH   1  26
TORSDOF 3
ENDMDL
MODEL 5
REMARK VINA RESULT:      -7.7      5.303      9.310
REMARK  Name = 
REMARK  4 active torsions:
REMARK  status: ('A' for Active; 'I' for Inactive)
REMARK    1  A    between atoms: C_1  and  C_2
REMARK    2  A    between atoms: C_2  and  O_3
REMARK    3  A    between atoms: O_3  and  C_4
REMARK    4  A    between atoms: C_4  and  C_6
REMARK                            x       y       z     vdW  Elec       q    Type
REMARK                         _______ _______ _______ _____ _____    ______ ____
ROOT
ATOM      1  C   UNL     1       9.601  12.772  18.793  0.00  0.00    +0.000 A 
ATOM      2  C   UNL     1      10.273  12.164  19.865  0.00  0.00    +0.000 A 
ATOM      3  C   UNL     1      10.150  10.795  20.120  0.00  0.00    +0.000 A 
ATOM      4  C   UNL     1       9.332  10.074  19.250  0.00  0.00    +0.000 A 
ATOM      5  N   UNL     1       8.995   8.750  19.189  0.00  0.00    +0.000 N 
ATOM      6  C   UNL     1       8.162   8.545  18.118  0.00  0.00    +0.000 A 
ATOM      7  N   UNL     1       7.725   7.304  17.790  0.00  0.00    +0.000 N 
ATOM      8  C   UNL     1       7.609   6.205  18.737  0.00  0.00    +0.000 C 
ATOM      9  C   UNL     1       6.134   5.860  18.932  0.00  0.00    +0.000 C 
ATOM     10  C   UNL     1       5.460   5.574  17.586  0.00  0.00    +0.000 C 
ATOM     11  C   UNL     1       5.682   6.710  16.578  0.00  0.00    +0.000 C 
ATOM     12  C   UNL     1       7.162   7.064  16.462  0.00  0.00    +0.000 C 
ATOM     13  O   UNL     1       6.016   4.343  17.044  0.00  0.00    +0.000 OA
ATOM     14  C   UNL     1       5.075   3.368  16.869  0.00  0.00    +0.000 C 
ATOM     15  O   UNL     1       5.265   2.246  16.443  0.00  0.00    +0.000 OA
ATOM     16  C   UNL     1       3.806   3.938  17.295  0.00  0.00    +0.000 A 
ATOM     17  C   UNL     1       2.557   3.342  17.285  0.00  0.00    +0.000 A 
ATOM     18  C   UNL     1       1.476   4.101  17.738  0.00  0.00    +0.000 A 
ATOM     19  C   UNL     1       1.675   5.417  18.188  0.00  0.00    +0.000 A 
ATOM     20  C   UNL     1       2.950   5.991  18.187  0.00  0.00    +0.000 A 
ATOM     21  C   UNL     1       4.016   5.230  17.730  0.00  0.00    +0.000 A 
ATOM     22  N   UNL     1       7.946   9.680  17.490  0.00  0.00    +0.000 NA
ATOM     23  C   UNL     1       8.657  10.637  18.176  0.00  0.00    +0.000 A 
ATOM     24  C   UNL     1       8.782  12.010  17.937  0.00  0.00    +0.000 A 
ATOM     25  H   UNL     1       9.357   8.030  19.790  0.00  0.00    +0.000 HD
ENDROOT
BRANCH   1  26
ATOM     26  C   UNL     1       9.724  14.246  18.648  0.00  0.00    +0.000 C 
ATOM     27  O   UNL     1      10.764  14.821  18.377  0.00  0.00    +0.000 OA
BRANCH  26  28
ATOM     28  O   UNL     1       8.552  14.829  18.997  0.00  0.00    +0.000 OA
BRANCH  28  30
ATOM     29  C   UNL     1       6.469  14.929  17.847  0.00  0.00    +0.000 C 
ATOM     30  C   UNL     1       7.867  15.515  17.943  0.00  0.00    +0.000 C 
ENDBRANCH  28  30
ENDBRANCH  26  28
ENDBRANCH   1  26
TORSDOF 3
ENDMDL
MODEL 6
REMARK VINA RESULT:      -7.6      0.874      1.593
REMARK  Name = 
REMARK  4 active torsions:
REMARK  status: ('A' for Active; 'I' for Inactive)
REMARK    1  A    between atoms: C_1  and  C_2
REMARK    2  A    between atoms: C_2  and  O_3
REMARK    3  A    between atoms: O_3  and  C_4
REMARK    4  A    between atoms: C_4  and  C_6
REMARK                            x       y       z     vdW  Elec       q    Type
REMARK                         _______ _______ _______ _____ _____    ______ ____
ROOT
ATOM      1  C   UNL     1       5.071   5.117  17.250  0.00  0.00    +0.000 A 
ATOM      2  C   UNL     1       4.625   4.375  18.356  0.00  0.00    +0.000 A 
ATOM      3  C   UNL     1       3.658   4.880  19.230  0.00  0.00    +0.000 A 
ATOM      4  C   UNL     1       3.162   6.150  18.937  0.00  0.00    +0.000 A 
ATOM      5  N   UNL     1       2.225   6.935  19.550  0.00  0.00    +0.000 N 
ATOM      6  C   UNL     1       2.086   8.105  18.847  0.00  0.00    +0.000 A 
ATOM      7  N   UNL     1       1.173   9.041  19.206  0.00  0.00    +0.000 N 
ATOM      8  C   UNL     1       0.658   9.201  20.557  0.00  0.00    +0.000 C 
ATOM      9  C   UNL     1       1.141  10.532  21.128  0.00  0.00    +0.000 C 
ATOM     10  C   UNL     1       0.768  11.690  20.197  0.00  0.00    +0.000 C 
ATOM     11  C   UNL     1       1.242  11.447  18.758  0.00  0.00    +0.000 C 
ATOM     12  C   UNL     1       0.791  10.081  18.251  0.00  0.00    +0.000 C 
ATOM     13  O   UNL     1      -0.680  11.838  20.202  0.00  0.00    +0.000 OA
ATOM     14  C   UNL     1      -1.088  13.061  20.653  0.00  0.00    +0.000 C 
ATOM     15  O   UNL     1      -2.234  13.446  20.768  0.00  0.00    +0.000 OA
ATOM     16  C   UNL     1       0.121  13.807  20.970  0.00  0.00    +0.000 A 
ATOM     17  C   UNL     1       0.223  15.105  21.440  0.00  0.00    +0.000 A 
ATOM     18  C   UNL     1       1.506  15.611  21.663  0.00  0.00    +0.000 A 
ATOM     19  C   UNL     1       2.635  14.812  21.415  0.00  0.00    +0.000 A 
ATOM     20  C   UNL     1       2.498  13.504  20.941  0.00  0.00    +0.000 A 
ATOM     21  C   UNL     1       1.220  13.012  20.718  0.00  0.00    +0.000 A 
ATOM     22  N   UNL     1       2.897   8.109  17.812  0.00  0.00    +0.000 NA
ATOM     23  C   UNL     1       3.572   6.911  17.852  0.00  0.00    +0.000 A 
ATOM     24  C   UNL     1       4.548   6.398  16.989  0.00  0.00    +0.000 A 
ATOM     25  H   UNL     1       1.673   6.667  20.347  0.00  0.00    +0.000 HD
ENDROOT
BRANCH   1  26
ATOM     26  C   UNL     1       6.162   4.536  16.424  0.00  0.00    +0.000 C 
ATOM     27  O   UNL     1       6.015   3.593  15.666  0.00  0.00    +0.000 OA
BRANCH  26  28
ATOM     28  O   UNL     1       7.337   5.125  16.755  0.00  0.00    +0.000 OA
BRANCH  28  30
ATOM     29  C   UNL     1       7.923   6.140  18.828  0.00  0.00    +0.000 C 
ATOM     30  C   UNL     1       7.825   4.829  18.068  0.00  0.00    +0.000 C 
ENDBRANCH  28  30
ENDBRANCH  26  28
ENDBRANCH   1  26
TORSDOF 3
ENDMDL
MODEL 7
REMARK VINA RESULT:      -7.5      1.608      2.211
REMARK  Name = 
REMARK  4 active torsions:
REMARK  status: ('A' for Active; 'I' for Inactive)
REMARK    1  A    between atoms: C_1  and  C_2
REMARK    2  A    between atoms: C_2  and  O_3
REMARK    3  A    between atoms: O_3  and  C_4
REMARK    4  A    between atoms: C_4  and  C_6
REMARK                            x       y       z     vdW  Elec       q    Type
REMARK                         _______ _______ _______ _____ _____    ______ ____
ROOT
ATOM      1  C   UNL     1       4.172   6.379  17.505  0.00  0.00    +0.000 A 
ATOM      2  C   UNL     1       4.154   5.593  18.670  0.00  0.00    +0.000 A 
ATOM      3  C   UNL     1       3.322   5.909  19.748  0.00  0.00    +0.000 A 
ATOM      4  C   UNL     1       2.515   7.036  19.598  0.00  0.00    +0.000 A 
ATOM      5  N   UNL     1       1.594   7.623  20.421  0.00  0.00    +0.000 N 
ATOM      6  C   UNL     1       1.055   8.716  19.789  0.00  0.00    +0.000 A 
ATOM      7  N   UNL     1       0.067   9.448  20.361  0.00  0.00    +0.000 N 
ATOM      8  C   UNL     1      -0.153   9.536  21.797  0.00  0.00    +0.000 C 
ATOM      9  C   UNL     1       0.151  10.957  22.268  0.00  0.00    +0.000 C 
ATOM     10  C   UNL     1      -0.659  11.981  21.466  0.00  0.00    +0.000 C 
ATOM     11  C   UNL     1      -0.479  11.799  19.953  0.00  0.00    +0.000 C 
ATOM     12  C   UNL     1      -0.731  10.353  19.536  0.00  0.00    +0.000 C 
ATOM     13  O   UNL     1      -2.067  11.819  21.800  0.00  0.00    +0.000 OA
ATOM     14  C   UNL     1      -2.614  12.942  22.353  0.00  0.00    +0.000 C 
ATOM     15  O   UNL     1      -3.760  13.078  22.731  0.00  0.00    +0.000 OA
ATOM     16  C   UNL     1      -1.553  13.936  22.403  0.00  0.00    +0.000 A 
ATOM     17  C   UNL     1      -1.626  15.240  22.862  0.00  0.00    +0.000 A 
ATOM     18  C   UNL     1      -0.464  16.012  22.798  0.00  0.00    +0.000 A 
ATOM     19  C   UNL     1       0.724  15.463  22.287  0.00  0.00    +0.000 A 
ATOM     20  C   UNL     1       0.766  14.141  21.833  0.00  0.00    +0.000 A 
ATOM     21  C   UNL     1      -0.394  13.384  21.895  0.00  0.00    +0.000 A 
ATOM     22  N   UNL     1       1.593   8.859  18.598  0.00  0.00    +0.000 NA
ATOM     23  C   UNL     1       2.499   7.833  18.462  0.00  0.00    +0.000 A 
ATOM     24  C   UNL     1       3.343   7.511  17.392  0.00  0.00    +0.000 A 
ATOM     25  H   UNL     1       1.305   7.269  21.316  0.00  0.00    +0.000 HD
ENDROOT
BRANCH   1  26
ATOM     26  C   UNL     1       5.148   6.017  16.444  0.00  0.00    +0.000 C 
ATOM     27  O   UNL     1       5.516   6.779  15.567  0.00  0.00    +0.000 OA
BRANCH  26  28
ATOM     28  O   UNL     1       5.437   4.696  16.534  0.00  0.00    +0.000 OA
BRANCH  28  30
ATOM     29  C   UNL     1       7.591   4.637  17.548  0.00  0.00    +0.000 C 
ATOM     30  C   UNL     1       6.803   4.346  16.284  0.00  0.00    +0.000 C 
ENDBRANCH  28  30
ENDBRANCH  26  28
ENDBRANCH   1  26
TORSDOF 3
ENDMDL
MODEL 8
REMARK VINA RESULT:      -7.5      1.357      1.903
REMARK  Name = 
REMARK  4 active torsions:
REMARK  status: ('A' for Active; 'I' for Inactive)
REMARK    1  A    between atoms: C_1  and  C_2
REMARK    2  A    between atoms: C_2  and  O_3
REMARK    3  A    between atoms: O_3  and  C_4
REMARK    4  A    between atoms: C_4  and  C_6
REMARK                            x       y       z     vdW  Elec       q    Type
REMARK                         _______ _______ _______ _____ _____    ______ ____
ROOT
ATOM      1  C   UNL     1       4.819   5.858  17.506  0.00  0.00    +0.000 A 
ATOM      2  C   UNL     1       4.597   5.097  18.666  0.00  0.00    +0.000 A 
ATOM      3  C   UNL     1       3.657   5.487  19.623  0.00  0.00    +0.000 A 
ATOM      4  C   UNL     1       2.954   6.662  19.358  0.00  0.00    +0.000 A 
ATOM      5  N   UNL     1       1.976   7.324  20.048  0.00  0.00    +0.000 N 
ATOM      6  C   UNL     1       1.598   8.438  19.340  0.00  0.00    +0.000 A 
ATOM      7  N   UNL     1       0.597   9.244  19.771  0.00  0.00    +0.000 N 
ATOM      8  C   UNL     1       0.199   9.373  21.165  0.00  0.00    +0.000 C 
ATOM      9  C   UNL     1       0.535  10.780  21.657  0.00  0.00    +0.000 C 
ATOM     10  C   UNL     1      -0.093  11.839  20.747  0.00  0.00    +0.000 C 
ATOM     11  C   UNL     1       0.268  11.618  19.272  0.00  0.00    +0.000 C 
ATOM     12  C   UNL     1      -0.025  10.184  18.840  0.00  0.00    +0.000 C 
ATOM     13  O   UNL     1      -1.540  11.777  20.896  0.00  0.00    +0.000 OA
ATOM     14  C   UNL     1      -2.076  12.943  21.362  0.00  0.00    +0.000 C 
ATOM     15  O   UNL     1      -3.250  13.163  21.586  0.00  0.00    +0.000 OA
ATOM     16  C   UNL     1      -0.966  13.866  21.540  0.00  0.00    +0.000 A 
ATOM     17  C   UNL     1      -1.009  15.180  21.972  0.00  0.00    +0.000 A 
ATOM     18  C   UNL     1       0.201  15.873  22.053  0.00  0.00    +0.000 A 
ATOM     19  C   UNL     1       1.405  15.237  21.707  0.00  0.00    +0.000 A 
ATOM     20  C   UNL     1       1.416  13.907  21.275  0.00  0.00    +0.000 A 
ATOM     21  C   UNL     1       0.209  13.229  21.193  0.00  0.00    +0.000 A 
ATOM     22  N   UNL     1       2.295   8.523  18.228  0.00  0.00    +0.000 NA
ATOM     23  C   UNL     1       3.139   7.437  18.222  0.00  0.00    +0.000 A 
ATOM     24  C   UNL     1       4.090   7.040  17.275  0.00  0.00    +0.000 A 
ATOM     25  H   UNL     1       1.550   7.007  20.901  0.00  0.00    +0.000 HD
ENDROOT
BRANCH   1  26
ATOM     26  C   UNL     1       5.898   5.412  16.584  0.00  0.00    +0.000 C 
ATOM     27  O   UNL     1       6.001   4.277  16.155  0.00  0.00    +0.000 OA
BRANCH  26  28
ATOM     28  O   UNL     1       6.793   6.417  16.425  0.00  0.00    +0.000 OA
BRANCH  28  30
ATOM     29  C   UNL     1       7.795   8.211  17.627  0.00  0.00    +0.000 C 
ATOM     30  C   UNL     1       7.604   6.706  17.568  0.00  0.00    +0.000 C 
ENDBRANCH  28  30
ENDBRANCH  26  28
ENDBRANCH   1  26
TORSDOF 3
ENDMDL
MODEL 9
REMARK VINA RESULT:      -7.5      3.460      5.787
REMARK  Name = 
REMARK  4 active torsions:
REMARK  status: ('A' for Active; 'I' for Inactive)
REMARK    1  A    between atoms: C_1  and  C_2
REMARK    2  A    between atoms: C_2  and  O_3
REMARK    3  A    between atoms: O_3  and  C_4
REMARK    4  A    between atoms: C_4  and  C_6
REMARK                            x       y       z     vdW  Elec       q    Type
REMARK                         _______ _______ _______ _____ _____    ______ ____
ROOT
ATOM      1  C   UNL     1       2.169   7.485  19.061  0.00  0.00    +0.000 A 
ATOM      2  C   UNL     1       2.366   8.269  17.912  0.00  0.00    +0.000 A 
ATOM      3  C   UNL     1       1.866   9.571  17.825  0.00  0.00    +0.000 A 
ATOM      4  C   UNL     1       1.171  10.043  18.938  0.00  0.00    +0.000 A 
ATOM      5  N   UNL     1       0.566  11.241  19.204  0.00  0.00    +0.000 N 
ATOM      6  C   UNL     1       0.030  11.205  20.467  0.00  0.00    +0.000 A 
ATOM      7  N   UNL     1      -0.577  12.289  21.009  0.00  0.00    +0.000 N 
ATOM      8  C   UNL     1      -1.196  13.351  20.228  0.00  0.00    +0.000 C 
ATOM      9  C   UNL     1      -2.707  13.325  20.450  0.00  0.00    +0.000 C 
ATOM     10  C   UNL     1      -3.039  13.399  21.944  0.00  0.00    +0.000 C 
ATOM     11  C   UNL     1      -2.296  12.327  22.752  0.00  0.00    +0.000 C 
ATOM     12  C   UNL     1      -0.800  12.347  22.453  0.00  0.00    +0.000 C 
ATOM     13  O   UNL     1      -2.657  14.715  22.436  0.00  0.00    +0.000 OA
ATOM     14  C   UNL     1      -3.714  15.422  22.935  0.00  0.00    +0.000 C 
ATOM     15  O   UNL     1      -3.681  16.544  23.399  0.00  0.00    +0.000 OA
ATOM     16  C   UNL     1      -4.884  14.567  22.797  0.00  0.00    +0.000 A 
ATOM     17  C   UNL     1      -6.187  14.835  23.181  0.00  0.00    +0.000 A 
ATOM     18  C   UNL     1      -7.143  13.845  22.951  0.00  0.00    +0.000 A 
ATOM     19  C   UNL     1      -6.775  12.631  22.347  0.00  0.00    +0.000 A 
ATOM     20  C   UNL     1      -5.450  12.391  21.968  0.00  0.00    +0.000 A 
ATOM     21  C   UNL     1      -4.506  13.379  22.206  0.00  0.00    +0.000 A 
ATOM     22  N   UNL     1       0.260  10.035  21.022  0.00  0.00    +0.000 NA
ATOM     23  C   UNL     1       0.961   9.302  20.092  0.00  0.00    +0.000 A 
ATOM     24  C   UNL     1       1.459   7.996  20.164  0.00  0.00    +0.000 A 
ATOM     25  H   UNL     1       0.576  12.044  18.600  0.00  0.00    +0.000 HD
ENDROOT
BRANCH   1  26
ATOM     26  C   UNL     1       2.664   6.083  19.033  0.00  0.00    +0.000 C 
ATOM     27  O   UNL     1       2.969   5.488  18.014  0.00  0.00    +0.000 OA
BRANCH  26  28
ATOM     28  O   UNL     1       2.583   5.555  20.278  0.00  0.00    +0.000 OA
BRANCH  28  30
ATOM     29  C   UNL     1       1.083   3.713  20.450  0.00  0.00    +0.000 C 
ATOM     30  C   UNL     1       2.541   4.125  20.340  0.00  0.00    +0.000 C 
ENDBRANCH  28  30
ENDBRANCH  26  28
ENDBRANCH   1  26
TORSDOF 3
ENDMDL
