MODEL 1
REMARK VINA RESULT:      -7.6      0.000      0.000
REMARK  Name = 
REMARK  7 active torsions:
REMARK  status: ('A' for Active; 'I' for Inactive)
REMARK    1  A    between atoms: N_1  and  S_2
REMARK    2  A    between atoms: S_2  and  N_5
REMARK    3  A    between atoms: C_8  and  C_9
REMARK    4  A    between atoms: C_9  and  N_10
REMARK    5  A    between atoms: C_15  and  C_16
REMARK    6  A    between atoms: N_17  and  O_18
REMARK    7  A    between atoms: N_19  and  C_20
REMARK                            x       y       z     vdW  Elec       q    Type
REMARK                         _______ _______ _______ _____ _____    ______ ____
ROOT
ATOM      1  N   UNL     1       3.338   5.653  18.937  0.00  0.00    +0.000 N 
ATOM      2  C   UNL     1       4.676   5.411  19.038  0.00  0.00    +0.000 A 
ATOM      3  N   UNL     1       5.241   5.157  20.219  0.00  0.00    +0.000 NA
ATOM      4  O   UNL     1       6.564   4.862  19.951  0.00  0.00    +0.000 OA
ATOM      5  N   UNL     1       6.829   4.920  18.591  0.00  0.00    +0.000 NA
ATOM      6  C   UNL     1       5.679   5.328  18.026  0.00  0.00    +0.000 A 
ATOM      7  H   UNL     1       2.835   5.576  19.817  0.00  0.00    +0.000 HD
ENDROOT
BRANCH   6   8
ATOM      8  C   UNL     1       5.616   5.576  16.587  0.00  0.00    +0.000 C 
ATOM      9  N   UNL     1       5.481   6.815  16.224  0.00  0.00    +0.000 NA
ATOM     10  N   UNL     1       5.673   4.408  15.848  0.00  0.00    +0.000 N 
ATOM     11  H   UNL     1       5.673   3.533  16.364  0.00  0.00    +0.000 HD
BRANCH  10  12
ATOM     12  C   UNL     1       6.167   4.296  14.534  0.00  0.00    +0.000 A 
ATOM     13  C   UNL     1       7.400   4.851  14.152  0.00  0.00    +0.000 A 
ATOM     14  C   UNL     1       7.785   4.890  12.813  0.00  0.00    +0.000 A 
ATOM     15  C   UNL     1       6.947   4.353  11.845  0.00  0.00    +0.000 A 
ATOM     16  F   UNL     1       7.306   4.450  10.558  0.00  0.00    +0.000 F 
ATOM     17  C   UNL     1       5.748   3.744  12.211  0.00  0.00    +0.000 A 
ATOM     18 BR   UNL     1       4.598   3.024  10.894  0.00  0.00    +0.000 Br
ATOM     19  C   UNL     1       5.365   3.698  13.554  0.00  0.00    +0.000 A 
ENDBRANCH  10  12
BRANCH   9  20
ATOM     20  O   UNL     1       5.166   6.954  14.865  0.00  0.00    +0.000 OA
ATOM     21  H   UNL     1       4.738   6.104  14.659  0.00  0.00    +0.000 HD
ENDBRANCH   9  20
ENDBRANCH   6   8
BRANCH   1  22
ATOM     22  C   UNL     1       2.564   5.295  17.758  0.00  0.00    +0.000 C 
BRANCH  22  26
ATOM     23  N   UNL     1       1.500   2.718  19.993  0.00  0.00    +0.000 NA
ATOM     24  C   UNL     1       2.024   1.829  18.941  0.00  0.00    +0.000 C 
ATOM     25  C   UNL     1       2.686   2.774  17.964  0.00  0.00    +0.000 C 
ATOM     26  C   UNL     1       1.776   4.005  17.974  0.00  0.00    +0.000 C 
ATOM     27  C   UNL     1       1.102   3.994  19.358  0.00  0.00    +0.000 C 
BRANCH  23  28
ATOM     28  S   UNL     1       2.282   2.764  21.468  0.00  0.00    +0.000 S 
ATOM     29  O   UNL     1       3.605   2.214  21.362  0.00  0.00    +0.000 OA
ATOM     30  O   UNL     1       1.350   2.372  22.497  0.00  0.00    +0.000 OA
BRANCH  28  31
ATOM     31  N   UNL     1       2.450   4.414  21.667  0.00  0.00    +0.000 NA
ATOM     32  H   UNL     1       3.435   4.645  21.529  0.00  0.00    +0.000 HD
ATOM     33  H   UNL     1       2.170   4.644  22.622  0.00  0.00    +0.000 HD
ENDBRANCH  28  31
ENDBRANCH  23  28
ENDBRANCH  22  26
ENDBRANCH   1  22
TORSDOF 7
ENDMDL
MODEL 2
REMARK VINA RESULT:      -7.2      5.928      7.822
REMARK  Name = 
REMARK  7 active torsions:
REMARK  status: ('A' for Active; 'I' for Inactive)
REMARK    1  A    between atoms: N_1  and  S_2
REMARK    2  A    between atoms: S_2  and  N_5
REMARK    3  A    between atoms: C_8  and  C_9
REMARK    4  A    between atoms: C_9  and  N_10
REMARK    5  A    between atoms: C_15  and  C_16
REMARK    6  A    between atoms: N_17  and  O_18
REMARK    7  A    between atoms: N_19  and  C_20
REMARK                            x       y       z     vdW  Elec       q    Type
REMARK                         _______ _______ _______ _____ _____    ______ ____
ROOT
ATOM      1  N   UNL     1       3.023   5.906  19.989  0.00  0.00    +0.000 N 
ATOM      2  C   UNL     1       3.202   6.726  18.915  0.00  0.00    +0.000 A 
ATOM      3  N   UNL     1       4.138   6.466  18.000  0.00  0.00    +0.000 NA
ATOM      4  O   UNL     1       3.981   7.421  17.014  0.00  0.00    +0.000 OA
ATOM      5  N   UNL     1       2.933   8.281  17.306  0.00  0.00    +0.000 NA
ATOM      6  C   UNL     1       2.491   7.898  18.517  0.00  0.00    +0.000 A 
ATOM      7  H   UNL     1       3.625   5.087  19.991  0.00  0.00    +0.000 HD
ENDROOT
BRANCH   6   8
ATOM      8  C   UNL     1       1.423   8.645  19.179  0.00  0.00    +0.000 C 
ATOM      9  N   UNL     1       1.319   8.481  20.463  0.00  0.00    +0.000 NA
ATOM     10  N   UNL     1       0.666   9.386  18.288  0.00  0.00    +0.000 N 
ATOM     11  H   UNL     1       0.874   9.273  17.300  0.00  0.00    +0.000 HD
BRANCH  10  12
ATOM     12  C   UNL     1      -0.029  10.571  18.595  0.00  0.00    +0.000 A 
ATOM     13  C   UNL     1       0.599  11.662  19.220  0.00  0.00    +0.000 A 
ATOM     14  C   UNL     1      -0.144  12.749  19.680  0.00  0.00    +0.000 A 
ATOM     15  C   UNL     1      -1.520  12.761  19.499  0.00  0.00    +0.000 A 
ATOM     16  F   UNL     1      -2.225  13.787  19.999  0.00  0.00    +0.000 F 
ATOM     17  C   UNL     1      -2.152  11.717  18.828  0.00  0.00    +0.000 A 
ATOM     18 BR   UNL     1      -4.029  11.725  18.592  0.00  0.00    +0.000 Br
ATOM     19  C   UNL     1      -1.408  10.631  18.360  0.00  0.00    +0.000 A 
ENDBRANCH  10  12
BRANCH   9  20
ATOM     20  O   UNL     1       0.132   9.010  20.986  0.00  0.00    +0.000 OA
ATOM     21  H   UNL     1      -0.453   8.232  21.013  0.00  0.00    +0.000 HD
ENDBRANCH   9  20
ENDBRANCH   6   8
BRANCH   1  22
ATOM     22  C   UNL     1       1.726   5.713  20.619  0.00  0.00    +0.000 C 
BRANCH  22  26
ATOM     23  N   UNL     1       2.701   2.294  20.256  0.00  0.00    +0.000 NA
ATOM     24  C   UNL     1       1.543   2.241  19.346  0.00  0.00    +0.000 C 
ATOM     25  C   UNL     1       1.095   3.681  19.244  0.00  0.00    +0.000 C 
ATOM     26  C   UNL     1       1.331   4.238  20.651  0.00  0.00    +0.000 C 
ATOM     27  C   UNL     1       2.463   3.375  21.238  0.00  0.00    +0.000 C 
BRANCH  23  28
ATOM     28  S   UNL     1       4.233   2.113  19.616  0.00  0.00    +0.000 S 
ATOM     29  O   UNL     1       5.142   1.602  20.603  0.00  0.00    +0.000 OA
ATOM     30  O   UNL     1       4.530   3.263  18.797  0.00  0.00    +0.000 OA
BRANCH  28  31
ATOM     31  N   UNL     1       3.956   0.884  18.519  0.00  0.00    +0.000 NA
ATOM     32  H   UNL     1       3.641   1.311  17.647  0.00  0.00    +0.000 HD
ATOM     33  H   UNL     1       3.220   0.286  18.899  0.00  0.00    +0.000 HD
ENDBRANCH  28  31
ENDBRANCH  23  28
ENDBRANCH  22  26
ENDBRANCH   1  22
TORSDOF 7
ENDMDL
MODEL 3
REMARK VINA RESULT:      -7.2      4.868      7.627
REMARK  Name = 
REMARK  7 active torsions:
REMARK  status: ('A' for Active; 'I' for Inactive)
REMARK    1  A    between atoms: N_1  and  S_2
REMARK    2  A    between atoms: S_2  and  N_5
REMARK    3  A    between atoms: C_8  and  C_9
REMARK    4  A    between atoms: C_9  and  N_10
REMARK    5  A    between atoms: C_15  and  C_16
REMARK    6  A    between atoms: N_17  and  O_18
REMARK    7  A    between atoms: N_19  and  C_20
REMARK                            x       y       z     vdW  Elec       q    Type
REMARK                         _______ _______ _______ _____ _____    ______ ____
ROOT
ATOM      1  N   UNL     1       5.496   3.593  19.278  0.00  0.00    +0.000 N 
ATOM      2  C   UNL     1       4.450   3.214  20.066  0.00  0.00    +0.000 A 
ATOM      3  N   UNL     1       4.560   2.182  20.904  0.00  0.00    +0.000 NA
ATOM      4  O   UNL     1       3.372   2.137  21.609  0.00  0.00    +0.000 OA
ATOM      5  N   UNL     1       2.515   3.154  21.218  0.00  0.00    +0.000 NA
ATOM      6  C   UNL     1       3.149   3.783  20.213  0.00  0.00    +0.000 A 
ATOM      7  H   UNL     1       6.345   3.054  19.428  0.00  0.00    +0.000 HD
ENDROOT
BRANCH   6   8
ATOM      8  C   UNL     1       2.493   4.878  19.501  0.00  0.00    +0.000 C 
ATOM      9  N   UNL     1       1.719   4.538  18.515  0.00  0.00    +0.000 NA
ATOM     10  N   UNL     1       2.856   6.119  19.992  0.00  0.00    +0.000 N 
ATOM     11  H   UNL     1       3.571   6.140  20.714  0.00  0.00    +0.000 HD
BRANCH  10  12
ATOM     12  C   UNL     1       2.064   7.282  19.938  0.00  0.00    +0.000 A 
ATOM     13  C   UNL     1       2.095   8.154  18.837  0.00  0.00    +0.000 A 
ATOM     14  C   UNL     1       1.447   9.388  18.881  0.00  0.00    +0.000 A 
ATOM     15  C   UNL     1       0.744   9.750  20.022  0.00  0.00    +0.000 A 
ATOM     16  F   UNL     1       0.176  10.963  20.068  0.00  0.00    +0.000 F 
ATOM     17  C   UNL     1       0.651   8.873  21.100  0.00  0.00    +0.000 A 
ATOM     18 BR   UNL     1      -0.295   9.369  22.661  0.00  0.00    +0.000 Br
ATOM     19  C   UNL     1       1.294   7.633  21.054  0.00  0.00    +0.000 A 
ENDBRANCH  10  12
BRANCH   9  20
ATOM     20  O   UNL     1       1.336   5.628  17.722  0.00  0.00    +0.000 OA
ATOM     21  H   UNL     1       1.941   6.330  18.021  0.00  0.00    +0.000 HD
ENDBRANCH   9  20
ENDBRANCH   6   8
BRANCH   1  22
ATOM     22  C   UNL     1       5.712   4.974  18.875  0.00  0.00    +0.000 C 
BRANCH  22  26
ATOM     23  N   UNL     1       5.453   5.074  15.313  0.00  0.00    +0.000 NA
ATOM     24  C   UNL     1       5.097   6.484  15.551  0.00  0.00    +0.000 C 
ATOM     25  C   UNL     1       5.325   6.670  17.034  0.00  0.00    +0.000 C 
ATOM     26  C   UNL     1       4.888   5.334  17.641  0.00  0.00    +0.000 C 
ATOM     27  C   UNL     1       5.090   4.300  16.519  0.00  0.00    +0.000 C 
BRANCH  23  28
ATOM     28  S   UNL     1       6.894   4.731  14.539  0.00  0.00    +0.000 S 
ATOM     29  O   UNL     1       7.916   4.396  15.490  0.00  0.00    +0.000 OA
ATOM     30  O   UNL     1       7.090   5.693  13.482  0.00  0.00    +0.000 OA
BRANCH  28  31
ATOM     31  N   UNL     1       6.479   3.321  13.746  0.00  0.00    +0.000 NA
ATOM     32  H   UNL     1       7.185   2.618  13.972  0.00  0.00    +0.000 HD
ATOM     33  H   UNL     1       6.487   3.512  12.743  0.00  0.00    +0.000 HD
ENDBRANCH  28  31
ENDBRANCH  23  28
ENDBRANCH  22  26
ENDBRANCH   1  22
TORSDOF 7
ENDMDL
MODEL 4
REMARK VINA RESULT:      -7.2      5.575      7.336
REMARK  Name = 
REMARK  7 active torsions:
REMARK  status: ('A' for Active; 'I' for Inactive)
REMARK    1  A    between atoms: N_1  and  S_2
REMARK    2  A    between atoms: S_2  and  N_5
REMARK    3  A    between atoms: C_8  and  C_9
REMARK    4  A    between atoms: C_9  and  N_10
REMARK    5  A    between atoms: C_15  and  C_16
REMARK    6  A    between atoms: N_17  and  O_18
REMARK    7  A    between atoms: N_19  and  C_20
REMARK                            x       y       z     vdW  Elec       q    Type
REMARK                         _______ _______ _______ _____ _____    ______ ____
ROOT
ATOM      1  N   UNL     1       3.288   5.496  20.288  0.00  0.00    +0.000 N 
ATOM      2  C   UNL     1       3.581   6.218  19.169  0.00  0.00    +0.000 A 
ATOM      3  N   UNL     1       4.568   5.850  18.352  0.00  0.00    +0.000 NA
ATOM      4  O   UNL     1       4.526   6.728  17.286  0.00  0.00    +0.000 OA
ATOM      5  N   UNL     1       3.499   7.648  17.430  0.00  0.00    +0.000 NA
ATOM      6  C   UNL     1       2.953   7.381  18.629  0.00  0.00    +0.000 A 
ATOM      7  H   UNL     1       3.850   4.657  20.398  0.00  0.00    +0.000 HD
ENDROOT
BRANCH   6   8
ATOM      8  C   UNL     1       1.874   8.220  19.149  0.00  0.00    +0.000 C 
ATOM      9  N   UNL     1       1.663   8.156  20.428  0.00  0.00    +0.000 NA
ATOM     10  N   UNL     1       1.225   8.923  18.149  0.00  0.00    +0.000 N 
ATOM     11  H   UNL     1       1.504   8.729  17.191  0.00  0.00    +0.000 HD
BRANCH  10  12
ATOM     12  C   UNL     1       0.566  10.156  18.314  0.00  0.00    +0.000 A 
ATOM     13  C   UNL     1       1.230  11.298  18.794  0.00  0.00    +0.000 A 
ATOM     14  C   UNL     1       0.523  12.454  19.124  0.00  0.00    +0.000 A 
ATOM     15  C   UNL     1      -0.854  12.483  18.955  0.00  0.00    +0.000 A 
ATOM     16  F   UNL     1      -1.525  13.581  19.331  0.00  0.00    +0.000 F 
ATOM     17  C   UNL     1      -1.522  11.382  18.423  0.00  0.00    +0.000 A 
ATOM     18 BR   UNL     1      -3.401  11.414  18.204  0.00  0.00    +0.000 Br
ATOM     19  C   UNL     1      -0.814  10.226  18.086  0.00  0.00    +0.000 A 
ENDBRANCH  10  12
BRANCH   9  20
ATOM     20  O   UNL     1       0.466   8.772  20.814  0.00  0.00    +0.000 OA
ATOM     21  H   UNL     1       0.765   9.649  21.115  0.00  0.00    +0.000 HD
ENDBRANCH   9  20
ENDBRANCH   6   8
BRANCH   1  22
ATOM     22  C   UNL     1       1.941   5.404  20.830  0.00  0.00    +0.000 C 
BRANCH  22  26
ATOM     23  N   UNL     1       2.332   2.082  19.574  0.00  0.00    +0.000 NA
ATOM     24  C   UNL     1       1.001   2.330  18.991  0.00  0.00    +0.000 C 
ATOM     25  C   UNL     1       0.743   3.790  19.288  0.00  0.00    +0.000 C 
ATOM     26  C   UNL     1       1.366   3.998  20.671  0.00  0.00    +0.000 C 
ATOM     27  C   UNL     1       2.473   2.933  20.775  0.00  0.00    +0.000 C 
BRANCH  23  28
ATOM     28  S   UNL     1       3.639   1.918  18.546  0.00  0.00    +0.000 S 
ATOM     29  O   UNL     1       3.429   2.654  17.331  0.00  0.00    +0.000 OA
ATOM     30  O   UNL     1       4.070   0.541  18.565  0.00  0.00    +0.000 OA
BRANCH  28  31
ATOM     31  N   UNL     1       4.809   2.731  19.418  0.00  0.00    +0.000 NA
ATOM     32  H   UNL     1       4.919   3.657  19.001  0.00  0.00    +0.000 HD
ATOM     33  H   UNL     1       5.681   2.207  19.336  0.00  0.00    +0.000 HD
ENDBRANCH  28  31
ENDBRANCH  23  28
ENDBRANCH  22  26
ENDBRANCH   1  22
TORSDOF 7
ENDMDL
MODEL 5
REMARK VINA RESULT:      -7.1      6.250      8.265
REMARK  Name = 
REMARK  7 active torsions:
REMARK  status: ('A' for Active; 'I' for Inactive)
REMARK    1  A    between atoms: N_1  and  S_2
REMARK    2  A    between atoms: S_2  and  N_5
REMARK    3  A    between atoms: C_8  and  C_9
REMARK    4  A    between atoms: C_9  and  N_10
REMARK    5  A    between atoms: C_15  and  C_16
REMARK    6  A    between atoms: N_17  and  O_18
REMARK    7  A    between atoms: N_19  and  C_20
REMARK                            x       y       z     vdW  Elec       q    Type
REMARK                         _______ _______ _______ _____ _____    ______ ____
ROOT
ATOM      1  N   UNL     1       2.821   6.082  19.828  0.00  0.00    +0.000 N 
ATOM      2  C   UNL     1       2.902   7.004  18.827  0.00  0.00    +0.000 A 
ATOM      3  N   UNL     1       3.715   6.819  17.785  0.00  0.00    +0.000 NA
ATOM      4  O   UNL     1       3.478   7.874  16.926  0.00  0.00    +0.000 OA
ATOM      5  N   UNL     1       2.503   8.724  17.426  0.00  0.00    +0.000 NA
ATOM      6  C   UNL     1       2.192   8.228  18.637  0.00  0.00    +0.000 A 
ATOM      7  H   UNL     1       3.389   5.253  19.674  0.00  0.00    +0.000 HD
ENDROOT
BRANCH   6   8
ATOM      8  C   UNL     1       1.237   8.927  19.494  0.00  0.00    +0.000 C 
ATOM      9  N   UNL     1       1.273   8.629  20.757  0.00  0.00    +0.000 NA
ATOM     10  N   UNL     1       0.413   9.779  18.780  0.00  0.00    +0.000 N 
ATOM     11  H   UNL     1       0.502   9.769  17.768  0.00  0.00    +0.000 HD
BRANCH  10  12
ATOM     12  C   UNL     1      -0.196  10.943  19.288  0.00  0.00    +0.000 A 
ATOM     13  C   UNL     1      -1.592  11.108  19.302  0.00  0.00    +0.000 A 
ATOM     14  C   UNL     1      -2.165  12.334  19.636  0.00  0.00    +0.000 A 
ATOM     15  C   UNL     1      -1.345  13.400  19.981  0.00  0.00    +0.000 A 
ATOM     16  F   UNL     1      -1.911  14.587  20.243  0.00  0.00    +0.000 F 
ATOM     17  C   UNL     1       0.037  13.238  20.031  0.00  0.00    +0.000 A 
ATOM     18 BR   UNL     1       1.157  14.693  20.487  0.00  0.00    +0.000 Br
ATOM     19  C   UNL     1       0.613  12.008  19.703  0.00  0.00    +0.000 A 
ENDBRANCH  10  12
BRANCH   9  20
ATOM     20  O   UNL     1       0.175   9.130  21.468  0.00  0.00    +0.000 OA
ATOM     21  H   UNL     1      -0.525   9.152  20.790  0.00  0.00    +0.000 HD
ENDBRANCH   9  20
ENDBRANCH   6   8
BRANCH   1  22
ATOM     22  C   UNL     1       1.601   5.855  20.586  0.00  0.00    +0.000 C 
BRANCH  22  26
ATOM     23  N   UNL     1       2.754   2.476  20.442  0.00  0.00    +0.000 NA
ATOM     24  C   UNL     1       1.611   2.307  19.528  0.00  0.00    +0.000 C 
ATOM     25  C   UNL     1       1.091   3.713  19.333  0.00  0.00    +0.000 C 
ATOM     26  C   UNL     1       1.282   4.366  20.705  0.00  0.00    +0.000 C 
ATOM     27  C   UNL     1       2.450   3.601  21.353  0.00  0.00    +0.000 C 
BRANCH  23  28
ATOM     28  S   UNL     1       4.301   2.336  19.826  0.00  0.00    +0.000 S 
ATOM     29  O   UNL     1       5.155   1.635  20.744  0.00  0.00    +0.000 OA
ATOM     30  O   UNL     1       4.669   3.590  19.215  0.00  0.00    +0.000 OA
BRANCH  28  31
ATOM     31  N   UNL     1       4.019   1.313  18.537  0.00  0.00    +0.000 NA
ATOM     32  H   UNL     1       3.632   1.872  17.775  0.00  0.00    +0.000 HD
ATOM     33  H   UNL     1       3.337   0.614  18.835  0.00  0.00    +0.000 HD
ENDBRANCH  28  31
ENDBRANCH  23  28
ENDBRANCH  22  26
ENDBRANCH   1  22
TORSDOF 7
ENDMDL
MODEL 6
REMARK VINA RESULT:      -7.1      5.577      7.360
REMARK  Name = 
REMARK  7 active torsions:
REMARK  status: ('A' for Active; 'I' for Inactive)
REMARK    1  A    between atoms: N_1  and  S_2
REMARK    2  A    between atoms: S_2  and  N_5
REMARK    3  A    between atoms: C_8  and  C_9
REMARK    4  A    between atoms: C_9  and  N_10
REMARK    5  A    between atoms: C_15  and  C_16
REMARK    6  A    between atoms: N_17  and  O_18
REMARK    7  A    between atoms: N_19  and  C_20
REMARK                            x       y       z     vdW  Elec       q    Type
REMARK                         _______ _______ _______ _____ _____    ______ ____
ROOT
ATOM      1  N   UNL     1       3.346   5.483  20.255  0.00  0.00    +0.000 N 
ATOM      2  C   UNL     1       3.599   6.204  19.127  0.00  0.00    +0.000 A 
ATOM      3  N   UNL     1       4.551   5.830  18.270  0.00  0.00    +0.000 NA
ATOM      4  O   UNL     1       4.472   6.708  17.207  0.00  0.00    +0.000 OA
ATOM      5  N   UNL     1       3.458   7.636  17.392  0.00  0.00    +0.000 NA
ATOM      6  C   UNL     1       2.959   7.372  18.612  0.00  0.00    +0.000 A 
ATOM      7  H   UNL     1       3.907   4.640  20.343  0.00  0.00    +0.000 HD
ENDROOT
BRANCH   6   8
ATOM      8  C   UNL     1       1.907   8.218  19.174  0.00  0.00    +0.000 C 
ATOM      9  N   UNL     1       1.694   8.097  20.449  0.00  0.00    +0.000 NA
ATOM     10  N   UNL     1       1.282   8.991  18.212  0.00  0.00    +0.000 N 
ATOM     11  H   UNL     1       1.554   8.836  17.246  0.00  0.00    +0.000 HD
BRANCH  10  12
ATOM     12  C   UNL     1       0.663  10.235  18.440  0.00  0.00    +0.000 A 
ATOM     13  C   UNL     1      -0.720  10.421  18.270  0.00  0.00    +0.000 A 
ATOM     14  C   UNL     1      -1.283  11.696  18.321  0.00  0.00    +0.000 A 
ATOM     15  C   UNL     1      -0.469  12.793  18.564  0.00  0.00    +0.000 A 
ATOM     16  F   UNL     1      -1.018  14.016  18.552  0.00  0.00    +0.000 F 
ATOM     17  C   UNL     1       0.895  12.622  18.794  0.00  0.00    +0.000 A 
ATOM     18 BR   UNL     1       2.009  14.117  19.112  0.00  0.00    +0.000 Br
ATOM     19  C   UNL     1       1.459  11.344  18.751  0.00  0.00    +0.000 A 
ENDBRANCH  10  12
BRANCH   9  20
ATOM     20  O   UNL     1       0.517   8.731  20.868  0.00  0.00    +0.000 OA
ATOM     21  H   UNL     1       0.847   9.397  21.498  0.00  0.00    +0.000 HD
ENDBRANCH   9  20
ENDBRANCH   6   8
BRANCH   1  22
ATOM     22  C   UNL     1       2.022   5.400  20.851  0.00  0.00    +0.000 C 
BRANCH  22  26
ATOM     23  N   UNL     1       2.350   2.070  19.597  0.00  0.00    +0.000 NA
ATOM     24  C   UNL     1       1.011   2.333  19.040  0.00  0.00    +0.000 C 
ATOM     25  C   UNL     1       0.776   3.797  19.337  0.00  0.00    +0.000 C 
ATOM     26  C   UNL     1       1.428   4.001  20.707  0.00  0.00    +0.000 C 
ATOM     27  C   UNL     1       2.524   2.924  20.793  0.00  0.00    +0.000 C 
BRANCH  23  28
ATOM     28  S   UNL     1       3.635   1.889  18.545  0.00  0.00    +0.000 S 
ATOM     29  O   UNL     1       3.405   2.614  17.327  0.00  0.00    +0.000 OA
ATOM     30  O   UNL     1       4.059   0.510  18.570  0.00  0.00    +0.000 OA
BRANCH  28  31
ATOM     31  N   UNL     1       4.827   2.704  19.385  0.00  0.00    +0.000 NA
ATOM     32  H   UNL     1       4.532   2.767  20.360  0.00  0.00    +0.000 HD
ATOM     33  H   UNL     1       4.907   3.640  18.985  0.00  0.00    +0.000 HD
ENDBRANCH  28  31
ENDBRANCH  23  28
ENDBRANCH  22  26
ENDBRANCH   1  22
TORSDOF 7
ENDMDL
MODEL 7
REMARK VINA RESULT:      -7.1      1.421      1.764
REMARK  Name = 
REMARK  7 active torsions:
REMARK  status: ('A' for Active; 'I' for Inactive)
REMARK    1  A    between atoms: N_1  and  S_2
REMARK    2  A    between atoms: S_2  and  N_5
REMARK    3  A    between atoms: C_8  and  C_9
REMARK    4  A    between atoms: C_9  and  N_10
REMARK    5  A    between atoms: C_15  and  C_16
REMARK    6  A    between atoms: N_17  and  O_18
REMARK    7  A    between atoms: N_19  and  C_20
REMARK                            x       y       z     vdW  Elec       q    Type
REMARK                         _______ _______ _______ _____ _____    ______ ____
ROOT
ATOM      1  N   UNL     1       5.323   3.871  19.116  0.00  0.00    +0.000 N 
ATOM      2  C   UNL     1       6.290   4.832  19.122  0.00  0.00    +0.000 A 
ATOM      3  N   UNL     1       6.959   5.129  20.237  0.00  0.00    +0.000 NA
ATOM      4  O   UNL     1       7.916   6.055  19.872  0.00  0.00    +0.000 OA
ATOM      5  N   UNL     1       7.855   6.335  18.515  0.00  0.00    +0.000 NA
ATOM      6  C   UNL     1       6.804   5.633  18.057  0.00  0.00    +0.000 A 
ATOM      7  H   UNL     1       5.207   3.395  20.007  0.00  0.00    +0.000 HD
ENDROOT
BRANCH   6   8
ATOM      8  C   UNL     1       6.393   5.751  16.659  0.00  0.00    +0.000 C 
ATOM      9  N   UNL     1       5.826   6.869  16.321  0.00  0.00    +0.000 NA
ATOM     10  N   UNL     1       6.654   4.602  15.934  0.00  0.00    +0.000 N 
ATOM     11  H   UNL     1       7.016   3.803  16.447  0.00  0.00    +0.000 HD
BRANCH  10  12
ATOM     12  C   UNL     1       6.897   4.549  14.548  0.00  0.00    +0.000 A 
ATOM     13  C   UNL     1       7.896   5.326  13.936  0.00  0.00    +0.000 A 
ATOM     14  C   UNL     1       7.998   5.398  12.547  0.00  0.00    +0.000 A 
ATOM     15  C   UNL     1       7.113   4.674  11.759  0.00  0.00    +0.000 A 
ATOM     16  F   UNL     1       7.189   4.800  10.427  0.00  0.00    +0.000 F 
ATOM     17  C   UNL     1       6.156   3.852  12.348  0.00  0.00    +0.000 A 
ATOM     18 BR   UNL     1       4.940   2.876  11.276  0.00  0.00    +0.000 Br
ATOM     19  C   UNL     1       6.057   3.773  13.740  0.00  0.00    +0.000 A 
ENDBRANCH  10  12
BRANCH   9  20
ATOM     20  O   UNL     1       5.230   6.816  15.055  0.00  0.00    +0.000 OA
ATOM     21  H   UNL     1       5.652   6.035  14.653  0.00  0.00    +0.000 HD
ENDBRANCH   9  20
ENDBRANCH   6   8
BRANCH   1  22
ATOM     22  C   UNL     1       5.036   3.056  17.946  0.00  0.00    +0.000 C 
BRANCH  22  26
ATOM     23  N   UNL     1       1.700   3.923  18.890  0.00  0.00    +0.000 NA
ATOM     24  C   UNL     1       1.418   2.524  18.525  0.00  0.00    +0.000 C 
ATOM     25  C   UNL     1       2.784   1.937  18.254  0.00  0.00    +0.000 C 
ATOM     26  C   UNL     1       3.550   3.085  17.592  0.00  0.00    +0.000 C 
ATOM     27  C   UNL     1       2.882   4.368  18.119  0.00  0.00    +0.000 C 
BRANCH  23  28
ATOM     28  S   UNL     1       1.568   4.377  20.492  0.00  0.00    +0.000 S 
ATOM     29  O   UNL     1       0.653   5.475  20.638  0.00  0.00    +0.000 OA
ATOM     30  O   UNL     1       2.884   4.368  21.084  0.00  0.00    +0.000 OA
BRANCH  28  31
ATOM     31  N   UNL     1       0.819   3.025  21.126  0.00  0.00    +0.000 NA
ATOM     32  H   UNL     1       0.536   2.432  20.344  0.00  0.00    +0.000 HD
ATOM     33  H   UNL     1      -0.005   3.337  21.642  0.00  0.00    +0.000 HD
ENDBRANCH  28  31
ENDBRANCH  23  28
ENDBRANCH  22  26
ENDBRANCH   1  22
TORSDOF 7
ENDMDL
MODEL 8
REMARK VINA RESULT:      -7.0      4.678      7.236
REMARK  Name = 
REMARK  7 active torsions:
REMARK  status: ('A' for Active; 'I' for Inactive)
REMARK    1  A    between atoms: N_1  and  S_2
REMARK    2  A    between atoms: S_2  and  N_5
REMARK    3  A    between atoms: C_8  and  C_9
REMARK    4  A    between atoms: C_9  and  N_10
REMARK    5  A    between atoms: C_15  and  C_16
REMARK    6  A    between atoms: N_17  and  O_18
REMARK    7  A    between atoms: N_19  and  C_20
REMARK                            x       y       z     vdW  Elec       q    Type
REMARK                         _______ _______ _______ _____ _____    ______ ____
ROOT
ATOM      1  N   UNL     1       4.293   2.410  17.573  0.00  0.00    +0.000 N 
ATOM      2  C   UNL     1       4.000   2.641  18.884  0.00  0.00    +0.000 A 
ATOM      3  N   UNL     1       4.470   1.844  19.844  0.00  0.00    +0.000 NA
ATOM      4  O   UNL     1       4.075   2.414  21.039  0.00  0.00    +0.000 OA
ATOM      5  N   UNL     1       3.360   3.583  20.828  0.00  0.00    +0.000 NA
ATOM      6  C   UNL     1       3.251   3.693  19.492  0.00  0.00    +0.000 A 
ATOM      7  H   UNL     1       4.919   1.624  17.420  0.00  0.00    +0.000 HD
ENDROOT
BRANCH   6   8
ATOM      8  C   UNL     1       2.479   4.787  18.905  0.00  0.00    +0.000 C 
ATOM      9  N   UNL     1       1.481   4.444  18.149  0.00  0.00    +0.000 NA
ATOM     10  N   UNL     1       2.989   6.029  19.238  0.00  0.00    +0.000 N 
ATOM     11  H   UNL     1       3.856   6.047  19.767  0.00  0.00    +0.000 HD
BRANCH  10  12
ATOM     12  C   UNL     1       2.246   7.222  19.319  0.00  0.00    +0.000 A 
ATOM     13  C   UNL     1       2.200   8.146  18.261  0.00  0.00    +0.000 A 
ATOM     14  C   UNL     1       1.613   9.399  18.428  0.00  0.00    +0.000 A 
ATOM     15  C   UNL     1       1.046   9.731  19.651  0.00  0.00    +0.000 A 
ATOM     16  F   UNL     1       0.537  10.960  19.811  0.00  0.00    +0.000 F 
ATOM     17  C   UNL     1       1.028   8.806  20.693  0.00  0.00    +0.000 A 
ATOM     18 BR   UNL     1       0.268   9.259  22.364  0.00  0.00    +0.000 Br
ATOM     19  C   UNL     1       1.610   7.546  20.524  0.00  0.00    +0.000 A 
ENDBRANCH  10  12
BRANCH   9  20
ATOM     20  O   UNL     1       0.955   5.518  17.420  0.00  0.00    +0.000 OA
ATOM     21  H   UNL     1       0.275   5.871  18.021  0.00  0.00    +0.000 HD
ENDBRANCH   9  20
ENDBRANCH   6   8
BRANCH   1  22
ATOM     22  C   UNL     1       4.408   3.481  16.595  0.00  0.00    +0.000 C 
BRANCH  22  26
ATOM     23  N   UNL     1       7.487   5.287  16.751  0.00  0.00    +0.000 NA
ATOM     24  C   UNL     1       7.338   5.327  15.285  0.00  0.00    +0.000 C 
ATOM     25  C   UNL     1       5.966   4.740  15.044  0.00  0.00    +0.000 C 
ATOM     26  C   UNL     1       5.846   3.644  16.107  0.00  0.00    +0.000 C 
ATOM     27  C   UNL     1       6.770   4.094  17.252  0.00  0.00    +0.000 C 
BRANCH  23  28
ATOM     28  S   UNL     1       7.368   6.715  17.608  0.00  0.00    +0.000 S 
ATOM     29  O   UNL     1       7.747   7.834  16.791  0.00  0.00    +0.000 OA
ATOM     30  O   UNL     1       7.890   6.501  18.936  0.00  0.00    +0.000 OA
BRANCH  28  31
ATOM     31  N   UNL     1       5.714   6.800  17.822  0.00  0.00    +0.000 NA
ATOM     32  H   UNL     1       5.383   7.647  17.357  0.00  0.00    +0.000 HD
ATOM     33  H   UNL     1       5.530   6.859  18.824  0.00  0.00    +0.000 HD
ENDBRANCH  28  31
ENDBRANCH  23  28
ENDBRANCH  22  26
ENDBRANCH   1  22
TORSDOF 7
ENDMDL
MODEL 9
REMARK VINA RESULT:      -7.0      6.004      8.124
REMARK  Name = 
REMARK  7 active torsions:
REMARK  status: ('A' for Active; 'I' for Inactive)
REMARK    1  A    between atoms: N_1  and  S_2
REMARK    2  A    between atoms: S_2  and  N_5
REMARK    3  A    between atoms: C_8  and  C_9
REMARK    4  A    between atoms: C_9  and  N_10
REMARK    5  A    between atoms: C_15  and  C_16
REMARK    6  A    between atoms: N_17  and  O_18
REMARK    7  A    between atoms: N_19  and  C_20
REMARK                            x       y       z     vdW  Elec       q    Type
REMARK                         _______ _______ _______ _____ _____    ______ ____
ROOT
ATOM      1  N   UNL     1       3.055   6.116  19.799  0.00  0.00    +0.000 N 
ATOM      2  C   UNL     1       3.296   6.852  18.677  0.00  0.00    +0.000 A 
ATOM      3  N   UNL     1       4.261   6.508  17.824  0.00  0.00    +0.000 NA
ATOM      4  O   UNL     1       4.166   7.393  16.767  0.00  0.00    +0.000 OA
ATOM      5  N   UNL     1       3.128   8.293  16.953  0.00  0.00    +0.000 NA
ATOM      6  C   UNL     1       2.629   8.007  18.168  0.00  0.00    +0.000 A 
ATOM      7  H   UNL     1       3.636   5.287  19.884  0.00  0.00    +0.000 HD
ENDROOT
BRANCH   6   8
ATOM      8  C   UNL     1       1.553   8.822  18.731  0.00  0.00    +0.000 C 
ATOM      9  N   UNL     1       0.455   8.878  18.041  0.00  0.00    +0.000 NA
ATOM     10  N   UNL     1       1.923   9.439  19.913  0.00  0.00    +0.000 N 
ATOM     11  H   UNL     1       2.888   9.328  20.211  0.00  0.00    +0.000 HD
BRANCH  10  12
ATOM     12  C   UNL     1       1.044   9.813  20.948  0.00  0.00    +0.000 A 
ATOM     13  C   UNL     1       0.402   8.862  21.760  0.00  0.00    +0.000 A 
ATOM     14  C   UNL     1      -0.600   9.242  22.653  0.00  0.00    +0.000 A 
ATOM     15  C   UNL     1      -0.952  10.581  22.756  0.00  0.00    +0.000 A 
ATOM     16  F   UNL     1      -1.956  10.920  23.577  0.00  0.00    +0.000 F 
ATOM     17  C   UNL     1      -0.284  11.544  22.004  0.00  0.00    +0.000 A 
ATOM     18 BR   UNL     1      -0.770  13.368  22.132  0.00  0.00    +0.000 Br
ATOM     19  C   UNL     1       0.725  11.166  21.114  0.00  0.00    +0.000 A 
ENDBRANCH  10  12
BRANCH   9  20
ATOM     20  O   UNL     1      -0.424   9.870  18.495  0.00  0.00    +0.000 OA
ATOM     21  H   UNL     1      -1.223   9.705  17.963  0.00  0.00    +0.000 HD
ENDBRANCH   9  20
ENDBRANCH   6   8
BRANCH   1  22
ATOM     22  C   UNL     1       1.729   5.996  20.387  0.00  0.00    +0.000 C 
BRANCH  22  26
ATOM     23  N   UNL     1       2.755   2.580  20.609  0.00  0.00    +0.000 NA
ATOM     24  C   UNL     1       1.667   2.370  19.637  0.00  0.00    +0.000 C 
ATOM     25  C   UNL     1       1.218   3.771  19.289  0.00  0.00    +0.000 C 
ATOM     26  C   UNL     1       1.345   4.534  20.610  0.00  0.00    +0.000 C 
ATOM     27  C   UNL     1       2.437   3.790  21.399  0.00  0.00    +0.000 C 
BRANCH  23  28
ATOM     28  S   UNL     1       4.331   2.334  20.114  0.00  0.00    +0.000 S 
ATOM     29  O   UNL     1       5.061   1.577  21.092  0.00  0.00    +0.000 OA
ATOM     30  O   UNL     1       4.830   3.559  19.538  0.00  0.00    +0.000 OA
BRANCH  28  31
ATOM     31  N   UNL     1       4.081   1.331  18.803  0.00  0.00    +0.000 NA
ATOM     32  H   UNL     1       4.864   0.677  18.758  0.00  0.00    +0.000 HD
ATOM     33  H   UNL     1       4.064   1.911  17.963  0.00  0.00    +0.000 HD
ENDBRANCH  28  31
ENDBRANCH  23  28
ENDBRANCH  22  26
ENDBRANCH   1  22
TORSDOF 7
ENDMDL
