MODEL 1
REMARK VINA RESULT:      -8.0      0.000      0.000
REMARK  Name = 
REMARK  11 active torsions:
REMARK  status: ('A' for Active; 'I' for Inactive)
REMARK    1  A    between atoms: C_1  and  C_2
REMARK    2  A    between atoms: C_2  and  C_3
REMARK    3  A    between atoms: C_3  and  C_4
REMARK    4  A    between atoms: C_7  and  N_8
REMARK    5  A    between atoms: N_11  and  C_12
REMARK    6  A    between atoms: C_13  and  C_14
REMARK    7  A    between atoms: C_14  and  C_15
REMARK    8  A    between atoms: C_14  and  C_16
REMARK    9  A    between atoms: C_20  and  C_21
REMARK   10  A    between atoms: C_21  and  C_22
REMARK   11  A    between atoms: C_21  and  C_23
REMARK                            x       y       z     vdW  Elec       q    Type
REMARK                         _______ _______ _______ _____ _____    ______ ____
ROOT
ATOM      1  N   UNL     1       3.416   6.664  18.577  0.00  0.00    +0.000 N 
ATOM      2  C   UNL     1       3.700   5.651  19.461  0.00  0.00    +0.000 C 
ATOM      3  O   UNL     1       3.180   5.476  20.561  0.00  0.00    +0.000 OA
ATOM      4  N   UNL     1       4.627   4.729  19.024  0.00  0.00    +0.000 N 
ATOM      5  H   UNL     1       3.762   6.535  17.637  0.00  0.00    +0.000 HD
ATOM      6  H   UNL     1       4.511   3.849  19.514  0.00  0.00    +0.000 HD
ENDROOT
BRANCH   1  10
ATOM      7  C   UNL     1       0.621   9.749  19.251  0.00  0.00    +0.000 A 
ATOM      8  C   UNL     1       1.178   9.581  17.978  0.00  0.00    +0.000 A 
ATOM      9  C   UNL     1       2.097   8.559  17.729  0.00  0.00    +0.000 A 
ATOM     10  C   UNL     1       2.472   7.689  18.750  0.00  0.00    +0.000 A 
ATOM     11  C   UNL     1       1.893   7.829  20.016  0.00  0.00    +0.000 A 
ATOM     12  C   UNL     1       0.988   8.862  20.270  0.00  0.00    +0.000 A 
BRANCH   7  13
ATOM     13  C   UNL     1      -0.343  10.876  19.529  0.00  0.00    +0.000 C 
BRANCH  13  15
ATOM     14  C   UNL     1      -2.285  10.186  18.028  0.00  0.00    +0.000 C 
ATOM     15  C   UNL     1      -1.239  11.246  18.342  0.00  0.00    +0.000 C 
ENDBRANCH  13  15
ENDBRANCH   7  13
ENDBRANCH   1  10
BRANCH   4  16
ATOM     16  C   UNL     1       5.168   4.678  17.733  0.00  0.00    +0.000 A 
ATOM     17  C   UNL     1       4.582   3.786  16.795  0.00  0.00    +0.000 A 
ATOM     18  C   UNL     1       5.227   3.635  15.555  0.00  0.00    +0.000 A 
ATOM     19  C   UNL     1       6.360   4.368  15.230  0.00  0.00    +0.000 A 
ATOM     20  C   UNL     1       6.886   5.280  16.138  0.00  0.00    +0.000 A 
ATOM     21  C   UNL     1       6.316   5.446  17.413  0.00  0.00    +0.000 A 
BRANCH  17  22
ATOM     22  C   UNL     1       3.311   2.961  17.009  0.00  0.00    +0.000 C 
ATOM     23  C   UNL     1       3.502   1.852  18.046  0.00  0.00    +0.000 C 
ATOM     24  C   UNL     1       2.029   3.752  17.285  0.00  0.00    +0.000 C 
ENDBRANCH  17  22
BRANCH  21  25
ATOM     25  C   UNL     1       7.001   6.398  18.396  0.00  0.00    +0.000 C 
ATOM     26  C   UNL     1       8.028   5.662  19.272  0.00  0.00    +0.000 C 
ATOM     27  C   UNL     1       7.679   7.575  17.684  0.00  0.00    +0.000 C 
ENDBRANCH  21  25
ENDBRANCH   4  16
TORSDOF 6
ENDMDL
MODEL 2
REMARK VINA RESULT:      -8.0      0.321      1.012
REMARK  Name = 
REMARK  11 active torsions:
REMARK  status: ('A' for Active; 'I' for Inactive)
REMARK    1  A    between atoms: C_1  and  C_2
REMARK    2  A    between atoms: C_2  and  C_3
REMARK    3  A    between atoms: C_3  and  C_4
REMARK    4  A    between atoms: C_7  and  N_8
REMARK    5  A    between atoms: N_11  and  C_12
REMARK    6  A    between atoms: C_13  and  C_14
REMARK    7  A    between atoms: C_14  and  C_15
REMARK    8  A    between atoms: C_14  and  C_16
REMARK    9  A    between atoms: C_20  and  C_21
REMARK   10  A    between atoms: C_21  and  C_22
REMARK   11  A    between atoms: C_21  and  C_23
REMARK                            x       y       z     vdW  Elec       q    Type
REMARK                         _______ _______ _______ _____ _____    ______ ____
ROOT
ATOM      1  N   UNL     1       3.466   6.627  18.629  0.00  0.00    +0.000 N 
ATOM      2  C   UNL     1       3.707   5.605  19.516  0.00  0.00    +0.000 C 
ATOM      3  O   UNL     1       3.168   5.448  20.609  0.00  0.00    +0.000 OA
ATOM      4  N   UNL     1       4.611   4.655  19.092  0.00  0.00    +0.000 N 
ATOM      5  H   UNL     1       3.821   6.486  17.694  0.00  0.00    +0.000 HD
ATOM      6  H   UNL     1       4.462   3.780  19.581  0.00  0.00    +0.000 HD
ENDROOT
BRANCH   1  10
ATOM      7  C   UNL     1       0.690   9.784  18.954  0.00  0.00    +0.000 A 
ATOM      8  C   UNL     1       0.919   8.944  20.050  0.00  0.00    +0.000 A 
ATOM      9  C   UNL     1       1.843   7.899  19.969  0.00  0.00    +0.000 A 
ATOM     10  C   UNL     1       2.551   7.680  18.789  0.00  0.00    +0.000 A 
ATOM     11  C   UNL     1       2.353   8.536  17.702  0.00  0.00    +0.000 A 
ATOM     12  C   UNL     1       1.417   9.570  17.777  0.00  0.00    +0.000 A 
BRANCH   7  13
ATOM     13  C   UNL     1      -0.334  10.889  19.031  0.00  0.00    +0.000 C 
BRANCH  13  15
ATOM     14  C   UNL     1      -1.986  10.136  17.240  0.00  0.00    +0.000 C 
ATOM     15  C   UNL     1      -1.766  10.445  18.715  0.00  0.00    +0.000 C 
ENDBRANCH  13  15
ENDBRANCH   7  13
ENDBRANCH   1  10
BRANCH   4  16
ATOM     16  C   UNL     1       5.167   4.588  17.808  0.00  0.00    +0.000 A 
ATOM     17  C   UNL     1       4.585   3.691  16.872  0.00  0.00    +0.000 A 
ATOM     18  C   UNL     1       5.243   3.523  15.641  0.00  0.00    +0.000 A 
ATOM     19  C   UNL     1       6.387   4.243  15.323  0.00  0.00    +0.000 A 
ATOM     20  C   UNL     1       6.910   5.159  16.229  0.00  0.00    +0.000 A 
ATOM     21  C   UNL     1       6.326   5.342  17.495  0.00  0.00    +0.000 A 
BRANCH  17  22
ATOM     22  C   UNL     1       3.305   2.880  17.078  0.00  0.00    +0.000 C 
ATOM     23  C   UNL     1       3.477   1.770  18.118  0.00  0.00    +0.000 C 
ATOM     24  C   UNL     1       2.028   3.684  17.344  0.00  0.00    +0.000 C 
ENDBRANCH  17  22
BRANCH  21  25
ATOM     25  C   UNL     1       7.007   6.298  18.477  0.00  0.00    +0.000 C 
ATOM     26  C   UNL     1       8.049   5.570  19.342  0.00  0.00    +0.000 C 
ATOM     27  C   UNL     1       7.666   7.486  17.765  0.00  0.00    +0.000 C 
ENDBRANCH  21  25
ENDBRANCH   4  16
TORSDOF 6
ENDMDL
MODEL 3
REMARK VINA RESULT:      -7.9      0.575      1.360
REMARK  Name = 
REMARK  11 active torsions:
REMARK  status: ('A' for Active; 'I' for Inactive)
REMARK    1  A    between atoms: C_1  and  C_2
REMARK    2  A    between atoms: C_2  and  C_3
REMARK    3  A    between atoms: C_3  and  C_4
REMARK    4  A    between atoms: C_7  and  N_8
REMARK    5  A    between atoms: N_11  and  C_12
REMARK    6  A    between atoms: C_13  and  C_14
REMARK    7  A    between atoms: C_14  and  C_15
REMARK    8  A    between atoms: C_14  and  C_16
REMARK    9  A    between atoms: C_20  and  C_21
REMARK   10  A    between atoms: C_21  and  C_22
REMARK   11  A    between atoms: C_21  and  C_23
REMARK                            x       y       z     vdW  Elec       q    Type
REMARK                         _______ _______ _______ _____ _____    ______ ____
ROOT
ATOM      1  N   UNL     1       3.328   6.711  18.649  0.00  0.00    +0.000 N 
ATOM      2  C   UNL     1       3.645   5.675  19.495  0.00  0.00    +0.000 C 
ATOM      3  O   UNL     1       3.164   5.469  20.607  0.00  0.00    +0.000 OA
ATOM      4  N   UNL     1       4.557   4.767  19.000  0.00  0.00    +0.000 N 
ATOM      5  H   UNL     1       3.642   6.608  17.695  0.00  0.00    +0.000 HD
ATOM      6  H   UNL     1       4.460   3.874  19.471  0.00  0.00    +0.000 HD
ENDROOT
BRANCH   1  10
ATOM      7  C   UNL     1       0.457   9.750  19.201  0.00  0.00    +0.000 A 
ATOM      8  C   UNL     1       0.882   8.988  20.295  0.00  0.00    +0.000 A 
ATOM      9  C   UNL     1       1.841   7.984  20.138  0.00  0.00    +0.000 A 
ATOM     10  C   UNL     1       2.389   7.729  18.883  0.00  0.00    +0.000 A 
ATOM     11  C   UNL     1       1.995   8.509  17.792  0.00  0.00    +0.000 A 
ATOM     12  C   UNL     1       1.023   9.501  17.945  0.00  0.00    +0.000 A 
BRANCH   7  13
ATOM     13  C   UNL     1      -0.605  10.809  19.365  0.00  0.00    +0.000 C 
BRANCH  13  15
ATOM     14  C   UNL     1       0.604  13.036  19.082  0.00  0.00    +0.000 C 
ATOM     15  C   UNL     1      -0.116  12.095  20.038  0.00  0.00    +0.000 C 
ENDBRANCH  13  15
ENDBRANCH   7  13
ENDBRANCH   1  10
BRANCH   4  16
ATOM     16  C   UNL     1       5.052   4.753  17.691  0.00  0.00    +0.000 A 
ATOM     17  C   UNL     1       4.425   3.897  16.746  0.00  0.00    +0.000 A 
ATOM     18  C   UNL     1       5.024   3.780  15.480  0.00  0.00    +0.000 A 
ATOM     19  C   UNL     1       6.154   4.512  15.139  0.00  0.00    +0.000 A 
ATOM     20  C   UNL     1       6.720   5.389  16.057  0.00  0.00    +0.000 A 
ATOM     21  C   UNL     1       6.197   5.519  17.355  0.00  0.00    +0.000 A 
BRANCH  17  22
ATOM     22  C   UNL     1       3.153   3.079  16.977  0.00  0.00    +0.000 C 
ATOM     23  C   UNL     1       3.371   1.926  17.959  0.00  0.00    +0.000 C 
ATOM     24  C   UNL     1       1.893   3.872  17.338  0.00  0.00    +0.000 C 
ENDBRANCH  17  22
BRANCH  21  25
ATOM     25  C   UNL     1       6.926   6.432  18.344  0.00  0.00    +0.000 C 
ATOM     26  C   UNL     1       7.945   5.651  19.189  0.00  0.00    +0.000 C 
ATOM     27  C   UNL     1       7.626   7.603  17.642  0.00  0.00    +0.000 C 
ENDBRANCH  21  25
ENDBRANCH   4  16
TORSDOF 6
ENDMDL
MODEL 4
REMARK VINA RESULT:      -7.8      0.668      1.079
REMARK  Name = 
REMARK  11 active torsions:
REMARK  status: ('A' for Active; 'I' for Inactive)
REMARK    1  A    between atoms: C_1  and  C_2
REMARK    2  A    between atoms: C_2  and  C_3
REMARK    3  A    between atoms: C_3  and  C_4
REMARK    4  A    between atoms: C_7  and  N_8
REMARK    5  A    between atoms: N_11  and  C_12
REMARK    6  A    between atoms: C_13  and  C_14
REMARK    7  A    between atoms: C_14  and  C_15
REMARK    8  A    between atoms: C_14  and  C_16
REMARK    9  A    between atoms: C_20  and  C_21
REMARK   10  A    between atoms: C_21  and  C_22
REMARK   11  A    between atoms: C_21  and  C_23
REMARK                            x       y       z     vdW  Elec       q    Type
REMARK                         _______ _______ _______ _____ _____    ______ ____
ROOT
ATOM      1  N   UNL     1       3.311   6.699  18.604  0.00  0.00    +0.000 N 
ATOM      2  C   UNL     1       3.626   5.671  19.460  0.00  0.00    +0.000 C 
ATOM      3  O   UNL     1       3.139   5.473  20.571  0.00  0.00    +0.000 OA
ATOM      4  N   UNL     1       4.546   4.764  18.980  0.00  0.00    +0.000 N 
ATOM      5  H   UNL     1       3.631   6.589  17.653  0.00  0.00    +0.000 HD
ATOM      6  H   UNL     1       4.449   3.874  19.457  0.00  0.00    +0.000 HD
ENDROOT
BRANCH   1  10
ATOM      7  C   UNL     1       0.522   9.756  19.414  0.00  0.00    +0.000 A 
ATOM      8  C   UNL     1       1.006   9.584  18.112  0.00  0.00    +0.000 A 
ATOM      9  C   UNL     1       1.921   8.570  17.818  0.00  0.00    +0.000 A 
ATOM     10  C   UNL     1       2.365   7.714  18.823  0.00  0.00    +0.000 A 
ATOM     11  C   UNL     1       1.860   7.858  20.119  0.00  0.00    +0.000 A 
ATOM     12  C   UNL     1       0.958   8.883  20.417  0.00  0.00    +0.000 A 
BRANCH   7  13
ATOM     13  C   UNL     1      -0.438  10.874  19.737  0.00  0.00    +0.000 C 
BRANCH  13  15
ATOM     14  C   UNL     1      -1.088  11.515  22.118  0.00  0.00    +0.000 C 
ATOM     15  C   UNL     1      -0.076  11.674  20.992  0.00  0.00    +0.000 C 
ENDBRANCH  13  15
ENDBRANCH   7  13
ENDBRANCH   1  10
BRANCH   4  16
ATOM     16  C   UNL     1       5.050   4.741  17.674  0.00  0.00    +0.000 A 
ATOM     17  C   UNL     1       4.427   3.881  16.730  0.00  0.00    +0.000 A 
ATOM     18  C   UNL     1       5.034   3.755  15.468  0.00  0.00    +0.000 A 
ATOM     19  C   UNL     1       6.168   4.482  15.131  0.00  0.00    +0.000 A 
ATOM     20  C   UNL     1       6.730   5.363  16.048  0.00  0.00    +0.000 A 
ATOM     21  C   UNL     1       6.199   5.502  17.342  0.00  0.00    +0.000 A 
BRANCH  17  22
ATOM     22  C   UNL     1       3.151   3.067  16.957  0.00  0.00    +0.000 C 
ATOM     23  C   UNL     1       3.367   1.903  17.928  0.00  0.00    +0.000 C 
ATOM     24  C   UNL     1       1.896   3.863  17.329  0.00  0.00    +0.000 C 
ENDBRANCH  17  22
BRANCH  21  25
ATOM     25  C   UNL     1       6.923   6.419  18.330  0.00  0.00    +0.000 C 
ATOM     26  C   UNL     1       7.928   5.639  19.192  0.00  0.00    +0.000 C 
ATOM     27  C   UNL     1       7.639   7.579  17.625  0.00  0.00    +0.000 C 
ENDBRANCH  21  25
ENDBRANCH   4  16
TORSDOF 6
ENDMDL
MODEL 5
REMARK VINA RESULT:      -7.8      0.246      3.267
REMARK  Name = 
REMARK  11 active torsions:
REMARK  status: ('A' for Active; 'I' for Inactive)
REMARK    1  A    between atoms: C_1  and  C_2
REMARK    2  A    between atoms: C_2  and  C_3
REMARK    3  A    between atoms: C_3  and  C_4
REMARK    4  A    between atoms: C_7  and  N_8
REMARK    5  A    between atoms: N_11  and  C_12
REMARK    6  A    between atoms: C_13  and  C_14
REMARK    7  A    between atoms: C_14  and  C_15
REMARK    8  A    between atoms: C_14  and  C_16
REMARK    9  A    between atoms: C_20  and  C_21
REMARK   10  A    between atoms: C_21  and  C_22
REMARK   11  A    between atoms: C_21  and  C_23
REMARK                            x       y       z     vdW  Elec       q    Type
REMARK                         _______ _______ _______ _____ _____    ______ ____
ROOT
ATOM      1  N   UNL     1       3.362   6.658  18.649  0.00  0.00    +0.000 N 
ATOM      2  C   UNL     1       3.669   5.627  19.505  0.00  0.00    +0.000 C 
ATOM      3  O   UNL     1       3.181   5.433  20.617  0.00  0.00    +0.000 OA
ATOM      4  N   UNL     1       4.580   4.711  19.024  0.00  0.00    +0.000 N 
ATOM      5  H   UNL     1       3.680   6.545  17.698  0.00  0.00    +0.000 HD
ATOM      6  H   UNL     1       4.476   3.823  19.501  0.00  0.00    +0.000 HD
ENDROOT
BRANCH   1  10
ATOM      7  C   UNL     1       0.504   9.716  19.158  0.00  0.00    +0.000 A 
ATOM      8  C   UNL     1       0.894   8.939  20.256  0.00  0.00    +0.000 A 
ATOM      9  C   UNL     1       1.848   7.928  20.113  0.00  0.00    +0.000 A 
ATOM     10  C   UNL     1       2.426   7.681  18.870  0.00  0.00    +0.000 A 
ATOM     11  C   UNL     1       2.067   8.476  17.777  0.00  0.00    +0.000 A 
ATOM     12  C   UNL     1       1.100   9.475  17.915  0.00  0.00    +0.000 A 
BRANCH   7  13
ATOM     13  C   UNL     1      -0.553  10.783  19.306  0.00  0.00    +0.000 C 
BRANCH  13  15
ATOM     14  C   UNL     1      -2.520  10.002  17.884  0.00  0.00    +0.000 C 
ATOM     15  C   UNL     1      -1.395  11.015  18.048  0.00  0.00    +0.000 C 
ENDBRANCH  13  15
ENDBRANCH   7  13
ENDBRANCH   1  10
BRANCH   4  16
ATOM     16  C   UNL     1       5.082   4.684  17.717  0.00  0.00    +0.000 A 
ATOM     17  C   UNL     1       6.185   5.524  17.405  0.00  0.00    +0.000 A 
ATOM     18  C   UNL     1       6.581   5.600  16.058  0.00  0.00    +0.000 A 
ATOM     19  C   UNL     1       5.960   4.843  15.073  0.00  0.00    +0.000 A 
ATOM     20  C   UNL     1       4.920   3.982  15.407  0.00  0.00    +0.000 A 
ATOM     21  C   UNL     1       4.445   3.893  16.727  0.00  0.00    +0.000 A 
BRANCH  17  22
ATOM     22  C   UNL     1       6.985   6.367  18.400  0.00  0.00    +0.000 C 
ATOM     23  C   UNL     1       7.940   5.521  19.246  0.00  0.00    +0.000 C 
ATOM     24  C   UNL     1       7.705   7.592  17.826  0.00  0.00    +0.000 C 
ENDBRANCH  17  22
BRANCH  21  25
ATOM     25  C   UNL     1       3.237   2.996  17.006  0.00  0.00    +0.000 C 
ATOM     26  C   UNL     1       3.531   1.985  18.126  0.00  0.00    +0.000 C 
ATOM     27  C   UNL     1       1.984   3.807  17.359  0.00  0.00    +0.000 C 
ENDBRANCH  21  25
ENDBRANCH   4  16
TORSDOF 6
ENDMDL
MODEL 6
REMARK VINA RESULT:      -7.5      3.900      9.384
REMARK  Name = 
REMARK  11 active torsions:
REMARK  status: ('A' for Active; 'I' for Inactive)
REMARK    1  A    between atoms: C_1  and  C_2
REMARK    2  A    between atoms: C_2  and  C_3
REMARK    3  A    between atoms: C_3  and  C_4
REMARK    4  A    between atoms: C_7  and  N_8
REMARK    5  A    between atoms: N_11  and  C_12
REMARK    6  A    between atoms: C_13  and  C_14
REMARK    7  A    between atoms: C_14  and  C_15
REMARK    8  A    between atoms: C_14  and  C_16
REMARK    9  A    between atoms: C_20  and  C_21
REMARK   10  A    between atoms: C_21  and  C_22
REMARK   11  A    between atoms: C_21  and  C_23
REMARK                            x       y       z     vdW  Elec       q    Type
REMARK                         _______ _______ _______ _____ _____    ______ ____
ROOT
ATOM      1  N   UNL     1       0.154  11.139  19.651  0.00  0.00    +0.000 N 
ATOM      2  C   UNL     1      -1.128  11.419  19.242  0.00  0.00    +0.000 C 
ATOM      3  O   UNL     1      -1.833  10.715  18.522  0.00  0.00    +0.000 OA
ATOM      4  N   UNL     1      -1.665  12.585  19.742  0.00  0.00    +0.000 N 
ATOM      5  H   UNL     1       0.503  11.703  20.412  0.00  0.00    +0.000 HD
ATOM      6  H   UNL     1      -2.678  12.544  19.729  0.00  0.00    +0.000 HD
ENDROOT
BRANCH   1  10
ATOM      7  C   UNL     1       2.318   7.616  18.820  0.00  0.00    +0.000 A 
ATOM      8  C   UNL     1       2.177   8.595  17.829  0.00  0.00    +0.000 A 
ATOM      9  C   UNL     1       1.474   9.775  18.086  0.00  0.00    +0.000 A 
ATOM     10  C   UNL     1       0.903   9.993  19.338  0.00  0.00    +0.000 A 
ATOM     11  C   UNL     1       1.070   9.035  20.343  0.00  0.00    +0.000 A 
ATOM     12  C   UNL     1       1.757   7.847  20.081  0.00  0.00    +0.000 A 
BRANCH   7  13
ATOM     13  C   UNL     1       3.045   6.326  18.530  0.00  0.00    +0.000 C 
BRANCH  13  15
ATOM     14  C   UNL     1       1.695   4.310  17.748  0.00  0.00    +0.000 C 
ATOM     15  C   UNL     1       2.277   5.064  18.936  0.00  0.00    +0.000 C 
ENDBRANCH  13  15
ENDBRANCH   7  13
ENDBRANCH   1  10
BRANCH   4  16
ATOM     16  C   UNL     1      -1.068  13.396  20.715  0.00  0.00    +0.000 A 
ATOM     17  C   UNL     1      -1.344  13.118  22.081  0.00  0.00    +0.000 A 
ATOM     18  C   UNL     1      -0.862  14.028  23.038  0.00  0.00    +0.000 A 
ATOM     19  C   UNL     1      -0.097  15.129  22.675  0.00  0.00    +0.000 A 
ATOM     20  C   UNL     1       0.211  15.353  21.338  0.00  0.00    +0.000 A 
ATOM     21  C   UNL     1      -0.277  14.507  20.327  0.00  0.00    +0.000 A 
BRANCH  17  22
ATOM     22  C   UNL     1      -2.126  11.917  22.616  0.00  0.00    +0.000 C 
ATOM     23  C   UNL     1      -1.210  10.798  23.116  0.00  0.00    +0.000 C 
ATOM     24  C   UNL     1      -3.223  12.224  23.641  0.00  0.00    +0.000 C 
ENDBRANCH  17  22
BRANCH  21  25
ATOM     25  C   UNL     1       0.024  14.866  18.870  0.00  0.00    +0.000 C 
ATOM     26  C   UNL     1      -0.291  16.342  18.576  0.00  0.00    +0.000 C 
ATOM     27  C   UNL     1       1.478  14.561  18.488  0.00  0.00    +0.000 C 
ENDBRANCH  21  25
ENDBRANCH   4  16
TORSDOF 6
ENDMDL
MODEL 7
REMARK VINA RESULT:      -7.5      0.324      3.129
REMARK  Name = 
REMARK  11 active torsions:
REMARK  status: ('A' for Active; 'I' for Inactive)
REMARK    1  A    between atoms: C_1  and  C_2
REMARK    2  A    between atoms: C_2  and  C_3
REMARK    3  A    between atoms: C_3  and  C_4
REMARK    4  A    between atoms: C_7  and  N_8
REMARK    5  A    between atoms: N_11  and  C_12
REMARK    6  A    between atoms: C_13  and  C_14
REMARK    7  A    between atoms: C_14  and  C_15
REMARK    8  A    between atoms: C_14  and  C_16
REMARK    9  A    between atoms: C_20  and  C_21
REMARK   10  A    between atoms: C_21  and  C_22
REMARK   11  A    between atoms: C_21  and  C_23
REMARK                            x       y       z     vdW  Elec       q    Type
REMARK                         _______ _______ _______ _____ _____    ______ ____
ROOT
ATOM      1  N   UNL     1       3.423   6.655  18.552  0.00  0.00    +0.000 N 
ATOM      2  C   UNL     1       3.683   5.653  19.456  0.00  0.00    +0.000 C 
ATOM      3  O   UNL     1       3.158   5.513  20.559  0.00  0.00    +0.000 OA
ATOM      4  N   UNL     1       4.589   4.702  19.039  0.00  0.00    +0.000 N 
ATOM      5  H   UNL     1       3.767   6.499  17.615  0.00  0.00    +0.000 HD
ATOM      6  H   UNL     1       4.453   3.835  19.547  0.00  0.00    +0.000 HD
ENDROOT
BRANCH   1  10
ATOM      7  C   UNL     1       0.694   9.812  19.163  0.00  0.00    +0.000 A 
ATOM      8  C   UNL     1       1.282   9.635  17.904  0.00  0.00    +0.000 A 
ATOM      9  C   UNL     1       2.180   8.589  17.676  0.00  0.00    +0.000 A 
ATOM     10  C   UNL     1       2.501   7.704  18.703  0.00  0.00    +0.000 A 
ATOM     11  C   UNL     1       1.892   7.854  19.953  0.00  0.00    +0.000 A 
ATOM     12  C   UNL     1       1.008   8.911  20.186  0.00  0.00    +0.000 A 
BRANCH   7  13
ATOM     13  C   UNL     1      -0.247  10.963  19.418  0.00  0.00    +0.000 C 
BRANCH  13  15
ATOM     14  C   UNL     1      -1.979  11.107  17.553  0.00  0.00    +0.000 C 
ATOM     15  C   UNL     1      -1.695  10.702  18.993  0.00  0.00    +0.000 C 
ENDBRANCH  13  15
ENDBRANCH   7  13
ENDBRANCH   1  10
BRANCH   4  16
ATOM     16  C   UNL     1       5.129   4.614  17.750  0.00  0.00    +0.000 A 
ATOM     17  C   UNL     1       6.242   5.437  17.432  0.00  0.00    +0.000 A 
ATOM     18  C   UNL     1       6.678   5.449  16.095  0.00  0.00    +0.000 A 
ATOM     19  C   UNL     1       6.084   4.649  15.128  0.00  0.00    +0.000 A 
ATOM     20  C   UNL     1       5.033   3.806  15.471  0.00  0.00    +0.000 A 
ATOM     21  C   UNL     1       4.520   3.779  16.779  0.00  0.00    +0.000 A 
BRANCH  17  22
ATOM     22  C   UNL     1       7.016   6.324  18.409  0.00  0.00    +0.000 C 
ATOM     23  C   UNL     1       7.991   5.525  19.276  0.00  0.00    +0.000 C 
ATOM     24  C   UNL     1       7.701   7.556  17.810  0.00  0.00    +0.000 C 
ENDBRANCH  17  22
BRANCH  21  25
ATOM     25  C   UNL     1       3.302   2.897  17.064  0.00  0.00    +0.000 C 
ATOM     26  C   UNL     1       3.565   1.929  18.229  0.00  0.00    +0.000 C 
ATOM     27  C   UNL     1       2.043   3.725  17.354  0.00  0.00    +0.000 C 
ENDBRANCH  21  25
ENDBRANCH   4  16
TORSDOF 6
ENDMDL
MODEL 8
REMARK VINA RESULT:      -7.5      0.645      3.321
REMARK  Name = 
REMARK  11 active torsions:
REMARK  status: ('A' for Active; 'I' for Inactive)
REMARK    1  A    between atoms: C_1  and  C_2
REMARK    2  A    between atoms: C_2  and  C_3
REMARK    3  A    between atoms: C_3  and  C_4
REMARK    4  A    between atoms: C_7  and  N_8
REMARK    5  A    between atoms: N_11  and  C_12
REMARK    6  A    between atoms: C_13  and  C_14
REMARK    7  A    between atoms: C_14  and  C_15
REMARK    8  A    between atoms: C_14  and  C_16
REMARK    9  A    between atoms: C_20  and  C_21
REMARK   10  A    between atoms: C_21  and  C_22
REMARK   11  A    between atoms: C_21  and  C_23
REMARK                            x       y       z     vdW  Elec       q    Type
REMARK                         _______ _______ _______ _____ _____    ______ ____
ROOT
ATOM      1  N   UNL     1       3.356   6.661  18.595  0.00  0.00    +0.000 N 
ATOM      2  C   UNL     1       3.660   5.644  19.469  0.00  0.00    +0.000 C 
ATOM      3  O   UNL     1       3.169   5.467  20.581  0.00  0.00    +0.000 OA
ATOM      4  N   UNL     1       4.574   4.721  19.005  0.00  0.00    +0.000 N 
ATOM      5  H   UNL     1       3.678   6.533  17.647  0.00  0.00    +0.000 HD
ATOM      6  H   UNL     1       4.468   3.840  19.496  0.00  0.00    +0.000 HD
ENDROOT
BRANCH   1  10
ATOM      7  C   UNL     1       0.589   9.752  19.350  0.00  0.00    +0.000 A 
ATOM      8  C   UNL     1       1.088   9.566  18.055  0.00  0.00    +0.000 A 
ATOM      9  C   UNL     1       1.997   8.541  17.780  0.00  0.00    +0.000 A 
ATOM     10  C   UNL     1       2.419   7.687  18.796  0.00  0.00    +0.000 A 
ATOM     11  C   UNL     1       1.898   7.845  20.084  0.00  0.00    +0.000 A 
ATOM     12  C   UNL     1       1.003   8.881  20.364  0.00  0.00    +0.000 A 
BRANCH   7  13
ATOM     13  C   UNL     1      -0.363  10.882  19.653  0.00  0.00    +0.000 C 
BRANCH  13  15
ATOM     14  C   UNL     1       1.437  12.569  20.297  0.00  0.00    +0.000 C 
ATOM     15  C   UNL     1       0.147  11.871  20.706  0.00  0.00    +0.000 C 
ENDBRANCH  13  15
ENDBRANCH   7  13
ENDBRANCH   1  10
BRANCH   4  16
ATOM     16  C   UNL     1       5.081   4.673  17.701  0.00  0.00    +0.000 A 
ATOM     17  C   UNL     1       6.180   5.513  17.378  0.00  0.00    +0.000 A 
ATOM     18  C   UNL     1       6.581   5.567  16.032  0.00  0.00    +0.000 A 
ATOM     19  C   UNL     1       5.967   4.790  15.058  0.00  0.00    +0.000 A 
ATOM     20  C   UNL     1       4.930   3.930  15.403  0.00  0.00    +0.000 A 
ATOM     21  C   UNL     1       4.452   3.862  16.723  0.00  0.00    +0.000 A 
BRANCH  17  22
ATOM     22  C   UNL     1       6.973   6.377  18.361  0.00  0.00    +0.000 C 
ATOM     23  C   UNL     1       7.933   5.552  19.221  0.00  0.00    +0.000 C 
ATOM     24  C   UNL     1       7.683   7.599  17.769  0.00  0.00    +0.000 C 
ENDBRANCH  17  22
BRANCH  21  25
ATOM     25  C   UNL     1       3.247   2.964  17.014  0.00  0.00    +0.000 C 
ATOM     26  C   UNL     1       3.545   1.969  18.147  0.00  0.00    +0.000 C 
ATOM     27  C   UNL     1       1.990   3.774  17.354  0.00  0.00    +0.000 C 
ENDBRANCH  21  25
ENDBRANCH   4  16
TORSDOF 6
ENDMDL
MODEL 9
REMARK VINA RESULT:      -7.5      2.388      7.269
REMARK  Name = 
REMARK  11 active torsions:
REMARK  status: ('A' for Active; 'I' for Inactive)
REMARK    1  A    between atoms: C_1  and  C_2
REMARK    2  A    between atoms: C_2  and  C_3
REMARK    3  A    between atoms: C_3  and  C_4
REMARK    4  A    between atoms: C_7  and  N_8
REMARK    5  A    between atoms: N_11  and  C_12
REMARK    6  A    between atoms: C_13  and  C_14
REMARK    7  A    between atoms: C_14  and  C_15
REMARK    8  A    between atoms: C_14  and  C_16
REMARK    9  A    between atoms: C_20  and  C_21
REMARK   10  A    between atoms: C_21  and  C_22
REMARK   11  A    between atoms: C_21  and  C_23
REMARK                            x       y       z     vdW  Elec       q    Type
REMARK                         _______ _______ _______ _____ _____    ______ ____
ROOT
ATOM      1  N   UNL     1       4.941   4.604  17.587  0.00  0.00    +0.000 N 
ATOM      2  C   UNL     1       5.432   5.320  18.652  0.00  0.00    +0.000 C 
ATOM      3  O   UNL     1       6.473   5.973  18.674  0.00  0.00    +0.000 OA
ATOM      4  N   UNL     1       4.633   5.329  19.775  0.00  0.00    +0.000 N 
ATOM      5  H   UNL     1       3.976   4.317  17.660  0.00  0.00    +0.000 HD
ATOM      6  H   UNL     1       4.837   6.140  20.349  0.00  0.00    +0.000 HD
ENDROOT
BRANCH   1  10
ATOM      7  C   UNL     1       6.547   4.260  13.702  0.00  0.00    +0.000 A 
ATOM      8  C   UNL     1       7.327   4.799  14.732  0.00  0.00    +0.000 A 
ATOM      9  C   UNL     1       6.820   4.911  16.029  0.00  0.00    +0.000 A 
ATOM     10  C   UNL     1       5.525   4.486  16.315  0.00  0.00    +0.000 A 
ATOM     11  C   UNL     1       4.751   3.915  15.299  0.00  0.00    +0.000 A 
ATOM     12  C   UNL     1       5.252   3.819  13.998  0.00  0.00    +0.000 A 
BRANCH   7  13
ATOM     13  C   UNL     1       7.082   4.174  12.295  0.00  0.00    +0.000 C 
BRANCH  13  15
ATOM     14  C   UNL     1       7.415   1.946  11.098  0.00  0.00    +0.000 C 
ATOM     15  C   UNL     1       6.446   3.069  11.444  0.00  0.00    +0.000 C 
ENDBRANCH  13  15
ENDBRANCH   7  13
ENDBRANCH   1  10
BRANCH   4  16
ATOM     16  C   UNL     1       3.340   4.798  19.849  0.00  0.00    +0.000 A 
ATOM     17  C   UNL     1       2.255   5.698  20.028  0.00  0.00    +0.000 A 
ATOM     18  C   UNL     1       0.983   5.142  20.251  0.00  0.00    +0.000 A 
ATOM     19  C   UNL     1       0.776   3.769  20.244  0.00  0.00    +0.000 A 
ATOM     20  C   UNL     1       1.840   2.905  20.010  0.00  0.00    +0.000 A 
ATOM     21  C   UNL     1       3.145   3.393  19.824  0.00  0.00    +0.000 A 
BRANCH  17  22
ATOM     22  C   UNL     1       2.338   7.225  20.006  0.00  0.00    +0.000 C 
ATOM     23  C   UNL     1       2.306   7.792  18.585  0.00  0.00    +0.000 C 
ATOM     24  C   UNL     1       1.355   7.971  20.914  0.00  0.00    +0.000 C 
ENDBRANCH  17  22
BRANCH  21  25
ATOM     25  C   UNL     1       4.283   2.383  19.665  0.00  0.00    +0.000 C 
ATOM     26  C   UNL     1       4.639   1.716  21.004  0.00  0.00    +0.000 C 
ATOM     27  C   UNL     1       3.958   1.306  18.622  0.00  0.00    +0.000 C 
ENDBRANCH  21  25
ENDBRANCH   4  16
TORSDOF 6
ENDMDL
