MODEL 1
REMARK VINA RESULT:      -8.6      0.000      0.000
REMARK  Name = 
REMARK  9 active torsions:
REMARK  status: ('A' for Active; 'I' for Inactive)
REMARK    1  A    between atoms: C_1  and  O_2
REMARK    2  A    between atoms: O_2  and  C_3
REMARK    3  A    between atoms: C_3  and  C_5
REMARK    4  A    between atoms: C_6  and  N_7
REMARK    5  A    between atoms: C_8  and  C_10
REMARK    6  A    between atoms: C_13  and  C_14
REMARK    7  A    between atoms: C_18  and  C_19
REMARK    8  A    between atoms: C_19  and  C_20
REMARK    9  A    between atoms: C_26  and  C_27
REMARK                            x       y       z     vdW  Elec       q    Type
REMARK                         _______ _______ _______ _____ _____    ______ ____
ROOT
ATOM      1  C   UNL     1       2.727   4.197  20.280  0.00  0.00    +0.000 A 
ATOM      2  C   UNL     1       2.770   5.593  20.217  0.00  0.00    +0.000 A 
ATOM      3  S   UNL     1       4.013   6.118  19.177  0.00  0.00    +0.000 S 
ATOM      4  C   UNL     1       4.762   4.600  19.126  0.00  0.00    +0.000 A 
ATOM      5  C   UNL     1       3.981   3.633  19.739  0.00  0.00    +0.000 A 
ATOM      6  C   UNL     1       4.400   2.199  19.876  0.00  0.00    +0.000 C 
ENDROOT
BRANCH   2   7
ATOM      7  N   UNL     1       1.937   6.560  20.802  0.00  0.00    +0.000 N 
ATOM      8  C   UNL     1       1.625   7.786  20.199  0.00  0.00    +0.000 C 
ATOM      9  O   UNL     1       1.998   8.179  19.095  0.00  0.00    +0.000 OA
ATOM     10  H   UNL     1       1.674   6.392  21.768  0.00  0.00    +0.000 HD
BRANCH   8  11
ATOM     11  C   UNL     1       0.787   8.760  20.960  0.00  0.00    +0.000 A 
ATOM     12  C   UNL     1       0.664   8.743  22.350  0.00  0.00    +0.000 A 
ATOM     13  C   UNL     1      -0.068   9.749  23.000  0.00  0.00    +0.000 A 
ATOM     14  C   UNL     1      -0.682  10.781  22.274  0.00  0.00    +0.000 A 
ATOM     15  C   UNL     1      -1.466  11.860  22.962  0.00  0.00    +0.000 C 
ATOM     16  C   UNL     1      -0.542  10.806  20.885  0.00  0.00    +0.000 A 
ATOM     17  C   UNL     1       0.185   9.806  20.235  0.00  0.00    +0.000 A 
ENDBRANCH   8  11
ENDBRANCH   2   7
BRANCH   1  18
ATOM     18  C   UNL     1       1.631   3.406  20.893  0.00  0.00    +0.000 C 
ATOM     19  O   UNL     1       1.674   2.989  22.043  0.00  0.00    +0.000 OA
BRANCH  18  21
ATOM     20  C   UNL     1       0.749   2.486  18.824  0.00  0.00    +0.000 C 
ATOM     21  O   UNL     1       0.595   3.228  20.033  0.00  0.00    +0.000 OA
ENDBRANCH  18  21
ENDBRANCH   1  18
BRANCH   4  22
ATOM     22  C   UNL     1       6.133   4.501  18.511  0.00  0.00    +0.000 C 
BRANCH  22  23
ATOM     23  C   UNL     1       6.145   4.449  16.999  0.00  0.00    +0.000 A 
ATOM     24  C   UNL     1       4.996   4.055  16.298  0.00  0.00    +0.000 A 
ATOM     25  C   UNL     1       4.975   4.069  14.902  0.00  0.00    +0.000 A 
ATOM     26  C   UNL     1       6.104   4.467  14.191  0.00  0.00    +0.000 A 
ATOM     27  C   UNL     1       7.260   4.839  14.875  0.00  0.00    +0.000 A 
ATOM     28  C   UNL     1       7.282   4.828  16.271  0.00  0.00    +0.000 A 
ENDBRANCH  22  23
ENDBRANCH   4  22
TORSDOF 6
ENDMDL
MODEL 2
REMARK VINA RESULT:      -8.6      0.210      1.324
REMARK  Name = 
REMARK  9 active torsions:
REMARK  status: ('A' for Active; 'I' for Inactive)
REMARK    1  A    between atoms: C_1  and  O_2
REMARK    2  A    between atoms: O_2  and  C_3
REMARK    3  A    between atoms: C_3  and  C_5
REMARK    4  A    between atoms: C_6  and  N_7
REMARK    5  A    between atoms: C_8  and  C_10
REMARK    6  A    between atoms: C_13  and  C_14
REMARK    7  A    between atoms: C_18  and  C_19
REMARK    8  A    between atoms: C_19  and  C_20
REMARK    9  A    between atoms: C_26  and  C_27
REMARK                            x       y       z     vdW  Elec       q    Type
REMARK                         _______ _______ _______ _____ _____    ______ ____
ROOT
ATOM      1  C   UNL     1       2.822   4.315  20.230  0.00  0.00    +0.000 A 
ATOM      2  C   UNL     1       2.911   5.706  20.120  0.00  0.00    +0.000 A 
ATOM      3  S   UNL     1       4.147   6.154  19.035  0.00  0.00    +0.000 S 
ATOM      4  C   UNL     1       4.843   4.610  19.019  0.00  0.00    +0.000 A 
ATOM      5  C   UNL     1       4.043   3.691  19.681  0.00  0.00    +0.000 A 
ATOM      6  C   UNL     1       4.417   2.248  19.857  0.00  0.00    +0.000 C 
ENDROOT
BRANCH   2   7
ATOM      7  N   UNL     1       2.125   6.720  20.690  0.00  0.00    +0.000 N 
ATOM      8  C   UNL     1       1.703   7.861  19.995  0.00  0.00    +0.000 C 
ATOM      9  O   UNL     1       1.927   8.130  18.816  0.00  0.00    +0.000 OA
ATOM     10  H   UNL     1       1.987   6.661  21.694  0.00  0.00    +0.000 HD
BRANCH   8  11
ATOM     11  C   UNL     1       0.933   8.902  20.739  0.00  0.00    +0.000 A 
ATOM     12  C   UNL     1       0.244   9.941  20.111  0.00  0.00    +0.000 A 
ATOM     13  C   UNL     1      -0.534  10.827  20.873  0.00  0.00    +0.000 A 
ATOM     14  C   UNL     1      -0.635  10.686  22.265  0.00  0.00    +0.000 A 
ATOM     15  C   UNL     1      -1.464  11.629  23.087  0.00  0.00    +0.000 C 
ATOM     16  C   UNL     1       0.040   9.635  22.889  0.00  0.00    +0.000 A 
ATOM     17  C   UNL     1       0.815   8.752  22.134  0.00  0.00    +0.000 A 
ENDBRANCH   8  11
ENDBRANCH   2   7
BRANCH   1  18
ATOM     18  C   UNL     1       1.715   3.583  20.893  0.00  0.00    +0.000 C 
ATOM     19  O   UNL     1       1.775   3.189  22.050  0.00  0.00    +0.000 OA
BRANCH  18  21
ATOM     20  C   UNL     1       0.688   2.538  18.953  0.00  0.00    +0.000 C 
ATOM     21  O   UNL     1       0.647   3.429  20.068  0.00  0.00    +0.000 OA
ENDBRANCH  18  21
ENDBRANCH   1  18
BRANCH   4  22
ATOM     22  C   UNL     1       6.195   4.443  18.378  0.00  0.00    +0.000 C 
BRANCH  22  23
ATOM     23  C   UNL     1       6.186   4.477  16.866  0.00  0.00    +0.000 A 
ATOM     24  C   UNL     1       7.257   5.054  16.168  0.00  0.00    +0.000 A 
ATOM     25  C   UNL     1       7.292   5.029  14.772  0.00  0.00    +0.000 A 
ATOM     26  C   UNL     1       6.252   4.437  14.058  0.00  0.00    +0.000 A 
ATOM     27  C   UNL     1       5.172   3.880  14.739  0.00  0.00    +0.000 A 
ATOM     28  C   UNL     1       5.137   3.902  16.135  0.00  0.00    +0.000 A 
ENDBRANCH  22  23
ENDBRANCH   4  22
TORSDOF 6
ENDMDL
MODEL 3
REMARK VINA RESULT:      -8.3      1.100      1.728
REMARK  Name = 
REMARK  9 active torsions:
REMARK  status: ('A' for Active; 'I' for Inactive)
REMARK    1  A    between atoms: C_1  and  O_2
REMARK    2  A    between atoms: O_2  and  C_3
REMARK    3  A    between atoms: C_3  and  C_5
REMARK    4  A    between atoms: C_6  and  N_7
REMARK    5  A    between atoms: C_8  and  C_10
REMARK    6  A    between atoms: C_13  and  C_14
REMARK    7  A    between atoms: C_18  and  C_19
REMARK    8  A    between atoms: C_19  and  C_20
REMARK    9  A    between atoms: C_26  and  C_27
REMARK                            x       y       z     vdW  Elec       q    Type
REMARK                         _______ _______ _______ _____ _____    ______ ____
ROOT
ATOM      1  C   UNL     1       2.635   4.374  18.712  0.00  0.00    +0.000 A 
ATOM      2  C   UNL     1       2.965   5.696  19.029  0.00  0.00    +0.000 A 
ATOM      3  S   UNL     1       4.428   6.153  18.285  0.00  0.00    +0.000 S 
ATOM      4  C   UNL     1       4.858   4.561  17.900  0.00  0.00    +0.000 A 
ATOM      5  C   UNL     1       3.817   3.683  18.159  0.00  0.00    +0.000 A 
ATOM      6  C   UNL     1       3.916   2.201  17.946  0.00  0.00    +0.000 C 
ENDROOT
BRANCH   2   7
ATOM      7  N   UNL     1       2.265   6.659  19.771  0.00  0.00    +0.000 N 
ATOM      8  C   UNL     1       1.832   7.885  19.245  0.00  0.00    +0.000 C 
ATOM      9  O   UNL     1       1.973   8.279  18.088  0.00  0.00    +0.000 OA
ATOM     10  H   UNL     1       2.204   6.491  20.770  0.00  0.00    +0.000 HD
BRANCH   8  11
ATOM     11  C   UNL     1       1.162   8.855  20.160  0.00  0.00    +0.000 A 
ATOM     12  C   UNL     1       0.592  10.052  19.724  0.00  0.00    +0.000 A 
ATOM     13  C   UNL     1      -0.102  10.868  20.632  0.00  0.00    +0.000 A 
ATOM     14  C   UNL     1      -0.236  10.501  21.979  0.00  0.00    +0.000 A 
ATOM     15  C   UNL     1      -0.976  11.368  22.955  0.00  0.00    +0.000 C 
ATOM     16  C   UNL     1       0.319   9.293  22.409  0.00  0.00    +0.000 A 
ATOM     17  C   UNL     1       1.010   8.480  21.509  0.00  0.00    +0.000 A 
ENDBRANCH   8  11
ENDBRANCH   2   7
BRANCH   1  18
ATOM     18  C   UNL     1       1.325   3.735  18.989  0.00  0.00    +0.000 C 
ATOM     19  O   UNL     1       0.674   3.153  18.133  0.00  0.00    +0.000 OA
BRANCH  18  21
ATOM     20  C   UNL     1       1.569   3.077  21.317  0.00  0.00    +0.000 C 
ATOM     21  O   UNL     1       0.965   3.867  20.293  0.00  0.00    +0.000 OA
ENDBRANCH  18  21
ENDBRANCH   1  18
BRANCH   4  22
ATOM     22  C   UNL     1       6.257   4.298  17.410  0.00  0.00    +0.000 C 
BRANCH  22  23
ATOM     23  C   UNL     1       6.416   4.326  15.906  0.00  0.00    +0.000 A 
ATOM     24  C   UNL     1       5.516   3.624  15.090  0.00  0.00    +0.000 A 
ATOM     25  C   UNL     1       5.612   3.698  13.699  0.00  0.00    +0.000 A 
ATOM     26  C   UNL     1       6.613   4.465  13.108  0.00  0.00    +0.000 A 
ATOM     27  C   UNL     1       7.527   5.148  13.907  0.00  0.00    +0.000 A 
ATOM     28  C   UNL     1       7.431   5.077  15.298  0.00  0.00    +0.000 A 
ENDBRANCH  22  23
ENDBRANCH   4  22
TORSDOF 6
ENDMDL
MODEL 4
REMARK VINA RESULT:      -8.3      1.665      2.578
REMARK  Name = 
REMARK  9 active torsions:
REMARK  status: ('A' for Active; 'I' for Inactive)
REMARK    1  A    between atoms: C_1  and  O_2
REMARK    2  A    between atoms: O_2  and  C_3
REMARK    3  A    between atoms: C_3  and  C_5
REMARK    4  A    between atoms: C_6  and  N_7
REMARK    5  A    between atoms: C_8  and  C_10
REMARK    6  A    between atoms: C_13  and  C_14
REMARK    7  A    between atoms: C_18  and  C_19
REMARK    8  A    between atoms: C_19  and  C_20
REMARK    9  A    between atoms: C_26  and  C_27
REMARK                            x       y       z     vdW  Elec       q    Type
REMARK                         _______ _______ _______ _____ _____    ______ ____
ROOT
ATOM      1  C   UNL     1       2.975   4.936  17.897  0.00  0.00    +0.000 A 
ATOM      2  C   UNL     1       3.284   6.277  18.144  0.00  0.00    +0.000 A 
ATOM      3  S   UNL     1       4.700   6.738  17.315  0.00  0.00    +0.000 S 
ATOM      4  C   UNL     1       5.153   5.142  16.976  0.00  0.00    +0.000 A 
ATOM      5  C   UNL     1       4.148   4.251  17.319  0.00  0.00    +0.000 A 
ATOM      6  C   UNL     1       4.276   2.764  17.162  0.00  0.00    +0.000 C 
ENDROOT
BRANCH   2   7
ATOM      7  N   UNL     1       2.593   7.254  18.878  0.00  0.00    +0.000 N 
ATOM      8  C   UNL     1       2.085   8.434  18.318  0.00  0.00    +0.000 C 
ATOM      9  O   UNL     1       2.142   8.772  17.136  0.00  0.00    +0.000 OA
ATOM     10  H   UNL     1       2.597   7.136  19.886  0.00  0.00    +0.000 HD
BRANCH   8  11
ATOM     11  C   UNL     1       1.434   9.428  19.222  0.00  0.00    +0.000 A 
ATOM     12  C   UNL     1       1.096  10.722  18.823  0.00  0.00    +0.000 A 
ATOM     13  C   UNL     1       0.403  11.568  19.703  0.00  0.00    +0.000 A 
ATOM     14  C   UNL     1       0.038  11.134  20.986  0.00  0.00    +0.000 A 
ATOM     15  C   UNL     1      -0.705  12.032  21.933  0.00  0.00    +0.000 C 
ATOM     16  C   UNL     1       0.360   9.832  21.377  0.00  0.00    +0.000 A 
ATOM     17  C   UNL     1       1.050   8.989  20.504  0.00  0.00    +0.000 A 
ENDBRANCH   8  11
ENDBRANCH   2   7
BRANCH   1  18
ATOM     18  C   UNL     1       1.696   4.278  18.261  0.00  0.00    +0.000 C 
ATOM     19  O   UNL     1       1.003   3.676  17.451  0.00  0.00    +0.000 OA
BRANCH  18  21
ATOM     20  C   UNL     1       1.111   3.288  20.403  0.00  0.00    +0.000 C 
ATOM     21  O   UNL     1       1.415   4.416  19.583  0.00  0.00    +0.000 OA
ENDBRANCH  18  21
ENDBRANCH   1  18
BRANCH   4  22
ATOM     22  C   UNL     1       6.535   4.893  16.433  0.00  0.00    +0.000 C 
BRANCH  22  23
ATOM     23  C   UNL     1       6.597   4.679  14.937  0.00  0.00    +0.000 A 
ATOM     24  C   UNL     1       7.574   5.332  14.171  0.00  0.00    +0.000 A 
ATOM     25  C   UNL     1       7.684   5.089  12.801  0.00  0.00    +0.000 A 
ATOM     26  C   UNL     1       6.811   4.201  12.177  0.00  0.00    +0.000 A 
ATOM     27  C   UNL     1       5.821   3.563  12.922  0.00  0.00    +0.000 A 
ATOM     28  C   UNL     1       5.712   3.803  14.293  0.00  0.00    +0.000 A 
ENDBRANCH  22  23
ENDBRANCH   4  22
TORSDOF 6
ENDMDL
MODEL 5
REMARK VINA RESULT:      -8.2      1.327      1.992
REMARK  Name = 
REMARK  9 active torsions:
REMARK  status: ('A' for Active; 'I' for Inactive)
REMARK    1  A    between atoms: C_1  and  O_2
REMARK    2  A    between atoms: O_2  and  C_3
REMARK    3  A    between atoms: C_3  and  C_5
REMARK    4  A    between atoms: C_6  and  N_7
REMARK    5  A    between atoms: C_8  and  C_10
REMARK    6  A    between atoms: C_13  and  C_14
REMARK    7  A    between atoms: C_18  and  C_19
REMARK    8  A    between atoms: C_19  and  C_20
REMARK    9  A    between atoms: C_26  and  C_27
REMARK                            x       y       z     vdW  Elec       q    Type
REMARK                         _______ _______ _______ _____ _____    ______ ____
ROOT
ATOM      1  C   UNL     1       2.663   4.216  20.254  0.00  0.00    +0.000 A 
ATOM      2  C   UNL     1       2.486   5.577  19.987  0.00  0.00    +0.000 A 
ATOM      3  S   UNL     1       3.362   6.046  18.602  0.00  0.00    +0.000 S 
ATOM      4  C   UNL     1       4.292   4.631  18.577  0.00  0.00    +0.000 A 
ATOM      5  C   UNL     1       3.825   3.705  19.498  0.00  0.00    +0.000 A 
ATOM      6  C   UNL     1       4.469   2.370  19.724  0.00  0.00    +0.000 C 
ENDROOT
BRANCH   2   7
ATOM      7  N   UNL     1       1.681   6.536  20.622  0.00  0.00    +0.000 N 
ATOM      8  C   UNL     1       1.567   7.865  20.193  0.00  0.00    +0.000 C 
ATOM      9  O   UNL     1       2.116   8.373  19.216  0.00  0.00    +0.000 OA
ATOM     10  H   UNL     1       1.281   6.258  21.512  0.00  0.00    +0.000 HD
BRANCH   8  11
ATOM     11  C   UNL     1       0.734   8.805  21.001  0.00  0.00    +0.000 A 
ATOM     12  C   UNL     1       0.687   8.781  22.396  0.00  0.00    +0.000 A 
ATOM     13  C   UNL     1      -0.047   9.757  23.088  0.00  0.00    +0.000 A 
ATOM     14  C   UNL     1      -0.738  10.766  22.400  0.00  0.00    +0.000 A 
ATOM     15  C   UNL     1      -1.525  11.813  23.133  0.00  0.00    +0.000 C 
ATOM     16  C   UNL     1      -0.673  10.799  21.006  0.00  0.00    +0.000 A 
ATOM     17  C   UNL     1       0.056   9.829  20.314  0.00  0.00    +0.000 A 
ENDBRANCH   8  11
ENDBRANCH   2   7
BRANCH   1  18
ATOM     18  C   UNL     1       1.868   3.430  21.229  0.00  0.00    +0.000 C 
ATOM     19  O   UNL     1       2.159   3.351  22.415  0.00  0.00    +0.000 OA
BRANCH  18  21
ATOM     20  C   UNL     1       0.696   2.702  19.228  0.00  0.00    +0.000 C 
ATOM     21  O   UNL     1       0.792   2.841  20.645  0.00  0.00    +0.000 OA
ENDBRANCH  18  21
ENDBRANCH   1  18
BRANCH   4  22
ATOM     22  C   UNL     1       5.481   4.574  17.655  0.00  0.00    +0.000 C 
BRANCH  22  23
ATOM     23  C   UNL     1       6.511   5.658  17.884  0.00  0.00    +0.000 A 
ATOM     24  C   UNL     1       6.571   6.766  17.026  0.00  0.00    +0.000 A 
ATOM     25  C   UNL     1       7.472   7.804  17.268  0.00  0.00    +0.000 A 
ATOM     26  C   UNL     1       8.330   7.743  18.363  0.00  0.00    +0.000 A 
ATOM     27  C   UNL     1       8.297   6.638  19.210  0.00  0.00    +0.000 A 
ATOM     28  C   UNL     1       7.394   5.599  18.971  0.00  0.00    +0.000 A 
ENDBRANCH  22  23
ENDBRANCH   4  22
TORSDOF 6
ENDMDL
MODEL 6
REMARK VINA RESULT:      -8.2      1.700      2.458
REMARK  Name = 
REMARK  9 active torsions:
REMARK  status: ('A' for Active; 'I' for Inactive)
REMARK    1  A    between atoms: C_1  and  O_2
REMARK    2  A    between atoms: O_2  and  C_3
REMARK    3  A    between atoms: C_3  and  C_5
REMARK    4  A    between atoms: C_6  and  N_7
REMARK    5  A    between atoms: C_8  and  C_10
REMARK    6  A    between atoms: C_13  and  C_14
REMARK    7  A    between atoms: C_18  and  C_19
REMARK    8  A    between atoms: C_19  and  C_20
REMARK    9  A    between atoms: C_26  and  C_27
REMARK                            x       y       z     vdW  Elec       q    Type
REMARK                         _______ _______ _______ _____ _____    ______ ____
ROOT
ATOM      1  C   UNL     1       2.969   4.894  17.618  0.00  0.00    +0.000 A 
ATOM      2  C   UNL     1       3.261   6.256  17.741  0.00  0.00    +0.000 A 
ATOM      3  S   UNL     1       4.695   6.649  16.909  0.00  0.00    +0.000 S 
ATOM      4  C   UNL     1       5.170   5.033  16.739  0.00  0.00    +0.000 A 
ATOM      5  C   UNL     1       4.163   4.168  17.140  0.00  0.00    +0.000 A 
ATOM      6  C   UNL     1       4.306   2.674  17.133  0.00  0.00    +0.000 C 
ENDROOT
BRANCH   2   7
ATOM      7  N   UNL     1       2.542   7.292  18.359  0.00  0.00    +0.000 N 
ATOM      8  C   UNL     1       2.254   7.330  19.730  0.00  0.00    +0.000 C 
ATOM      9  O   UNL     1       2.593   6.505  20.576  0.00  0.00    +0.000 OA
ATOM     10  H   UNL     1       2.107   7.962  17.733  0.00  0.00    +0.000 HD
BRANCH   8  11
ATOM     11  C   UNL     1       1.416   8.451  20.250  0.00  0.00    +0.000 A 
ATOM     12  C   UNL     1       1.032   8.565  21.587  0.00  0.00    +0.000 A 
ATOM     13  C   UNL     1       0.322   9.697  22.017  0.00  0.00    +0.000 A 
ATOM     14  C   UNL     1      -0.011  10.725  21.122  0.00  0.00    +0.000 A 
ATOM     15  C   UNL     1      -0.770  11.939  21.575  0.00  0.00    +0.000 C 
ATOM     16  C   UNL     1       0.391  10.618  19.789  0.00  0.00    +0.000 A 
ATOM     17  C   UNL     1       1.097   9.493  19.358  0.00  0.00    +0.000 A 
ENDBRANCH   8  11
ENDBRANCH   2   7
BRANCH   1  18
ATOM     18  C   UNL     1       1.685   4.261  18.010  0.00  0.00    +0.000 C 
ATOM     19  O   UNL     1       0.742   4.135  17.240  0.00  0.00    +0.000 OA
BRANCH  18  21
ATOM     20  C   UNL     1       1.249   2.533  19.664  0.00  0.00    +0.000 C 
ATOM     21  O   UNL     1       1.706   3.836  19.300  0.00  0.00    +0.000 OA
ENDBRANCH  18  21
ENDBRANCH   1  18
BRANCH   4  22
ATOM     22  C   UNL     1       6.568   4.746  16.259  0.00  0.00    +0.000 C 
BRANCH  22  23
ATOM     23  C   UNL     1       6.704   4.602  14.760  0.00  0.00    +0.000 A 
ATOM     24  C   UNL     1       7.654   5.363  14.062  0.00  0.00    +0.000 A 
ATOM     25  C   UNL     1       7.835   5.188  12.689  0.00  0.00    +0.000 A 
ATOM     26  C   UNL     1       7.063   4.259  11.995  0.00  0.00    +0.000 A 
ATOM     27  C   UNL     1       6.100   3.513  12.672  0.00  0.00    +0.000 A 
ATOM     28  C   UNL     1       5.919   3.685  14.046  0.00  0.00    +0.000 A 
ENDBRANCH  22  23
ENDBRANCH   4  22
TORSDOF 6
ENDMDL
MODEL 7
REMARK VINA RESULT:      -8.2      0.693      1.085
REMARK  Name = 
REMARK  9 active torsions:
REMARK  status: ('A' for Active; 'I' for Inactive)
REMARK    1  A    between atoms: C_1  and  O_2
REMARK    2  A    between atoms: O_2  and  C_3
REMARK    3  A    between atoms: C_3  and  C_5
REMARK    4  A    between atoms: C_6  and  N_7
REMARK    5  A    between atoms: C_8  and  C_10
REMARK    6  A    between atoms: C_13  and  C_14
REMARK    7  A    between atoms: C_18  and  C_19
REMARK    8  A    between atoms: C_19  and  C_20
REMARK    9  A    between atoms: C_26  and  C_27
REMARK                            x       y       z     vdW  Elec       q    Type
REMARK                         _______ _______ _______ _____ _____    ______ ____
ROOT
ATOM      1  C   UNL     1       2.511   4.263  19.418  0.00  0.00    +0.000 A 
ATOM      2  C   UNL     1       2.738   5.619  19.670  0.00  0.00    +0.000 A 
ATOM      3  S   UNL     1       4.162   6.152  18.901  0.00  0.00    +0.000 S 
ATOM      4  C   UNL     1       4.714   4.581  18.591  0.00  0.00    +0.000 A 
ATOM      5  C   UNL     1       3.743   3.639  18.895  0.00  0.00    +0.000 A 
ATOM      6  C   UNL     1       3.957   2.160  18.753  0.00  0.00    +0.000 C 
ENDROOT
BRANCH   2   7
ATOM      7  N   UNL     1       1.965   6.560  20.368  0.00  0.00    +0.000 N 
ATOM      8  C   UNL     1       1.636   7.826  19.863  0.00  0.00    +0.000 C 
ATOM      9  O   UNL     1       1.941   8.281  18.762  0.00  0.00    +0.000 OA
ATOM     10  H   UNL     1       1.765   6.338  21.338  0.00  0.00    +0.000 HD
BRANCH   8  11
ATOM     11  C   UNL     1       0.870   8.763  20.736  0.00  0.00    +0.000 A 
ATOM     12  C   UNL     1       0.934   8.738  22.130  0.00  0.00    +0.000 A 
ATOM     13  C   UNL     1       0.256   9.712  22.880  0.00  0.00    +0.000 A 
ATOM     14  C   UNL     1      -0.488  10.721  22.251  0.00  0.00    +0.000 A 
ATOM     15  C   UNL     1      -1.215  11.766  23.046  0.00  0.00    +0.000 C 
ATOM     16  C   UNL     1      -0.536  10.756  20.856  0.00  0.00    +0.000 A 
ATOM     17  C   UNL     1       0.137   9.788  20.107  0.00  0.00    +0.000 A 
ENDBRANCH   8  11
ENDBRANCH   2   7
BRANCH   1  18
ATOM     18  C   UNL     1       1.255   3.538  19.730  0.00  0.00    +0.000 C 
ATOM     19  O   UNL     1       0.526   3.067  18.867  0.00  0.00    +0.000 OA
BRANCH  18  21
ATOM     20  C   UNL     1       1.944   2.772  21.931  0.00  0.00    +0.000 C 
ATOM     21  O   UNL     1       1.037   3.458  21.069  0.00  0.00    +0.000 OA
ENDBRANCH  18  21
ENDBRANCH   1  18
BRANCH   4  22
ATOM     22  C   UNL     1       6.129   4.404  18.109  0.00  0.00    +0.000 C 
BRANCH  22  23
ATOM     23  C   UNL     1       6.291   4.416  16.606  0.00  0.00    +0.000 A 
ATOM     24  C   UNL     1       5.284   3.889  15.784  0.00  0.00    +0.000 A 
ATOM     25  C   UNL     1       5.393   3.957  14.394  0.00  0.00    +0.000 A 
ATOM     26  C   UNL     1       6.513   4.543  13.809  0.00  0.00    +0.000 A 
ATOM     27  C   UNL     1       7.531   5.050  14.613  0.00  0.00    +0.000 A 
ATOM     28  C   UNL     1       7.423   4.985  16.004  0.00  0.00    +0.000 A 
ENDBRANCH  22  23
ENDBRANCH   4  22
TORSDOF 6
ENDMDL
MODEL 8
REMARK VINA RESULT:      -8.1      4.614      7.431
REMARK  Name = 
REMARK  9 active torsions:
REMARK  status: ('A' for Active; 'I' for Inactive)
REMARK    1  A    between atoms: C_1  and  O_2
REMARK    2  A    between atoms: O_2  and  C_3
REMARK    3  A    between atoms: C_3  and  C_5
REMARK    4  A    between atoms: C_6  and  N_7
REMARK    5  A    between atoms: C_8  and  C_10
REMARK    6  A    between atoms: C_13  and  C_14
REMARK    7  A    between atoms: C_18  and  C_19
REMARK    8  A    between atoms: C_19  and  C_20
REMARK    9  A    between atoms: C_26  and  C_27
REMARK                            x       y       z     vdW  Elec       q    Type
REMARK                         _______ _______ _______ _____ _____    ______ ____
ROOT
ATOM      1  C   UNL     1       6.055   5.479  16.816  0.00  0.00    +0.000 A 
ATOM      2  C   UNL     1       5.742   6.746  17.316  0.00  0.00    +0.000 A 
ATOM      3  S   UNL     1       4.196   6.754  18.033  0.00  0.00    +0.000 S 
ATOM      4  C   UNL     1       3.751   5.270  17.350  0.00  0.00    +0.000 A 
ATOM      5  C   UNL     1       4.829   4.660  16.727  0.00  0.00    +0.000 A 
ATOM      6  C   UNL     1       4.731   3.348  16.005  0.00  0.00    +0.000 C 
ENDROOT
BRANCH   2   7
ATOM      7  N   UNL     1       6.506   7.923  17.368  0.00  0.00    +0.000 N 
ATOM      8  C   UNL     1       7.694   8.047  18.103  0.00  0.00    +0.000 C 
ATOM      9  O   UNL     1       8.241   7.172  18.771  0.00  0.00    +0.000 OA
ATOM     10  H   UNL     1       6.081   8.746  16.954  0.00  0.00    +0.000 HD
BRANCH   8  11
ATOM     11  C   UNL     1       8.373   9.376  18.136  0.00  0.00    +0.000 A 
ATOM     12  C   UNL     1       7.996  10.450  17.328  0.00  0.00    +0.000 A 
ATOM     13  C   UNL     1       8.624  11.697  17.483  0.00  0.00    +0.000 A 
ATOM     14  C   UNL     1       9.629  11.886  18.444  0.00  0.00    +0.000 A 
ATOM     15  C   UNL     1      10.304  13.216  18.616  0.00  0.00    +0.000 C 
ATOM     16  C   UNL     1       9.990  10.816  19.264  0.00  0.00    +0.000 A 
ATOM     17  C   UNL     1       9.369   9.574  19.111  0.00  0.00    +0.000 A 
ENDBRANCH   8  11
ENDBRANCH   2   7
BRANCH   1  18
ATOM     18  C   UNL     1       7.398   5.057  16.348  0.00  0.00    +0.000 C 
ATOM     19  O   UNL     1       8.103   4.271  16.966  0.00  0.00    +0.000 OA
BRANCH  18  21
ATOM     20  C   UNL     1       7.307   5.071  13.919  0.00  0.00    +0.000 C 
ATOM     21  O   UNL     1       7.723   5.635  15.162  0.00  0.00    +0.000 OA
ENDBRANCH  18  21
ENDBRANCH   1  18
BRANCH   4  22
ATOM     22  C   UNL     1       2.310   4.844  17.443  0.00  0.00    +0.000 C 
BRANCH  22  23
ATOM     23  C   UNL     1       1.971   4.021  18.666  0.00  0.00    +0.000 A 
ATOM     24  C   UNL     1       2.028   2.621  18.611  0.00  0.00    +0.000 A 
ATOM     25  C   UNL     1       1.784   1.854  19.752  0.00  0.00    +0.000 A 
ATOM     26  C   UNL     1       1.471   2.476  20.958  0.00  0.00    +0.000 A 
ATOM     27  C   UNL     1       1.390   3.866  21.021  0.00  0.00    +0.000 A 
ATOM     28  C   UNL     1       1.636   4.635  19.882  0.00  0.00    +0.000 A 
ENDBRANCH  22  23
ENDBRANCH   4  22
TORSDOF 6
ENDMDL
MODEL 9
REMARK VINA RESULT:      -8.1      1.587      2.057
REMARK  Name = 
REMARK  9 active torsions:
REMARK  status: ('A' for Active; 'I' for Inactive)
REMARK    1  A    between atoms: C_1  and  O_2
REMARK    2  A    between atoms: O_2  and  C_3
REMARK    3  A    between atoms: C_3  and  C_5
REMARK    4  A    between atoms: C_6  and  N_7
REMARK    5  A    between atoms: C_8  and  C_10
REMARK    6  A    between atoms: C_13  and  C_14
REMARK    7  A    between atoms: C_18  and  C_19
REMARK    8  A    between atoms: C_19  and  C_20
REMARK    9  A    between atoms: C_26  and  C_27
REMARK                            x       y       z     vdW  Elec       q    Type
REMARK                         _______ _______ _______ _____ _____    ______ ____
ROOT
ATOM      1  C   UNL     1       2.792   4.706  18.263  0.00  0.00    +0.000 A 
ATOM      2  C   UNL     1       3.110   6.059  18.413  0.00  0.00    +0.000 A 
ATOM      3  S   UNL     1       4.558   6.438  17.598  0.00  0.00    +0.000 S 
ATOM      4  C   UNL     1       5.001   4.816  17.401  0.00  0.00    +0.000 A 
ATOM      5  C   UNL     1       3.974   3.964  17.779  0.00  0.00    +0.000 A 
ATOM      6  C   UNL     1       4.088   2.469  17.744  0.00  0.00    +0.000 C 
ENDROOT
BRANCH   2   7
ATOM      7  N   UNL     1       2.409   7.098  19.045  0.00  0.00    +0.000 N 
ATOM      8  C   UNL     1       2.059   8.299  18.412  0.00  0.00    +0.000 C 
ATOM      9  O   UNL     1       2.283   8.606  17.242  0.00  0.00    +0.000 OA
ATOM     10  H   UNL     1       2.282   7.001  20.047  0.00  0.00    +0.000 HD
BRANCH   8  11
ATOM     11  C   UNL     1       1.378   9.355  19.218  0.00  0.00    +0.000 A 
ATOM     12  C   UNL     1       0.949   9.160  20.531  0.00  0.00    +0.000 A 
ATOM     13  C   UNL     1       0.401  10.231  21.255  0.00  0.00    +0.000 A 
ATOM     14  C   UNL     1       0.277  11.505  20.679  0.00  0.00    +0.000 A 
ATOM     15  C   UNL     1      -0.308  12.655  21.447  0.00  0.00    +0.000 C 
ATOM     16  C   UNL     1       0.725  11.703  19.372  0.00  0.00    +0.000 A 
ATOM     17  C   UNL     1       1.270  10.639  18.649  0.00  0.00    +0.000 A 
ENDBRANCH   8  11
ENDBRANCH   2   7
BRANCH   1  18
ATOM     18  C   UNL     1       1.493   4.091  18.634  0.00  0.00    +0.000 C 
ATOM     19  O   UNL     1       0.846   3.388  17.870  0.00  0.00    +0.000 OA
BRANCH  18  21
ATOM     20  C   UNL     1       1.692   3.695  21.025  0.00  0.00    +0.000 C 
ATOM     21  O   UNL     1       1.138   4.394  19.910  0.00  0.00    +0.000 OA
ENDBRANCH  18  21
ENDBRANCH   1  18
BRANCH   4  22
ATOM     22  C   UNL     1       6.396   4.510  16.924  0.00  0.00    +0.000 C 
BRANCH  22  23
ATOM     23  C   UNL     1       6.547   4.425  15.422  0.00  0.00    +0.000 A 
ATOM     24  C   UNL     1       5.665   3.636  14.668  0.00  0.00    +0.000 A 
ATOM     25  C   UNL     1       5.752   3.604  13.275  0.00  0.00    +0.000 A 
ATOM     26  C   UNL     1       6.727   4.352  12.620  0.00  0.00    +0.000 A 
ATOM     27  C   UNL     1       7.624   5.123  13.357  0.00  0.00    +0.000 A 
ATOM     28  C   UNL     1       7.536   5.158  14.750  0.00  0.00    +0.000 A 
ENDBRANCH  22  23
ENDBRANCH   4  22
TORSDOF 6
ENDMDL
