MODEL 1
REMARK VINA RESULT:      -6.0      0.000      0.000
REMARK  Name = 
REMARK  4 active torsions:
REMARK  status: ('A' for Active; 'I' for Inactive)
REMARK    1  A    between atoms: N_13  and  C_14
REMARK    2  A    between atoms: C_14  and  C_15
REMARK    3  A    between atoms: N_22  and  C_23
REMARK    4  A    between atoms: C_23  and  C_24
REMARK                            x       y       z     vdW  Elec       q    Type
REMARK                         _______ _______ _______ _____ _____    ______ ____
ROOT
ATOM      1  O   UNL     1       1.099   9.195  22.840  0.00  0.00    +0.000 OA
ATOM      2  S   UNL     1       0.054   9.072  21.844  0.00  0.00    +0.000 S 
ATOM      3  O   UNL     1      -0.935   8.023  21.849  0.00  0.00    +0.000 OA
ATOM      4  C   UNL     1       0.855   9.069  20.305  0.00  0.00    +0.000 A 
ATOM      5  C   UNL     1       1.727   8.069  19.897  0.00  0.00    +0.000 A 
ATOM      6  C   UNL     1       2.394   8.245  18.691  0.00  0.00    +0.000 A 
ATOM      7  C   UNL     1       2.160   9.394  17.929  0.00  0.00    +0.000 A 
ATOM      8  C   UNL     1       1.257  10.375  18.367  0.00  0.00    +0.000 A 
ATOM      9  C   UNL     1       0.603  10.228  19.588  0.00  0.00    +0.000 A 
ATOM     10  C   UNL     1      -0.352  11.202  20.285  0.00  0.00    +0.000 C 
ATOM     11  C   UNL     1      -1.622  11.391  19.433  0.00  0.00    +0.000 C 
ATOM     12  C   UNL     1      -1.875  12.894  19.408  0.00  0.00    +0.000 C 
ATOM     13  N   UNL     1      -0.566  13.543  19.522  0.00  0.00    +0.000 NA
ATOM     14  C   UNL     1       0.246  12.636  20.361  0.00  0.00    +0.000 C 
ATOM     15  N   UNL     1      -0.737  10.577  21.646  0.00  0.00    +0.000 NA
ENDROOT
BRANCH  13  16
ATOM     16  C   UNL     1       0.033  13.902  18.230  0.00  0.00    +0.000 C 
BRANCH  16  17
ATOM     17  C   UNL     1       1.409  14.505  18.383  0.00  0.00    +0.000 A 
ATOM     18  C   UNL     1       2.575  13.798  18.070  0.00  0.00    +0.000 A 
ATOM     19  C   UNL     1       3.819  14.347  18.367  0.00  0.00    +0.000 A 
ATOM     20  C   UNL     1       3.860  15.606  18.943  0.00  0.00    +0.000 A 
ATOM     21  N   UNL     1       2.763  16.340  19.217  0.00  0.00    +0.000 NA
ATOM     22  C   UNL     1       1.567  15.776  18.934  0.00  0.00    +0.000 A 
ENDBRANCH  16  17
ENDBRANCH  13  16
BRANCH  15  23
ATOM     23  C   UNL     1      -0.745  11.455  22.845  0.00  0.00    +0.000 C 
BRANCH  23  24
ATOM     24  C   UNL     1      -2.111  11.791  23.397  0.00  0.00    +0.000 C 
ATOM     25  C   UNL     1      -2.453  13.257  23.556  0.00  0.00    +0.000 C 
ATOM     26  C   UNL     1      -3.211  12.412  22.574  0.00  0.00    +0.000 C 
ENDBRANCH  23  24
ENDBRANCH  15  23
TORSDOF 4
ENDMDL
MODEL 2
REMARK VINA RESULT:      -5.8      2.627      6.193
REMARK  Name = 
REMARK  4 active torsions:
REMARK  status: ('A' for Active; 'I' for Inactive)
REMARK    1  A    between atoms: N_13  and  C_14
REMARK    2  A    between atoms: C_14  and  C_15
REMARK    3  A    between atoms: N_22  and  C_23
REMARK    4  A    between atoms: C_23  and  C_24
REMARK                            x       y       z     vdW  Elec       q    Type
REMARK                         _______ _______ _______ _____ _____    ______ ____
ROOT
ATOM      1  O   UNL     1      -0.519  11.063  18.289  0.00  0.00    +0.000 OA
ATOM      2  S   UNL     1       0.448  11.562  19.245  0.00  0.00    +0.000 S 
ATOM      3  O   UNL     1       1.871  11.569  19.015  0.00  0.00    +0.000 OA
ATOM      4  C   UNL     1       0.133  10.723  20.731  0.00  0.00    +0.000 A 
ATOM      5  C   UNL     1       0.293   9.353  20.885  0.00  0.00    +0.000 A 
ATOM      6  C   UNL     1      -0.107   8.787  22.089  0.00  0.00    +0.000 A 
ATOM      7  C   UNL     1      -0.633   9.599  23.098  0.00  0.00    +0.000 A 
ATOM      8  C   UNL     1      -0.763  10.984  22.911  0.00  0.00    +0.000 A 
ATOM      9  C   UNL     1      -0.395  11.564  21.698  0.00  0.00    +0.000 A 
ATOM     10  C   UNL     1      -0.525  13.025  21.258  0.00  0.00    +0.000 C 
ATOM     11  C   UNL     1       0.357  13.921  22.149  0.00  0.00    +0.000 C 
ATOM     12  C   UNL     1      -0.519  15.111  22.522  0.00  0.00    +0.000 C 
ATOM     13  N   UNL     1      -1.902  14.626  22.541  0.00  0.00    +0.000 NA
ATOM     14  C   UNL     1      -1.959  13.573  21.504  0.00  0.00    +0.000 C 
ATOM     15  N   UNL     1      -0.029  13.112  19.795  0.00  0.00    +0.000 NA
ENDROOT
BRANCH  13  16
ATOM     16  C   UNL     1      -2.370  14.218  23.871  0.00  0.00    +0.000 C 
BRANCH  16  17
ATOM     17  C   UNL     1      -3.802  13.737  23.855  0.00  0.00    +0.000 A 
ATOM     18  C   UNL     1      -4.852  14.534  23.385  0.00  0.00    +0.000 A 
ATOM     19  C   UNL     1      -6.168  14.100  23.529  0.00  0.00    +0.000 A 
ATOM     20  C   UNL     1      -6.391  12.864  24.113  0.00  0.00    +0.000 A 
ATOM     21  N   UNL     1      -5.405  12.047  24.535  0.00  0.00    +0.000 NA
ATOM     22  C   UNL     1      -4.139  12.499  24.400  0.00  0.00    +0.000 A 
ENDBRANCH  16  17
ENDBRANCH  13  16
BRANCH  15  23
ATOM     23  C   UNL     1      -0.826  13.912  18.830  0.00  0.00    +0.000 C 
BRANCH  23  24
ATOM     24  C   UNL     1      -0.198  15.214  18.387  0.00  0.00    +0.000 C 
ATOM     25  C   UNL     1      -0.642  16.475  19.096  0.00  0.00    +0.000 C 
ATOM     26  C   UNL     1       0.775  15.998  19.232  0.00  0.00    +0.000 C 
ENDBRANCH  23  24
ENDBRANCH  15  23
TORSDOF 4
ENDMDL
MODEL 3
REMARK VINA RESULT:      -5.8      4.450      6.347
REMARK  Name = 
REMARK  4 active torsions:
REMARK  status: ('A' for Active; 'I' for Inactive)
REMARK    1  A    between atoms: N_13  and  C_14
REMARK    2  A    between atoms: C_14  and  C_15
REMARK    3  A    between atoms: N_22  and  C_23
REMARK    4  A    between atoms: C_23  and  C_24
REMARK                            x       y       z     vdW  Elec       q    Type
REMARK                         _______ _______ _______ _____ _____    ______ ____
ROOT
ATOM      1  O   UNL     1      -7.541  11.021  20.241  0.00  0.00    +0.000 OA
ATOM      2  S   UNL     1      -7.042  12.312  19.814  0.00  0.00    +0.000 S 
ATOM      3  O   UNL     1      -7.843  13.291  19.124  0.00  0.00    +0.000 OA
ATOM      4  C   UNL     1      -5.626  11.990  18.865  0.00  0.00    +0.000 A 
ATOM      5  C   UNL     1      -5.652  11.305  17.658  0.00  0.00    +0.000 A 
ATOM      6  C   UNL     1      -4.436  11.010  17.055  0.00  0.00    +0.000 A 
ATOM      7  C   UNL     1      -3.243  11.416  17.661  0.00  0.00    +0.000 A 
ATOM      8  C   UNL     1      -3.258  12.122  18.874  0.00  0.00    +0.000 A 
ATOM      9  C   UNL     1      -4.467  12.401  19.507  0.00  0.00    +0.000 A 
ATOM     10  C   UNL     1      -4.706  13.081  20.858  0.00  0.00    +0.000 C 
ATOM     11  C   UNL     1      -4.201  14.536  20.808  0.00  0.00    +0.000 C 
ATOM     12  C   UNL     1      -3.411  14.737  22.096  0.00  0.00    +0.000 C 
ATOM     13  N   UNL     1      -2.853  13.431  22.455  0.00  0.00    +0.000 NA
ATOM     14  C   UNL     1      -3.845  12.441  21.983  0.00  0.00    +0.000 C 
ATOM     15  N   UNL     1      -6.231  13.078  21.113  0.00  0.00    +0.000 NA
ENDROOT
BRANCH  13  16
ATOM     16  C   UNL     1      -1.482  13.218  21.973  0.00  0.00    +0.000 C 
BRANCH  16  17
ATOM     17  C   UNL     1      -1.090  11.759  21.979  0.00  0.00    +0.000 A 
ATOM     18  C   UNL     1      -1.072  10.994  23.150  0.00  0.00    +0.000 A 
ATOM     19  C   UNL     1      -0.563   9.698  23.122  0.00  0.00    +0.000 A 
ATOM     20  C   UNL     1      -0.114   9.195  21.913  0.00  0.00    +0.000 A 
ATOM     21  N   UNL     1      -0.157   9.883  20.754  0.00  0.00    +0.000 NA
ATOM     22  C   UNL     1      -0.640  11.144  20.812  0.00  0.00    +0.000 A 
ENDBRANCH  16  17
ENDBRANCH  13  16
BRANCH  15  23
ATOM     23  C   UNL     1      -6.715  12.711  22.470  0.00  0.00    +0.000 C 
BRANCH  23  24
ATOM     24  C   UNL     1      -7.585  13.741  23.152  0.00  0.00    +0.000 C 
ATOM     25  C   UNL     1      -6.885  14.873  23.871  0.00  0.00    +0.000 C 
ATOM     26  C   UNL     1      -7.731  15.161  22.665  0.00  0.00    +0.000 C 
ENDBRANCH  23  24
ENDBRANCH  15  23
TORSDOF 4
ENDMDL
MODEL 4
REMARK VINA RESULT:      -5.8      3.017      5.521
REMARK  Name = 
REMARK  4 active torsions:
REMARK  status: ('A' for Active; 'I' for Inactive)
REMARK    1  A    between atoms: N_13  and  C_14
REMARK    2  A    between atoms: C_14  and  C_15
REMARK    3  A    between atoms: N_22  and  C_23
REMARK    4  A    between atoms: C_23  and  C_24
REMARK                            x       y       z     vdW  Elec       q    Type
REMARK                         _______ _______ _______ _____ _____    ______ ____
ROOT
ATOM      1  O   UNL     1      -4.662  12.039  21.369  0.00  0.00    +0.000 OA
ATOM      2  S   UNL     1      -3.856  12.909  20.537  0.00  0.00    +0.000 S 
ATOM      3  O   UNL     1      -4.085  14.325  20.404  0.00  0.00    +0.000 OA
ATOM      4  C   UNL     1      -3.857  12.198  18.954  0.00  0.00    +0.000 A 
ATOM      5  C   UNL     1      -4.997  12.069  18.174  0.00  0.00    +0.000 A 
ATOM      6  C   UNL     1      -4.886  11.375  16.976  0.00  0.00    +0.000 A 
ATOM      7  C   UNL     1      -3.649  10.849  16.589  0.00  0.00    +0.000 A 
ATOM      8  C   UNL     1      -2.514  11.015  17.398  0.00  0.00    +0.000 A 
ATOM      9  C   UNL     1      -2.615  11.682  18.617  0.00  0.00    +0.000 A 
ATOM     10  C   UNL     1      -1.534  11.905  19.679  0.00  0.00    +0.000 C 
ATOM     11  C   UNL     1      -0.403  12.778  19.100  0.00  0.00    +0.000 C 
ATOM     12  C   UNL     1       0.893  12.091  19.514  0.00  0.00    +0.000 C 
ATOM     13  N   UNL     1       0.599  10.659  19.608  0.00  0.00    +0.000 NA
ATOM     14  C   UNL     1      -0.810  10.579  20.048  0.00  0.00    +0.000 C 
ATOM     15  N   UNL     1      -2.196  12.646  20.864  0.00  0.00    +0.000 NA
ENDROOT
BRANCH  13  16
ATOM     16  C   UNL     1       0.915   9.906  18.387  0.00  0.00    +0.000 C 
BRANCH  16  17
ATOM     17  C   UNL     1       1.751   8.680  18.667  0.00  0.00    +0.000 A 
ATOM     18  C   UNL     1       2.679   8.182  17.746  0.00  0.00    +0.000 A 
ATOM     19  C   UNL     1       3.315   6.967  17.992  0.00  0.00    +0.000 A 
ATOM     20  C   UNL     1       3.024   6.301  19.171  0.00  0.00    +0.000 A 
ATOM     21  N   UNL     1       2.171   6.770  20.104  0.00  0.00    +0.000 NA
ATOM     22  C   UNL     1       1.554   7.942  19.833  0.00  0.00    +0.000 A 
ENDBRANCH  16  17
ENDBRANCH  13  16
BRANCH  15  23
ATOM     23  C   UNL     1      -1.883  12.186  22.242  0.00  0.00    +0.000 C 
BRANCH  23  24
ATOM     24  C   UNL     1      -1.253  13.219  23.147  0.00  0.00    +0.000 C 
ATOM     25  C   UNL     1      -0.388  14.276  22.495  0.00  0.00    +0.000 C 
ATOM     26  C   UNL     1      -1.669  14.669  23.170  0.00  0.00    +0.000 C 
ENDBRANCH  23  24
ENDBRANCH  15  23
TORSDOF 4
ENDMDL
MODEL 5
REMARK VINA RESULT:      -5.8      6.386      9.777
REMARK  Name = 
REMARK  4 active torsions:
REMARK  status: ('A' for Active; 'I' for Inactive)
REMARK    1  A    between atoms: N_13  and  C_14
REMARK    2  A    between atoms: C_14  and  C_15
REMARK    3  A    between atoms: N_22  and  C_23
REMARK    4  A    between atoms: C_23  and  C_24
REMARK                            x       y       z     vdW  Elec       q    Type
REMARK                         _______ _______ _______ _____ _____    ______ ____
ROOT
ATOM      1  O   UNL     1       0.708   4.479  19.790  0.00  0.00    +0.000 OA
ATOM      2  S   UNL     1       2.006   4.942  20.235  0.00  0.00    +0.000 S 
ATOM      3  O   UNL     1       2.366   5.105  21.621  0.00  0.00    +0.000 OA
ATOM      4  C   UNL     1       2.290   6.443  19.411  0.00  0.00    +0.000 A 
ATOM      5  C   UNL     1       1.522   7.582  19.608  0.00  0.00    +0.000 A 
ATOM      6  C   UNL     1       1.777   8.682  18.800  0.00  0.00    +0.000 A 
ATOM      7  C   UNL     1       2.792   8.619  17.840  0.00  0.00    +0.000 A 
ATOM      8  C   UNL     1       3.559   7.454  17.682  0.00  0.00    +0.000 A 
ATOM      9  C   UNL     1       3.296   6.331  18.464  0.00  0.00    +0.000 A 
ATOM     10  C   UNL     1       3.951   4.948  18.403  0.00  0.00    +0.000 C 
ATOM     11  C   UNL     1       5.445   5.059  18.763  0.00  0.00    +0.000 C 
ATOM     12  C   UNL     1       6.179   4.233  17.714  0.00  0.00    +0.000 C 
ATOM     13  N   UNL     1       5.373   4.294  16.492  0.00  0.00    +0.000 NA
ATOM     14  C   UNL     1       3.972   4.386  16.953  0.00  0.00    +0.000 C 
ATOM     15  N   UNL     1       3.239   4.054  19.445  0.00  0.00    +0.000 NA
ENDROOT
BRANCH  13  16
ATOM     16  C   UNL     1       5.793   5.345  15.556  0.00  0.00    +0.000 C 
BRANCH  16  17
ATOM     17  C   UNL     1       6.124   4.798  14.187  0.00  0.00    +0.000 A 
ATOM     18  C   UNL     1       5.312   3.861  13.540  0.00  0.00    +0.000 A 
ATOM     19  C   UNL     1       5.739   3.281  12.348  0.00  0.00    +0.000 A 
ATOM     20  C   UNL     1       6.957   3.680  11.823  0.00  0.00    +0.000 A 
ATOM     21  N   UNL     1       7.747   4.613  12.391  0.00  0.00    +0.000 NA
ATOM     22  C   UNL     1       7.317   5.148  13.556  0.00  0.00    +0.000 A 
ENDBRANCH  16  17
ENDBRANCH  13  16
BRANCH  15  23
ATOM     23  C   UNL     1       2.872   2.670  19.048  0.00  0.00    +0.000 C 
BRANCH  23  24
ATOM     24  C   UNL     1       3.515   1.568  19.858  0.00  0.00    +0.000 C 
ATOM     25  C   UNL     1       4.802   0.977  19.326  0.00  0.00    +0.000 C 
ATOM     26  C   UNL     1       4.806   1.739  20.619  0.00  0.00    +0.000 C 
ENDBRANCH  23  24
ENDBRANCH  15  23
TORSDOF 4
ENDMDL
MODEL 6
REMARK VINA RESULT:      -5.8      7.781      9.768
REMARK  Name = 
REMARK  4 active torsions:
REMARK  status: ('A' for Active; 'I' for Inactive)
REMARK    1  A    between atoms: N_13  and  C_14
REMARK    2  A    between atoms: C_14  and  C_15
REMARK    3  A    between atoms: N_22  and  C_23
REMARK    4  A    between atoms: C_23  and  C_24
REMARK                            x       y       z     vdW  Elec       q    Type
REMARK                         _______ _______ _______ _____ _____    ______ ____
ROOT
ATOM      1  O   UNL     1       7.112  14.598  17.732  0.00  0.00    +0.000 OA
ATOM      2  S   UNL     1       8.411  14.775  18.348  0.00  0.00    +0.000 S 
ATOM      3  O   UNL     1       9.486  15.524  17.748  0.00  0.00    +0.000 OA
ATOM      4  C   UNL     1       8.988  13.181  18.719  0.00  0.00    +0.000 A 
ATOM      5  C   UNL     1       9.282  12.229  17.753  0.00  0.00    +0.000 A 
ATOM      6  C   UNL     1       9.623  10.954  18.184  0.00  0.00    +0.000 A 
ATOM      7  C   UNL     1       9.674  10.673  19.553  0.00  0.00    +0.000 A 
ATOM      8  C   UNL     1       9.386  11.668  20.501  0.00  0.00    +0.000 A 
ATOM      9  C   UNL     1       9.014  12.944  20.085  0.00  0.00    +0.000 A 
ATOM     10  C   UNL     1       8.586  14.142  20.938  0.00  0.00    +0.000 C 
ATOM     11  C   UNL     1       9.756  14.591  21.836  0.00  0.00    +0.000 C 
ATOM     12  C   UNL     1       9.151  14.798  23.219  0.00  0.00    +0.000 C 
ATOM     13  N   UNL     1       8.023  13.869  23.329  0.00  0.00    +0.000 NA
ATOM     14  C   UNL     1       7.479  13.754  21.959  0.00  0.00    +0.000 C 
ATOM     15  N   UNL     1       8.216  15.290  19.970  0.00  0.00    +0.000 NA
ENDROOT
BRANCH  13  16
ATOM     16  C   UNL     1       8.364  12.595  23.973  0.00  0.00    +0.000 C 
BRANCH  16  17
ATOM     17  C   UNL     1       7.288  12.123  24.922  0.00  0.00    +0.000 A 
ATOM     18  C   UNL     1       7.411  12.241  26.311  0.00  0.00    +0.000 A 
ATOM     19  C   UNL     1       6.457  11.658  27.142  0.00  0.00    +0.000 A 
ATOM     20  C   UNL     1       5.389  11.000  26.555  0.00  0.00    +0.000 A 
ATOM     21  N   UNL     1       5.210  10.905  25.222  0.00  0.00    +0.000 NA
ATOM     22  C   UNL     1       6.159  11.464  24.438  0.00  0.00    +0.000 A 
ENDBRANCH  16  17
ENDBRANCH  13  16
BRANCH  15  23
ATOM     23  C   UNL     1       6.982  16.071  20.246  0.00  0.00    +0.000 C 
BRANCH  23  24
ATOM     24  C   UNL     1       7.188  17.375  20.982  0.00  0.00    +0.000 C 
ATOM     25  C   UNL     1       6.042  18.363  20.974  0.00  0.00    +0.000 C 
ATOM     26  C   UNL     1       6.475  17.729  22.263  0.00  0.00    +0.000 C 
ENDBRANCH  23  24
ENDBRANCH  15  23
TORSDOF 4
ENDMDL
MODEL 7
REMARK VINA RESULT:      -5.7      3.175      5.422
REMARK  Name = 
REMARK  4 active torsions:
REMARK  status: ('A' for Active; 'I' for Inactive)
REMARK    1  A    between atoms: N_13  and  C_14
REMARK    2  A    between atoms: C_14  and  C_15
REMARK    3  A    between atoms: N_22  and  C_23
REMARK    4  A    between atoms: C_23  and  C_24
REMARK                            x       y       z     vdW  Elec       q    Type
REMARK                         _______ _______ _______ _____ _____    ______ ____
ROOT
ATOM      1  O   UNL     1      -5.538  11.503  20.600  0.00  0.00    +0.000 OA
ATOM      2  S   UNL     1      -4.795  12.607  20.028  0.00  0.00    +0.000 S 
ATOM      3  O   UNL     1      -5.337  13.932  19.856  0.00  0.00    +0.000 OA
ATOM      4  C   UNL     1      -4.206  12.048  18.495  0.00  0.00    +0.000 A 
ATOM      5  C   UNL     1      -5.034  11.710  17.434  0.00  0.00    +0.000 A 
ATOM      6  C   UNL     1      -4.443  11.163  16.301  0.00  0.00    +0.000 A 
ATOM      7  C   UNL     1      -3.056  10.987  16.257  0.00  0.00    +0.000 A 
ATOM      8  C   UNL     1      -2.250  11.358  17.344  0.00  0.00    +0.000 A 
ATOM      9  C   UNL     1      -2.830  11.880  18.499  0.00  0.00    +0.000 A 
ATOM     10  C   UNL     1      -2.153  12.272  19.816  0.00  0.00    +0.000 C 
ATOM     11  C   UNL     1      -1.174  13.437  19.575  0.00  0.00    +0.000 C 
ATOM     12  C   UNL     1       0.103  13.056  20.314  0.00  0.00    +0.000 C 
ATOM     13  N   UNL     1       0.171  11.592  20.307  0.00  0.00    +0.000 NA
ATOM     14  C   UNL     1      -1.235  11.136  20.349  0.00  0.00    +0.000 C 
ATOM     15  N   UNL     1      -3.265  12.731  20.787  0.00  0.00    +0.000 NA
ENDROOT
BRANCH  13  16
ATOM     16  C   UNL     1       0.973  11.040  19.207  0.00  0.00    +0.000 C 
BRANCH  16  17
ATOM     17  C   UNL     1       1.309   9.583  19.415  0.00  0.00    +0.000 A 
ATOM     18  C   UNL     1       1.156   8.949  20.653  0.00  0.00    +0.000 A 
ATOM     19  C   UNL     1       1.619   7.647  20.826  0.00  0.00    +0.000 A 
ATOM     20  C   UNL     1       2.196   7.006  19.742  0.00  0.00    +0.000 A 
ATOM     21  N   UNL     1       2.320   7.564  18.521  0.00  0.00    +0.000 NA
ATOM     22  C   UNL     1       1.878   8.835  18.385  0.00  0.00    +0.000 A 
ENDBRANCH  16  17
ENDBRANCH  13  16
BRANCH  15  23
ATOM     23  C   UNL     1      -3.212  12.250  22.193  0.00  0.00    +0.000 C 
BRANCH  23  24
ATOM     24  C   UNL     1      -3.713  13.224  23.234  0.00  0.00    +0.000 C 
ATOM     25  C   UNL     1      -5.109  13.006  23.773  0.00  0.00    +0.000 C 
ATOM     26  C   UNL     1      -3.924  12.860  24.682  0.00  0.00    +0.000 C 
ENDBRANCH  23  24
ENDBRANCH  15  23
TORSDOF 4
ENDMDL
MODEL 8
REMARK VINA RESULT:      -5.6      2.998      5.579
REMARK  Name = 
REMARK  4 active torsions:
REMARK  status: ('A' for Active; 'I' for Inactive)
REMARK    1  A    between atoms: N_13  and  C_14
REMARK    2  A    between atoms: C_14  and  C_15
REMARK    3  A    between atoms: N_22  and  C_23
REMARK    4  A    between atoms: C_23  and  C_24
REMARK                            x       y       z     vdW  Elec       q    Type
REMARK                         _______ _______ _______ _____ _____    ______ ____
ROOT
ATOM      1  O   UNL     1      -3.652  13.035  22.273  0.00  0.00    +0.000 OA
ATOM      2  S   UNL     1      -3.249  13.664  21.032  0.00  0.00    +0.000 S 
ATOM      3  O   UNL     1      -3.644  14.995  20.643  0.00  0.00    +0.000 OA
ATOM      4  C   UNL     1      -3.695  12.564  19.767  0.00  0.00    +0.000 A 
ATOM      5  C   UNL     1      -5.009  12.225  19.476  0.00  0.00    +0.000 A 
ATOM      6  C   UNL     1      -5.227  11.242  18.518  0.00  0.00    +0.000 A 
ATOM      7  C   UNL     1      -4.138  10.645  17.876  0.00  0.00    +0.000 A 
ATOM      8  C   UNL     1      -2.824  11.027  18.185  0.00  0.00    +0.000 A 
ATOM      9  C   UNL     1      -2.587  11.989  19.165  0.00  0.00    +0.000 A 
ATOM     10  C   UNL     1      -1.246  12.492  19.708  0.00  0.00    +0.000 C 
ATOM     11  C   UNL     1      -0.455  13.193  18.586  0.00  0.00    +0.000 C 
ATOM     12  C   UNL     1       0.965  12.650  18.690  0.00  0.00    +0.000 C 
ATOM     13  N   UNL     1       0.858  11.289  19.223  0.00  0.00    +0.000 NA
ATOM     14  C   UNL     1      -0.317  11.315  20.121  0.00  0.00    +0.000 C 
ATOM     15  N   UNL     1      -1.555  13.511  20.829  0.00  0.00    +0.000 NA
ENDROOT
BRANCH  13  16
ATOM     16  C   UNL     1       0.830  10.246  18.190  0.00  0.00    +0.000 C 
BRANCH  16  17
ATOM     17  C   UNL     1       1.613   9.018  18.591  0.00  0.00    +0.000 A 
ATOM     18  C   UNL     1       2.464   8.351  17.704  0.00  0.00    +0.000 A 
ATOM     19  C   UNL     1       3.046   7.143  18.078  0.00  0.00    +0.000 A 
ATOM     20  C   UNL     1       2.782   6.652  19.346  0.00  0.00    +0.000 A 
ATOM     21  N   UNL     1       2.005   7.287  20.247  0.00  0.00    +0.000 NA
ATOM     22  C   UNL     1       1.439   8.450  19.852  0.00  0.00    +0.000 A 
ENDBRANCH  16  17
ENDBRANCH  13  16
BRANCH  15  23
ATOM     23  C   UNL     1      -0.769  13.431  22.088  0.00  0.00    +0.000 C 
BRANCH  23  24
ATOM     24  C   UNL     1       0.088  14.636  22.398  0.00  0.00    +0.000 C 
ATOM     25  C   UNL     1       1.479  14.671  21.804  0.00  0.00    +0.000 C 
ATOM     26  C   UNL     1       0.456  15.682  21.375  0.00  0.00    +0.000 C 
ENDBRANCH  23  24
ENDBRANCH  15  23
TORSDOF 4
ENDMDL
MODEL 9
REMARK VINA RESULT:      -5.6      4.641      6.942
REMARK  Name = 
REMARK  4 active torsions:
REMARK  status: ('A' for Active; 'I' for Inactive)
REMARK    1  A    between atoms: N_13  and  C_14
REMARK    2  A    between atoms: C_14  and  C_15
REMARK    3  A    between atoms: N_22  and  C_23
REMARK    4  A    between atoms: C_23  and  C_24
REMARK                            x       y       z     vdW  Elec       q    Type
REMARK                         _______ _______ _______ _____ _____    ______ ____
ROOT
ATOM      1  O   UNL     1       5.431   3.288  19.610  0.00  0.00    +0.000 OA
ATOM      2  S   UNL     1       4.393   3.330  18.601  0.00  0.00    +0.000 S 
ATOM      3  O   UNL     1       3.795   2.154  18.019  0.00  0.00    +0.000 OA
ATOM      4  C   UNL     1       5.004   4.329  17.322  0.00  0.00    +0.000 A 
ATOM      5  C   UNL     1       6.108   3.995  16.550  0.00  0.00    +0.000 A 
ATOM      6  C   UNL     1       6.568   4.936  15.637  0.00  0.00    +0.000 A 
ATOM      7  C   UNL     1       5.910   6.163  15.513  0.00  0.00    +0.000 A 
ATOM      8  C   UNL     1       4.786   6.458  16.299  0.00  0.00    +0.000 A 
ATOM      9  C   UNL     1       4.329   5.538  17.241  0.00  0.00    +0.000 A 
ATOM     10  C   UNL     1       3.184   5.685  18.246  0.00  0.00    +0.000 C 
ATOM     11  C   UNL     1       1.846   5.839  17.497  0.00  0.00    +0.000 C 
ATOM     12  C   UNL     1       1.124   6.992  18.184  0.00  0.00    +0.000 C 
ATOM     13  N   UNL     1       2.162   7.889  18.701  0.00  0.00    +0.000 NA
ATOM     14  C   UNL     1       3.296   7.008  19.055  0.00  0.00    +0.000 C 
ATOM     15  N   UNL     1       3.147   4.394  19.097  0.00  0.00    +0.000 NA
ENDROOT
BRANCH  13  16
ATOM     16  C   UNL     1       2.492   8.999  17.797  0.00  0.00    +0.000 C 
BRANCH  16  17
ATOM     17  C   UNL     1       1.808  10.286  18.194  0.00  0.00    +0.000 A 
ATOM     18  C   UNL     1       2.409  11.537  18.016  0.00  0.00    +0.000 A 
ATOM     19  C   UNL     1       1.799  12.678  18.533  0.00  0.00    +0.000 A 
ATOM     20  C   UNL     1       0.587  12.534  19.188  0.00  0.00    +0.000 A 
ATOM     21  N   UNL     1      -0.047  11.354  19.339  0.00  0.00    +0.000 NA
ATOM     22  C   UNL     1       0.575  10.260  18.843  0.00  0.00    +0.000 A 
ENDBRANCH  16  17
ENDBRANCH  13  16
BRANCH  15  23
ATOM     23  C   UNL     1       2.971   4.528  20.567  0.00  0.00    +0.000 C 
BRANCH  23  24
ATOM     24  C   UNL     1       1.651   4.035  21.112  0.00  0.00    +0.000 C 
ATOM     25  C   UNL     1       0.923   2.976  20.313  0.00  0.00    +0.000 C 
ATOM     26  C   UNL     1       1.449   2.652  21.681  0.00  0.00    +0.000 C 
ENDBRANCH  23  24
ENDBRANCH  15  23
TORSDOF 4
ENDMDL
