MODEL 1
REMARK VINA RESULT:      -5.9      0.000      0.000
REMARK  Name = 
REMARK  6 active torsions:
REMARK  status: ('A' for Active; 'I' for Inactive)
REMARK    1  A    between atoms: C_5  and  C_6
REMARK    2  A    between atoms: C_6  and  N_7
REMARK    3  A    between atoms: N_7  and  C_8
REMARK    4  A    between atoms: C_8  and  C_9
REMARK    5  A    between atoms: C_9  and  C_10
REMARK    6  A    between atoms: C_10  and  N_11
REMARK                            x       y       z     vdW  Elec       q    Type
REMARK                         _______ _______ _______ _____ _____    ______ ____
ROOT
ATOM      1  N   UNL     1       1.837   2.465  18.636  0.00  0.00    +0.000 NA
ATOM      2  H   UNL     1       1.174   1.778  18.280  0.00  0.00    +0.000 HD
ENDROOT
BRANCH   1   3
ATOM      3  C   UNL     1       3.195   2.013  18.335  0.00  0.00    +0.000 C 
BRANCH   3   8
ATOM      4 CL   UNL     1       6.910   6.742  17.647  0.00  0.00    +0.000 Cl
ATOM      5  C   UNL     1       5.836   5.398  17.794  0.00  0.00    +0.000 A 
ATOM      6  C   UNL     1       5.665   4.836  19.063  0.00  0.00    +0.000 A 
ATOM      7  C   UNL     1       4.812   3.744  19.244  0.00  0.00    +0.000 A 
ATOM      8  C   UNL     1       4.117   3.199  18.157  0.00  0.00    +0.000 A 
ATOM      9  C   UNL     1       4.289   3.775  16.886  0.00  0.00    +0.000 A 
ATOM     10  C   UNL     1       5.146   4.865  16.702  0.00  0.00    +0.000 A 
ATOM     11 CL   UNL     1       5.306   5.501  15.102  0.00  0.00    +0.000 Cl
ENDBRANCH   3   8
ENDBRANCH   1   3
BRANCH   1  12
ATOM     12  C   UNL     1       1.629   2.674  20.066  0.00  0.00    +0.000 C 
BRANCH  12  13
ATOM     13  C   UNL     1       0.982   4.043  20.277  0.00  0.00    +0.000 C 
BRANCH  13  14
ATOM     14  C   UNL     1       1.941   5.016  20.955  0.00  0.00    +0.000 C 
BRANCH  14  15
ATOM     15  N   UNL     1       1.973   6.302  20.289  0.00  0.00    +0.000 N 
ATOM     16  C   UNL     1       1.507   7.486  20.790  0.00  0.00    +0.000 A 
ATOM     17  C   UNL     1       1.740   8.406  19.795  0.00  0.00    +0.000 A 
ATOM     18  N   UNL     1       2.327   7.811  18.709  0.00  0.00    +0.000 NA
ATOM     19  C   UNL     1       2.455   6.545  19.034  0.00  0.00    +0.000 A 
ENDBRANCH  14  15
ENDBRANCH  13  14
ENDBRANCH  12  13
ENDBRANCH   1  12
TORSDOF 6
ENDMDL
MODEL 2
REMARK VINA RESULT:      -5.8      1.493      3.958
REMARK  Name = 
REMARK  6 active torsions:
REMARK  status: ('A' for Active; 'I' for Inactive)
REMARK    1  A    between atoms: C_5  and  C_6
REMARK    2  A    between atoms: C_6  and  N_7
REMARK    3  A    between atoms: N_7  and  C_8
REMARK    4  A    between atoms: C_8  and  C_9
REMARK    5  A    between atoms: C_9  and  C_10
REMARK    6  A    between atoms: C_10  and  N_11
REMARK                            x       y       z     vdW  Elec       q    Type
REMARK                         _______ _______ _______ _____ _____    ______ ____
ROOT
ATOM      1  N   UNL     1       2.591   6.593  20.164  0.00  0.00    +0.000 NA
ATOM      2  H   UNL     1       2.403   7.411  20.743  0.00  0.00    +0.000 HD
ENDROOT
BRANCH   1   3
ATOM      3  C   UNL     1       2.553   6.990  18.757  0.00  0.00    +0.000 C 
BRANCH   3   8
ATOM      4 CL   UNL     1       7.225   4.599  15.740  0.00  0.00    +0.000 Cl
ATOM      5  C   UNL     1       5.924   5.319  16.619  0.00  0.00    +0.000 A 
ATOM      6  C   UNL     1       4.701   4.641  16.643  0.00  0.00    +0.000 A 
ATOM      7  C   UNL     1       3.609   5.175  17.334  0.00  0.00    +0.000 A 
ATOM      8  C   UNL     1       3.727   6.395  18.010  0.00  0.00    +0.000 A 
ATOM      9  C   UNL     1       4.963   7.067  17.987  0.00  0.00    +0.000 A 
ATOM     10  C   UNL     1       6.055   6.536  17.293  0.00  0.00    +0.000 A 
ATOM     11 CL   UNL     1       7.531   7.435  17.307  0.00  0.00    +0.000 Cl
ENDBRANCH   3   8
ENDBRANCH   1   3
BRANCH   1  12
ATOM     12  C   UNL     1       1.636   5.531  20.464  0.00  0.00    +0.000 C 
BRANCH  12  13
ATOM     13  C   UNL     1       2.333   4.463  21.308  0.00  0.00    +0.000 C 
BRANCH  13  14
ATOM     14  C   UNL     1       1.761   3.075  21.036  0.00  0.00    +0.000 C 
BRANCH  14  15
ATOM     15  N   UNL     1       2.287   2.500  19.815  0.00  0.00    +0.000 N 
ATOM     16  C   UNL     1       3.552   2.017  19.626  0.00  0.00    +0.000 A 
ATOM     17  C   UNL     1       3.579   1.599  18.317  0.00  0.00    +0.000 A 
ATOM     18  N   UNL     1       2.369   1.820  17.710  0.00  0.00    +0.000 NA
ATOM     19  C   UNL     1       1.611   2.362  18.636  0.00  0.00    +0.000 A 
ENDBRANCH  14  15
ENDBRANCH  13  14
ENDBRANCH  12  13
ENDBRANCH   1  12
TORSDOF 6
ENDMDL
MODEL 3
REMARK VINA RESULT:      -5.8      3.323      5.490
REMARK  Name = 
REMARK  6 active torsions:
REMARK  status: ('A' for Active; 'I' for Inactive)
REMARK    1  A    between atoms: C_5  and  C_6
REMARK    2  A    between atoms: C_6  and  N_7
REMARK    3  A    between atoms: N_7  and  C_8
REMARK    4  A    between atoms: C_8  and  C_9
REMARK    5  A    between atoms: C_9  and  C_10
REMARK    6  A    between atoms: C_10  and  N_11
REMARK                            x       y       z     vdW  Elec       q    Type
REMARK                         _______ _______ _______ _____ _____    ______ ____
ROOT
ATOM      1  N   UNL     1       3.654   5.425  18.016  0.00  0.00    +0.000 NA
ATOM      2  H   UNL     1       4.519   4.886  18.015  0.00  0.00    +0.000 HD
ENDROOT
BRANCH   1   3
ATOM      3  C   UNL     1       3.444   5.981  19.353  0.00  0.00    +0.000 C 
BRANCH   3   8
ATOM      4 CL   UNL     1       0.064  10.991  19.003  0.00  0.00    +0.000 Cl
ATOM      5  C   UNL     1       1.015   9.556  19.152  0.00  0.00    +0.000 A 
ATOM      6  C   UNL     1       1.809   9.185  18.063  0.00  0.00    +0.000 A 
ATOM      7  C   UNL     1       2.597   8.032  18.123  0.00  0.00    +0.000 A 
ATOM      8  C   UNL     1       2.602   7.235  19.274  0.00  0.00    +0.000 A 
ATOM      9  C   UNL     1       1.805   7.620  20.368  0.00  0.00    +0.000 A 
ATOM     10  C   UNL     1       1.013   8.771  20.308  0.00  0.00    +0.000 A 
ATOM     11 CL   UNL     1       0.056   9.161  21.694  0.00  0.00    +0.000 Cl
ENDBRANCH   3   8
ENDBRANCH   1   3
BRANCH   1  12
ATOM     12  C   UNL     1       2.538   4.589  17.584  0.00  0.00    +0.000 C 
BRANCH  12  13
ATOM     13  C   UNL     1       3.028   3.149  17.434  0.00  0.00    +0.000 C 
BRANCH  13  14
ATOM     14  C   UNL     1       2.155   2.176  18.222  0.00  0.00    +0.000 C 
BRANCH  14  15
ATOM     15  N   UNL     1       2.144   2.481  19.638  0.00  0.00    +0.000 N 
ATOM     16  C   UNL     1       1.087   2.970  20.353  0.00  0.00    +0.000 A 
ATOM     17  C   UNL     1       1.562   3.110  21.636  0.00  0.00    +0.000 A 
ATOM     18  N   UNL     1       2.875   2.724  21.713  0.00  0.00    +0.000 NA
ATOM     19  C   UNL     1       3.199   2.350  20.496  0.00  0.00    +0.000 A 
ENDBRANCH  14  15
ENDBRANCH  13  14
ENDBRANCH  12  13
ENDBRANCH   1  12
TORSDOF 6
ENDMDL
MODEL 4
REMARK VINA RESULT:      -5.7      2.802      4.497
REMARK  Name = 
REMARK  6 active torsions:
REMARK  status: ('A' for Active; 'I' for Inactive)
REMARK    1  A    between atoms: C_5  and  C_6
REMARK    2  A    between atoms: C_6  and  N_7
REMARK    3  A    between atoms: N_7  and  C_8
REMARK    4  A    between atoms: C_8  and  C_9
REMARK    5  A    between atoms: C_9  and  C_10
REMARK    6  A    between atoms: C_10  and  N_11
REMARK                            x       y       z     vdW  Elec       q    Type
REMARK                         _______ _______ _______ _____ _____    ______ ____
ROOT
ATOM      1  N   UNL     1       5.122   3.493  18.408  0.00  0.00    +0.000 NA
ATOM      2  H   UNL     1       4.746   3.392  19.351  0.00  0.00    +0.000 HD
ENDROOT
BRANCH   1   3
ATOM      3  C   UNL     1       5.672   4.840  18.260  0.00  0.00    +0.000 C 
BRANCH   3   8
ATOM      4 CL   UNL     1       1.234   8.953  18.440  0.00  0.00    +0.000 Cl
ATOM      5  C   UNL     1       2.486   7.763  18.435  0.00  0.00    +0.000 A 
ATOM      6  C   UNL     1       3.392   7.775  17.370  0.00  0.00    +0.000 A 
ATOM      7  C   UNL     1       4.425   6.834  17.310  0.00  0.00    +0.000 A 
ATOM      8  C   UNL     1       4.564   5.869  18.315  0.00  0.00    +0.000 A 
ATOM      9  C   UNL     1       3.652   5.869  19.385  0.00  0.00    +0.000 A 
ATOM     10  C   UNL     1       2.616   6.807  19.446  0.00  0.00    +0.000 A 
ATOM     11 CL   UNL     1       1.535   6.725  20.792  0.00  0.00    +0.000 Cl
ENDBRANCH   3   8
ENDBRANCH   1   3
BRANCH   1  12
ATOM     12  C   UNL     1       4.087   3.207  17.419  0.00  0.00    +0.000 C 
BRANCH  12  13
ATOM     13  C   UNL     1       3.365   1.919  17.817  0.00  0.00    +0.000 C 
BRANCH  13  14
ATOM     14  C   UNL     1       1.960   2.204  18.340  0.00  0.00    +0.000 C 
BRANCH  14  15
ATOM     15  N   UNL     1       1.956   2.490  19.760  0.00  0.00    +0.000 N 
ATOM     16  C   UNL     1       0.918   3.015  20.477  0.00  0.00    +0.000 A 
ATOM     17  C   UNL     1       1.393   3.117  21.764  0.00  0.00    +0.000 A 
ATOM     18  N   UNL     1       2.688   2.675  21.841  0.00  0.00    +0.000 NA
ATOM     19  C   UNL     1       3.000   2.303  20.620  0.00  0.00    +0.000 A 
ENDBRANCH  14  15
ENDBRANCH  13  14
ENDBRANCH  12  13
ENDBRANCH   1  12
TORSDOF 6
ENDMDL
MODEL 5
REMARK VINA RESULT:      -5.7      3.730      5.956
REMARK  Name = 
REMARK  6 active torsions:
REMARK  status: ('A' for Active; 'I' for Inactive)
REMARK    1  A    between atoms: C_5  and  C_6
REMARK    2  A    between atoms: C_6  and  N_7
REMARK    3  A    between atoms: N_7  and  C_8
REMARK    4  A    between atoms: C_8  and  C_9
REMARK    5  A    between atoms: C_9  and  C_10
REMARK    6  A    between atoms: C_10  and  N_11
REMARK                            x       y       z     vdW  Elec       q    Type
REMARK                         _______ _______ _______ _____ _____    ______ ____
ROOT
ATOM      1  N   UNL     1       4.103   6.408  17.261  0.00  0.00    +0.000 NA
ATOM      2  H   UNL     1       4.457   7.213  16.744  0.00  0.00    +0.000 HD
ENDROOT
BRANCH   1   3
ATOM      3  C   UNL     1       2.880   6.797  17.962  0.00  0.00    +0.000 C 
BRANCH   3   8
ATOM      4 CL   UNL     1       1.158   2.459  21.817  0.00  0.00    +0.000 Cl
ATOM      5  C   UNL     1       1.636   3.666  20.678  0.00  0.00    +0.000 A 
ATOM      6  C   UNL     1       2.263   4.814  21.170  0.00  0.00    +0.000 A 
ATOM      7  C   UNL     1       2.669   5.828  20.297  0.00  0.00    +0.000 A 
ATOM      8  C   UNL     1       2.453   5.706  18.919  0.00  0.00    +0.000 A 
ATOM      9  C   UNL     1       1.827   4.545  18.432  0.00  0.00    +0.000 A 
ATOM     10  C   UNL     1       1.416   3.531  19.304  0.00  0.00    +0.000 A 
ATOM     11 CL   UNL     1       0.644   2.145  18.619  0.00  0.00    +0.000 Cl
ENDBRANCH   3   8
ENDBRANCH   1   3
BRANCH   1  12
ATOM     12  C   UNL     1       5.126   5.905  18.173  0.00  0.00    +0.000 C 
BRANCH  12  13
ATOM     13  C   UNL     1       5.554   4.510  17.714  0.00  0.00    +0.000 C 
BRANCH  13  14
ATOM     14  C   UNL     1       4.975   4.170  16.344  0.00  0.00    +0.000 C 
BRANCH  14  15
ATOM     15  N   UNL     1       5.914   4.438  15.274  0.00  0.00    +0.000 N 
ATOM     16  C   UNL     1       5.813   4.006  13.982  0.00  0.00    +0.000 A 
ATOM     17  C   UNL     1       6.937   4.494  13.357  0.00  0.00    +0.000 A 
ATOM     18  N   UNL     1       7.713   5.203  14.237  0.00  0.00    +0.000 NA
ATOM     19  C   UNL     1       7.072   5.153  15.383  0.00  0.00    +0.000 A 
ENDBRANCH  14  15
ENDBRANCH  13  14
ENDBRANCH  12  13
ENDBRANCH   1  12
TORSDOF 6
ENDMDL
MODEL 6
REMARK VINA RESULT:      -5.6      0.807      1.084
REMARK  Name = 
REMARK  6 active torsions:
REMARK  status: ('A' for Active; 'I' for Inactive)
REMARK    1  A    between atoms: C_5  and  C_6
REMARK    2  A    between atoms: C_6  and  N_7
REMARK    3  A    between atoms: N_7  and  C_8
REMARK    4  A    between atoms: C_8  and  C_9
REMARK    5  A    between atoms: C_9  and  C_10
REMARK    6  A    between atoms: C_10  and  N_11
REMARK                            x       y       z     vdW  Elec       q    Type
REMARK                         _______ _______ _______ _____ _____    ______ ____
ROOT
ATOM      1  N   UNL     1       1.935   3.304  18.481  0.00  0.00    +0.000 NA
ATOM      2  H   UNL     1       1.208   2.938  17.868  0.00  0.00    +0.000 HD
ENDROOT
BRANCH   1   3
ATOM      3  C   UNL     1       3.224   2.749  18.071  0.00  0.00    +0.000 C 
BRANCH   3   8
ATOM      4 CL   UNL     1       7.408   7.110  17.713  0.00  0.00    +0.000 Cl
ATOM      5  C   UNL     1       6.192   5.884  17.772  0.00  0.00    +0.000 A 
ATOM      6  C   UNL     1       6.158   5.054  18.897  0.00  0.00    +0.000 A 
ATOM      7  C   UNL     1       5.200   4.041  19.000  0.00  0.00    +0.000 A 
ATOM      8  C   UNL     1       4.263   3.845  17.978  0.00  0.00    +0.000 A 
ATOM      9  C   UNL     1       4.300   4.689  16.854  0.00  0.00    +0.000 A 
ATOM     10  C   UNL     1       5.260   5.701  16.747  0.00  0.00    +0.000 A 
ATOM     11 CL   UNL     1       5.240   6.682  15.324  0.00  0.00    +0.000 Cl
ENDBRANCH   3   8
ENDBRANCH   1   3
BRANCH   1  12
ATOM     12  C   UNL     1       1.621   3.001  19.874  0.00  0.00    +0.000 C 
BRANCH  12  13
ATOM     13  C   UNL     1       1.163   4.284  20.569  0.00  0.00    +0.000 C 
BRANCH  13  14
ATOM     14  C   UNL     1       2.325   5.251  20.780  0.00  0.00    +0.000 C 
BRANCH  14  15
ATOM     15  N   UNL     1       2.039   6.569  20.252  0.00  0.00    +0.000 N 
ATOM     16  C   UNL     1       2.485   7.080  19.066  0.00  0.00    +0.000 A 
ATOM     17  C   UNL     1       1.970   8.354  19.014  0.00  0.00    +0.000 A 
ATOM     18  N   UNL     1       1.232   8.626  20.137  0.00  0.00    +0.000 NA
ATOM     19  C   UNL     1       1.291   7.534  20.864  0.00  0.00    +0.000 A 
ENDBRANCH  14  15
ENDBRANCH  13  14
ENDBRANCH  12  13
ENDBRANCH   1  12
TORSDOF 6
ENDMDL
MODEL 7
REMARK VINA RESULT:      -5.6      3.275      5.037
REMARK  Name = 
REMARK  6 active torsions:
REMARK  status: ('A' for Active; 'I' for Inactive)
REMARK    1  A    between atoms: C_5  and  C_6
REMARK    2  A    between atoms: C_6  and  N_7
REMARK    3  A    between atoms: N_7  and  C_8
REMARK    4  A    between atoms: C_8  and  C_9
REMARK    5  A    between atoms: C_9  and  C_10
REMARK    6  A    between atoms: C_10  and  N_11
REMARK                            x       y       z     vdW  Elec       q    Type
REMARK                         _______ _______ _______ _____ _____    ______ ____
ROOT
ATOM      1  N   UNL     1       2.204   8.356  18.615  0.00  0.00    +0.000 NA
ATOM      2  H   UNL     1       2.627   8.665  19.490  0.00  0.00    +0.000 HD
ENDROOT
BRANCH   1   3
ATOM      3  C   UNL     1       3.235   7.732  17.786  0.00  0.00    +0.000 C 
BRANCH   3   8
ATOM      4 CL   UNL     1       3.051   1.706  18.331  0.00  0.00    +0.000 Cl
ATOM      5  C   UNL     1       3.062   3.429  18.206  0.00  0.00    +0.000 A 
ATOM      6  C   UNL     1       3.982   4.013  17.330  0.00  0.00    +0.000 A 
ATOM      7  C   UNL     1       4.041   5.402  17.189  0.00  0.00    +0.000 A 
ATOM      8  C   UNL     1       3.179   6.226  17.923  0.00  0.00    +0.000 A 
ATOM      9  C   UNL     1       2.252   5.631  18.796  0.00  0.00    +0.000 A 
ATOM     10  C   UNL     1       2.194   4.241  18.942  0.00  0.00    +0.000 A 
ATOM     11 CL   UNL     1       1.032   3.596  20.047  0.00  0.00    +0.000 Cl
ENDBRANCH   3   8
ENDBRANCH   1   3
BRANCH   1  12
ATOM     12  C   UNL     1       1.559   9.479  17.942  0.00  0.00    +0.000 C 
BRANCH  12  13
ATOM     13  C   UNL     1       1.035  10.454  18.998  0.00  0.00    +0.000 C 
BRANCH  13  14
ATOM     14  C   UNL     1      -0.282   9.973  19.599  0.00  0.00    +0.000 C 
BRANCH  14  15
ATOM     15  N   UNL     1      -0.276  10.041  21.046  0.00  0.00    +0.000 N 
ATOM     16  C   UNL     1      -0.208   8.981  21.906  0.00  0.00    +0.000 A 
ATOM     17  C   UNL     1      -0.250   9.541  23.162  0.00  0.00    +0.000 A 
ATOM     18  N   UNL     1      -0.346  10.906  23.082  0.00  0.00    +0.000 NA
ATOM     19  C   UNL     1      -0.360  11.178  21.797  0.00  0.00    +0.000 A 
ENDBRANCH  14  15
ENDBRANCH  13  14
ENDBRANCH  12  13
ENDBRANCH   1  12
TORSDOF 6
ENDMDL
MODEL 8
REMARK VINA RESULT:      -5.6      3.905      5.688
REMARK  Name = 
REMARK  6 active torsions:
REMARK  status: ('A' for Active; 'I' for Inactive)
REMARK    1  A    between atoms: C_5  and  C_6
REMARK    2  A    between atoms: C_6  and  N_7
REMARK    3  A    between atoms: N_7  and  C_8
REMARK    4  A    between atoms: C_8  and  C_9
REMARK    5  A    between atoms: C_9  and  C_10
REMARK    6  A    between atoms: C_10  and  N_11
REMARK                            x       y       z     vdW  Elec       q    Type
REMARK                         _______ _______ _______ _____ _____    ______ ____
ROOT
ATOM      1  N   UNL     1       1.893   8.677  17.403  0.00  0.00    +0.000 NA
ATOM      2  H   UNL     1       1.038   8.151  17.582  0.00  0.00    +0.000 HD
ENDROOT
BRANCH   1   3
ATOM      3  C   UNL     1       3.038   7.885  17.850  0.00  0.00    +0.000 C 
BRANCH   3   8
ATOM      4 CL   UNL     1       1.130   3.032  20.925  0.00  0.00    +0.000 Cl
ATOM      5  C   UNL     1       1.685   4.386  20.008  0.00  0.00    +0.000 A 
ATOM      6  C   UNL     1       1.773   5.621  20.657  0.00  0.00    +0.000 A 
ATOM      7  C   UNL     1       2.211   6.754  19.965  0.00  0.00    +0.000 A 
ATOM      8  C   UNL     1       2.568   6.666  18.615  0.00  0.00    +0.000 A 
ATOM      9  C   UNL     1       2.483   5.419  17.971  0.00  0.00    +0.000 A 
ATOM     10  C   UNL     1       2.041   4.285  18.660  0.00  0.00    +0.000 A 
ATOM     11 CL   UNL     1       1.957   2.795  17.786  0.00  0.00    +0.000 Cl
ENDBRANCH   3   8
ENDBRANCH   1   3
BRANCH   1  12
ATOM     12  C   UNL     1       1.831   9.979  18.061  0.00  0.00    +0.000 C 
BRANCH  12  13
ATOM     13  C   UNL     1       0.621  10.004  18.996  0.00  0.00    +0.000 C 
BRANCH  13  14
ATOM     14  C   UNL     1      -0.220  11.260  18.789  0.00  0.00    +0.000 C 
BRANCH  14  15
ATOM     15  N   UNL     1      -1.481  10.970  18.137  0.00  0.00    +0.000 N 
ATOM     16  C   UNL     1      -2.649  11.662  18.289  0.00  0.00    +0.000 A 
ATOM     17  C   UNL     1      -3.556  11.004  17.491  0.00  0.00    +0.000 A 
ATOM     18  N   UNL     1      -2.969   9.934  16.867  0.00  0.00    +0.000 NA
ATOM     19  C   UNL     1      -1.719   9.938  17.274  0.00  0.00    +0.000 A 
ENDBRANCH  14  15
ENDBRANCH  13  14
ENDBRANCH  12  13
ENDBRANCH   1  12
TORSDOF 6
ENDMDL
MODEL 9
REMARK VINA RESULT:      -5.5      2.835      5.041
REMARK  Name = 
REMARK  6 active torsions:
REMARK  status: ('A' for Active; 'I' for Inactive)
REMARK    1  A    between atoms: C_5  and  C_6
REMARK    2  A    between atoms: C_6  and  N_7
REMARK    3  A    between atoms: N_7  and  C_8
REMARK    4  A    between atoms: C_8  and  C_9
REMARK    5  A    between atoms: C_9  and  C_10
REMARK    6  A    between atoms: C_10  and  N_11
REMARK                            x       y       z     vdW  Elec       q    Type
REMARK                         _______ _______ _______ _____ _____    ______ ____
ROOT
ATOM      1  N   UNL     1       3.079   4.815  17.439  0.00  0.00    +0.000 NA
ATOM      2  H   UNL     1       2.732   5.408  16.687  0.00  0.00    +0.000 HD
ENDROOT
BRANCH   1   3
ATOM      3  C   UNL     1       3.802   5.645  18.402  0.00  0.00    +0.000 C 
BRANCH   3   8
ATOM      4 CL   UNL     1       0.091   9.719  20.908  0.00  0.00    +0.000 Cl
ATOM      5  C   UNL     1       1.153   8.586  20.151  0.00  0.00    +0.000 A 
ATOM      6  C   UNL     1       1.396   7.379  20.812  0.00  0.00    +0.000 A 
ATOM      7  C   UNL     1       2.249   6.424  20.251  0.00  0.00    +0.000 A 
ATOM      8  C   UNL     1       2.870   6.665  19.019  0.00  0.00    +0.000 A 
ATOM      9  C   UNL     1       2.615   7.879  18.358  0.00  0.00    +0.000 A 
ATOM     10  C   UNL     1       1.764   8.837  18.919  0.00  0.00    +0.000 A 
ATOM     11 CL   UNL     1       1.517  10.306  18.042  0.00  0.00    +0.000 Cl
ENDBRANCH   3   8
ENDBRANCH   1   3
BRANCH   1  12
ATOM     12  C   UNL     1       3.913   3.747  16.896  0.00  0.00    +0.000 C 
BRANCH  12  13
ATOM     13  C   UNL     1       3.890   2.561  17.861  0.00  0.00    +0.000 C 
BRANCH  13  14
ATOM     14  C   UNL     1       2.467   2.223  18.298  0.00  0.00    +0.000 C 
BRANCH  14  15
ATOM     15  N   UNL     1       2.258   2.473  19.710  0.00  0.00    +0.000 N 
ATOM     16  C   UNL     1       1.076   2.814  20.305  0.00  0.00    +0.000 A 
ATOM     17  C   UNL     1       1.381   2.960  21.638  0.00  0.00    +0.000 A 
ATOM     18  N   UNL     1       2.713   2.722  21.861  0.00  0.00    +0.000 NA
ATOM     19  C   UNL     1       3.215   2.431  20.683  0.00  0.00    +0.000 A 
ENDBRANCH  14  15
ENDBRANCH  13  14
ENDBRANCH  12  13
ENDBRANCH   1  12
TORSDOF 6
ENDMDL
