MODEL 1
REMARK VINA RESULT:      -6.3      0.000      0.000
REMARK  Name = 
REMARK  7 active torsions:
REMARK  status: ('A' for Active; 'I' for Inactive)
REMARK    1  A    between atoms: C_1  and  C_2
REMARK    2  A    between atoms: C_2  and  C_3
REMARK    3  A    between atoms: C_3  and  N_4
REMARK    4  A    between atoms: C_12  and  C_13
REMARK    5  A    between atoms: C_13  and  O_15
REMARK    6  A    between atoms: O_15  and  C_16
REMARK    7  A    between atoms: C_17  and  C_18
REMARK                            x       y       z     vdW  Elec       q    Type
REMARK                         _______ _______ _______ _____ _____    ______ ____
ROOT
ATOM      1  N   UNL     1      -0.802  15.515  18.825  0.00  0.00    +0.000 N 
ATOM      2  C   UNL     1       0.004  14.986  19.801  0.00  0.00    +0.000 C 
ATOM      3  O   UNL     1       1.084  15.482  20.110  0.00  0.00    +0.000 OA
ATOM      4  N   UNL     1      -0.511  13.893  20.440  0.00  0.00    +0.000 N 
ATOM      5  C   UNL     1       0.134  13.283  21.583  0.00  0.00    +0.000 C 
ATOM      6  C   UNL     1      -1.074  12.802  22.406  0.00  0.00    +0.000 C 
ATOM      7  C   UNL     1      -2.224  12.672  21.385  0.00  0.00    +0.000 C 
ATOM      8  C   UNL     1      -1.566  12.974  20.032  0.00  0.00    +0.000 C 
ATOM      9  C   UNL     1      -0.924  11.690  19.503  0.00  0.00    +0.000 C 
ATOM     10  C   UNL     1       0.271  11.255  20.006  0.00  0.00    +0.000 C 
ATOM     11  C   UNL     1       0.982  12.110  21.070  0.00  0.00    +0.000 C 
ATOM     12  H   UNL     1      -1.786  15.433  19.029  0.00  0.00    +0.000 HD
ENDROOT
BRANCH  10  13
ATOM     13  C   UNL     1       0.855  10.012  19.597  0.00  0.00    +0.000 A 
ATOM     14  C   UNL     1       1.552   9.718  18.441  0.00  0.00    +0.000 A 
ATOM     15  C   UNL     1       2.188   8.428  18.462  0.00  0.00    +0.000 A 
ATOM     16  C   UNL     1       3.018   7.794  17.508  0.00  0.00    +0.000 A 
ATOM     17  C   UNL     1       3.588   6.546  17.781  0.00  0.00    +0.000 A 
ATOM     18  C   UNL     1       3.333   5.909  18.988  0.00  0.00    +0.000 A 
ATOM     19  C   UNL     1       2.493   6.496  19.936  0.00  0.00    +0.000 A 
ATOM     20  C   UNL     1       1.929   7.759  19.661  0.00  0.00    +0.000 A 
ATOM     21  S   UNL     1       0.889   8.682  20.680  0.00  0.00    +0.000 S 
ENDBRANCH  10  13
BRANCH   9  22
ATOM     22  C   UNL     1      -1.713  10.960  18.465  0.00  0.00    +0.000 C 
ATOM     23  O   UNL     1      -2.139   9.821  18.554  0.00  0.00    +0.000 OA
BRANCH  22  24
ATOM     24  O   UNL     1      -1.862  11.761  17.371  0.00  0.00    +0.000 OA
ATOM     25  C   UNL     1      -2.620  11.189  16.300  0.00  0.00    +0.000 C 
ENDBRANCH  22  24
ENDBRANCH   9  22
BRANCH   1  26
ATOM     26  C   UNL     1      -0.401  16.748  18.170  0.00  0.00    +0.000 C 
BRANCH  26  28
ATOM     27  C   UNL     1      -2.470  17.643  19.337  0.00  0.00    +0.000 C 
ATOM     28  C   UNL     1      -1.114  17.972  18.736  0.00  0.00    +0.000 C 
ENDBRANCH  26  28
ENDBRANCH   1  26
TORSDOF 5
ENDMDL
MODEL 2
REMARK VINA RESULT:      -6.3      2.891      4.406
REMARK  Name = 
REMARK  7 active torsions:
REMARK  status: ('A' for Active; 'I' for Inactive)
REMARK    1  A    between atoms: C_1  and  C_2
REMARK    2  A    between atoms: C_2  and  C_3
REMARK    3  A    between atoms: C_3  and  N_4
REMARK    4  A    between atoms: C_12  and  C_13
REMARK    5  A    between atoms: C_13  and  O_15
REMARK    6  A    between atoms: O_15  and  C_16
REMARK    7  A    between atoms: C_17  and  C_18
REMARK                            x       y       z     vdW  Elec       q    Type
REMARK                         _______ _______ _______ _____ _____    ______ ____
ROOT
ATOM      1  N   UNL     1      -2.369  11.833  19.605  0.00  0.00    +0.000 N 
ATOM      2  C   UNL     1      -1.501  11.456  18.612  0.00  0.00    +0.000 C 
ATOM      3  O   UNL     1      -1.870  11.206  17.468  0.00  0.00    +0.000 OA
ATOM      4  N   UNL     1      -0.185  11.429  18.981  0.00  0.00    +0.000 N 
ATOM      5  C   UNL     1       0.884  11.185  18.036  0.00  0.00    +0.000 C 
ATOM      6  C   UNL     1       2.013  12.061  18.607  0.00  0.00    +0.000 C 
ATOM      7  C   UNL     1       1.661  12.242  20.098  0.00  0.00    +0.000 C 
ATOM      8  C   UNL     1       0.420  11.362  20.304  0.00  0.00    +0.000 C 
ATOM      9  C   UNL     1       0.878   9.925  20.565  0.00  0.00    +0.000 C 
ATOM     10  C   UNL     1       1.289   9.131  19.530  0.00  0.00    +0.000 C 
ATOM     11  C   UNL     1       1.230   9.690  18.098  0.00  0.00    +0.000 C 
ATOM     12  H   UNL     1      -1.982  12.514  20.240  0.00  0.00    +0.000 HD
ENDROOT
BRANCH  10  13
ATOM     13  C   UNL     1       1.807   7.813  19.750  0.00  0.00    +0.000 A 
ATOM     14  C   UNL     1       1.401   6.862  20.666  0.00  0.00    +0.000 A 
ATOM     15  C   UNL     1       1.996   5.569  20.458  0.00  0.00    +0.000 A 
ATOM     16  C   UNL     1       1.802   4.345  21.141  0.00  0.00    +0.000 A 
ATOM     17  C   UNL     1       2.447   3.182  20.709  0.00  0.00    +0.000 A 
ATOM     18  C   UNL     1       3.299   3.220  19.613  0.00  0.00    +0.000 A 
ATOM     19  C   UNL     1       3.534   4.420  18.939  0.00  0.00    +0.000 A 
ATOM     20  C   UNL     1       2.873   5.588  19.371  0.00  0.00    +0.000 A 
ATOM     21  S   UNL     1       2.988   7.167  18.687  0.00  0.00    +0.000 S 
ENDBRANCH  10  13
BRANCH   9  22
ATOM     22  C   UNL     1       0.879   9.504  21.999  0.00  0.00    +0.000 C 
ATOM     23  O   UNL     1       1.861   9.367  22.707  0.00  0.00    +0.000 OA
BRANCH  22  24
ATOM     24  O   UNL     1      -0.403   9.261  22.395  0.00  0.00    +0.000 OA
ATOM     25  C   UNL     1      -0.984  10.273  23.223  0.00  0.00    +0.000 C 
ENDBRANCH  22  24
ENDBRANCH   9  22
BRANCH   1  26
ATOM     26  C   UNL     1      -3.775  12.010  19.284  0.00  0.00    +0.000 C 
BRANCH  26  28
ATOM     27  C   UNL     1      -3.799  12.842  21.682  0.00  0.00    +0.000 C 
ATOM     28  C   UNL     1      -4.526  12.805  20.347  0.00  0.00    +0.000 C 
ENDBRANCH  26  28
ENDBRANCH   1  26
TORSDOF 5
ENDMDL
MODEL 3
REMARK VINA RESULT:      -6.0      1.333      1.531
REMARK  Name = 
REMARK  7 active torsions:
REMARK  status: ('A' for Active; 'I' for Inactive)
REMARK    1  A    between atoms: C_1  and  C_2
REMARK    2  A    between atoms: C_2  and  C_3
REMARK    3  A    between atoms: C_3  and  N_4
REMARK    4  A    between atoms: C_12  and  C_13
REMARK    5  A    between atoms: C_13  and  O_15
REMARK    6  A    between atoms: O_15  and  C_16
REMARK    7  A    between atoms: C_17  and  C_18
REMARK                            x       y       z     vdW  Elec       q    Type
REMARK                         _______ _______ _______ _____ _____    ______ ____
ROOT
ATOM      1  N   UNL     1      -0.065  16.544  18.434  0.00  0.00    +0.000 N 
ATOM      2  C   UNL     1       0.779  16.000  19.369  0.00  0.00    +0.000 C 
ATOM      3  O   UNL     1       1.957  16.331  19.472  0.00  0.00    +0.000 OA
ATOM      4  N   UNL     1       0.194  15.096  20.211  0.00  0.00    +0.000 N 
ATOM      5  C   UNL     1       0.892  14.521  21.342  0.00  0.00    +0.000 C 
ATOM      6  C   UNL     1      -0.246  14.359  22.364  0.00  0.00    +0.000 C 
ATOM      7  C   UNL     1      -1.537  14.315  21.519  0.00  0.00    +0.000 C 
ATOM      8  C   UNL     1      -1.040  14.336  20.067  0.00  0.00    +0.000 C 
ATOM      9  C   UNL     1      -0.692  12.905  19.649  0.00  0.00    +0.000 C 
ATOM     10  C   UNL     1       0.479  12.330  20.058  0.00  0.00    +0.000 C 
ATOM     11  C   UNL     1       1.462  13.165  20.898  0.00  0.00    +0.000 C 
ATOM     12  H   UNL     1      -1.010  16.661  18.765  0.00  0.00    +0.000 HD
ENDROOT
BRANCH  10  13
ATOM     13  C   UNL     1       0.794  10.964  19.759  0.00  0.00    +0.000 A 
ATOM     14  C   UNL     1       1.309  10.427  18.596  0.00  0.00    +0.000 A 
ATOM     15  C   UNL     1       1.710   9.051  18.723  0.00  0.00    +0.000 A 
ATOM     16  C   UNL     1       2.318   8.178  17.789  0.00  0.00    +0.000 A 
ATOM     17  C   UNL     1       2.687   6.883  18.166  0.00  0.00    +0.000 A 
ATOM     18  C   UNL     1       2.449   6.435  19.459  0.00  0.00    +0.000 A 
ATOM     19  C   UNL     1       1.824   7.263  20.393  0.00  0.00    +0.000 A 
ATOM     20  C   UNL     1       1.462   8.572  20.011  0.00  0.00    +0.000 A 
ATOM     21  S   UNL     1       0.706   9.774  20.990  0.00  0.00    +0.000 S 
ENDBRANCH  10  13
BRANCH   9  22
ATOM     22  C   UNL     1      -1.727  12.209  18.826  0.00  0.00    +0.000 C 
ATOM     23  O   UNL     1      -1.710  12.069  17.616  0.00  0.00    +0.000 OA
BRANCH  22  24
ATOM     24  O   UNL     1      -2.730  11.775  19.643  0.00  0.00    +0.000 OA
ATOM     25  C   UNL     1      -4.053  12.081  19.192  0.00  0.00    +0.000 C 
ENDBRANCH  22  24
ENDBRANCH   9  22
BRANCH   1  26
ATOM     26  C   UNL     1       0.428  17.602  17.569  0.00  0.00    +0.000 C 
BRANCH  26  28
ATOM     27  C   UNL     1      -1.819  18.604  18.194  0.00  0.00    +0.000 C 
ATOM     28  C   UNL     1      -0.645  18.631  17.229  0.00  0.00    +0.000 C 
ENDBRANCH  26  28
ENDBRANCH   1  26
TORSDOF 5
ENDMDL
MODEL 4
REMARK VINA RESULT:      -5.9      2.704      4.122
REMARK  Name = 
REMARK  7 active torsions:
REMARK  status: ('A' for Active; 'I' for Inactive)
REMARK    1  A    between atoms: C_1  and  C_2
REMARK    2  A    between atoms: C_2  and  C_3
REMARK    3  A    between atoms: C_3  and  N_4
REMARK    4  A    between atoms: C_12  and  C_13
REMARK    5  A    between atoms: C_13  and  O_15
REMARK    6  A    between atoms: O_15  and  C_16
REMARK    7  A    between atoms: C_17  and  C_18
REMARK                            x       y       z     vdW  Elec       q    Type
REMARK                         _______ _______ _______ _____ _____    ______ ____
ROOT
ATOM      1  N   UNL     1      -2.892  11.614  19.049  0.00  0.00    +0.000 N 
ATOM      2  C   UNL     1      -1.717  11.749  18.353  0.00  0.00    +0.000 C 
ATOM      3  O   UNL     1      -1.682  11.929  17.138  0.00  0.00    +0.000 OA
ATOM      4  N   UNL     1      -0.588  11.716  19.122  0.00  0.00    +0.000 N 
ATOM      5  C   UNL     1       0.730  11.974  18.583  0.00  0.00    +0.000 C 
ATOM      6  C   UNL     1       1.424  12.669  19.768  0.00  0.00    +0.000 C 
ATOM      7  C   UNL     1       0.635  12.213  21.013  0.00  0.00    +0.000 C 
ATOM      8  C   UNL     1      -0.381  11.200  20.469  0.00  0.00    +0.000 C 
ATOM      9  C   UNL     1       0.298   9.832  20.373  0.00  0.00    +0.000 C 
ATOM     10  C   UNL     1       1.153   9.554  19.342  0.00  0.00    +0.000 C 
ATOM     11  C   UNL     1       1.374  10.620  18.255  0.00  0.00    +0.000 C 
ATOM     12  H   UNL     1      -2.864  12.028  19.967  0.00  0.00    +0.000 HD
ENDROOT
BRANCH  10  13
ATOM     13  C   UNL     1       1.872   8.316  19.271  0.00  0.00    +0.000 A 
ATOM     14  C   UNL     1       1.918   7.285  20.189  0.00  0.00    +0.000 A 
ATOM     15  C   UNL     1       2.563   6.098  19.693  0.00  0.00    +0.000 A 
ATOM     16  C   UNL     1       2.761   4.835  20.299  0.00  0.00    +0.000 A 
ATOM     17  C   UNL     1       3.362   3.793  19.586  0.00  0.00    +0.000 A 
ATOM     18  C   UNL     1       3.784   3.992  18.278  0.00  0.00    +0.000 A 
ATOM     19  C   UNL     1       3.630   5.236  17.664  0.00  0.00    +0.000 A 
ATOM     20  C   UNL     1       3.014   6.281  18.384  0.00  0.00    +0.000 A 
ATOM     21  S   UNL     1       2.697   7.884  17.831  0.00  0.00    +0.000 S 
ENDBRANCH  10  13
BRANCH   9  22
ATOM     22  C   UNL     1      -0.009   8.885  21.488  0.00  0.00    +0.000 C 
ATOM     23  O   UNL     1      -0.830   7.985  21.461  0.00  0.00    +0.000 OA
BRANCH  22  24
ATOM     24  O   UNL     1       0.755   9.206  22.571  0.00  0.00    +0.000 OA
ATOM     25  C   UNL     1       0.022   9.517  23.759  0.00  0.00    +0.000 C 
ENDBRANCH  22  24
ENDBRANCH   9  22
BRANCH   1  26
ATOM     26  C   UNL     1      -4.152  11.755  18.340  0.00  0.00    +0.000 C 
BRANCH  26  28
ATOM     27  C   UNL     1      -4.742  12.817  20.569  0.00  0.00    +0.000 C 
ATOM     28  C   UNL     1      -5.243  12.385  19.200  0.00  0.00    +0.000 C 
ENDBRANCH  26  28
ENDBRANCH   1  26
TORSDOF 5
ENDMDL
MODEL 5
REMARK VINA RESULT:      -5.9      1.234      1.646
REMARK  Name = 
REMARK  7 active torsions:
REMARK  status: ('A' for Active; 'I' for Inactive)
REMARK    1  A    between atoms: C_1  and  C_2
REMARK    2  A    between atoms: C_2  and  C_3
REMARK    3  A    between atoms: C_3  and  N_4
REMARK    4  A    between atoms: C_12  and  C_13
REMARK    5  A    between atoms: C_13  and  O_15
REMARK    6  A    between atoms: O_15  and  C_16
REMARK    7  A    between atoms: C_17  and  C_18
REMARK                            x       y       z     vdW  Elec       q    Type
REMARK                         _______ _______ _______ _____ _____    ______ ____
ROOT
ATOM      1  N   UNL     1      -1.915  16.037  19.871  0.00  0.00    +0.000 N 
ATOM      2  C   UNL     1      -1.324  15.344  20.896  0.00  0.00    +0.000 C 
ATOM      3  O   UNL     1      -0.382  15.791  21.544  0.00  0.00    +0.000 OA
ATOM      4  N   UNL     1      -1.899  14.135  21.176  0.00  0.00    +0.000 N 
ATOM      5  C   UNL     1      -1.497  13.325  22.307  0.00  0.00    +0.000 C 
ATOM      6  C   UNL     1      -2.828  12.667  22.710  0.00  0.00    +0.000 C 
ATOM      7  C   UNL     1      -3.698  12.717  21.436  0.00  0.00    +0.000 C 
ATOM      8  C   UNL     1      -2.765  13.294  20.362  0.00  0.00    +0.000 C 
ATOM      9  C   UNL     1      -1.933  12.152  19.774  0.00  0.00    +0.000 C 
ATOM     10  C   UNL     1      -0.861  11.652  20.460  0.00  0.00    +0.000 C 
ATOM     11  C   UNL     1      -0.476  12.294  21.804  0.00  0.00    +0.000 C 
ATOM     12  H   UNL     1      -2.912  15.897  19.813  0.00  0.00    +0.000 HD
ENDROOT
BRANCH  10  13
ATOM     13  C   UNL     1      -0.116  10.526  19.979  0.00  0.00    +0.000 A 
ATOM     14  C   UNL     1       0.575  10.385  18.792  0.00  0.00    +0.000 A 
ATOM     15  C   UNL     1       1.394   9.204  18.737  0.00  0.00    +0.000 A 
ATOM     16  C   UNL     1       2.274   8.738  17.731  0.00  0.00    +0.000 A 
ATOM     17  C   UNL     1       3.030   7.579  17.931  0.00  0.00    +0.000 A 
ATOM     18  C   UNL     1       2.915   6.864  19.116  0.00  0.00    +0.000 A 
ATOM     19  C   UNL     1       2.032   7.282  20.113  0.00  0.00    +0.000 A 
ATOM     20  C   UNL     1       1.279   8.457  19.911  0.00  0.00    +0.000 A 
ATOM     21  S   UNL     1       0.151   9.174  21.001  0.00  0.00    +0.000 S 
ENDBRANCH  10  13
BRANCH   9  22
ATOM     22  C   UNL     1      -2.409  11.625  18.459  0.00  0.00    +0.000 C 
ATOM     23  O   UNL     1      -1.950  11.902  17.364  0.00  0.00    +0.000 OA
BRANCH  22  24
ATOM     24  O   UNL     1      -3.474  10.798  18.667  0.00  0.00    +0.000 OA
ATOM     25  C   UNL     1      -4.634  11.097  17.884  0.00  0.00    +0.000 C 
ENDBRANCH  22  24
ENDBRANCH   9  22
BRANCH   1  26
ATOM     26  C   UNL     1      -1.457  17.384  19.574  0.00  0.00    +0.000 C 
BRANCH  26  28
ATOM     27  C   UNL     1       0.651  17.153  18.177  0.00  0.00    +0.000 C 
ATOM     28  C   UNL     1      -0.829  17.498  18.188  0.00  0.00    +0.000 C 
ENDBRANCH  26  28
ENDBRANCH   1  26
TORSDOF 5
ENDMDL
MODEL 6
REMARK VINA RESULT:      -5.7      2.849      4.448
REMARK  Name = 
REMARK  7 active torsions:
REMARK  status: ('A' for Active; 'I' for Inactive)
REMARK    1  A    between atoms: C_1  and  C_2
REMARK    2  A    between atoms: C_2  and  C_3
REMARK    3  A    between atoms: C_3  and  N_4
REMARK    4  A    between atoms: C_12  and  C_13
REMARK    5  A    between atoms: C_13  and  O_15
REMARK    6  A    between atoms: O_15  and  C_16
REMARK    7  A    between atoms: C_17  and  C_18
REMARK                            x       y       z     vdW  Elec       q    Type
REMARK                         _______ _______ _______ _____ _____    ______ ____
ROOT
ATOM      1  N   UNL     1      -2.389  12.053  19.591  0.00  0.00    +0.000 N 
ATOM      2  C   UNL     1      -1.491  11.723  18.607  0.00  0.00    +0.000 C 
ATOM      3  O   UNL     1      -1.826  11.528  17.442  0.00  0.00    +0.000 OA
ATOM      4  N   UNL     1      -0.187  11.678  19.014  0.00  0.00    +0.000 N 
ATOM      5  C   UNL     1       0.910  11.480  18.090  0.00  0.00    +0.000 C 
ATOM      6  C   UNL     1       2.021  12.327  18.735  0.00  0.00    +0.000 C 
ATOM      7  C   UNL     1       1.624  12.436  20.223  0.00  0.00    +0.000 C 
ATOM      8  C   UNL     1       0.379  11.548  20.350  0.00  0.00    +0.000 C 
ATOM      9  C   UNL     1       0.830  10.100  20.554  0.00  0.00    +0.000 C 
ATOM     10  C   UNL     1       1.273   9.356  19.496  0.00  0.00    +0.000 C 
ATOM     11  C   UNL     1       1.256   9.983  18.091  0.00  0.00    +0.000 C 
ATOM     12  H   UNL     1      -2.022  12.702  20.269  0.00  0.00    +0.000 HD
ENDROOT
BRANCH  10  13
ATOM     13  C   UNL     1       1.786   8.029  19.667  0.00  0.00    +0.000 A 
ATOM     14  C   UNL     1       1.461   7.090  20.627  0.00  0.00    +0.000 A 
ATOM     15  C   UNL     1       2.005   5.785  20.365  0.00  0.00    +0.000 A 
ATOM     16  C   UNL     1       1.860   4.567  21.072  0.00  0.00    +0.000 A 
ATOM     17  C   UNL     1       2.434   3.390  20.582  0.00  0.00    +0.000 A 
ATOM     18  C   UNL     1       3.165   3.407  19.401  0.00  0.00    +0.000 A 
ATOM     19  C   UNL     1       3.351   4.598  18.698  0.00  0.00    +0.000 A 
ATOM     20  C   UNL     1       2.762   5.781  19.192  0.00  0.00    +0.000 A 
ATOM     21  S   UNL     1       2.834   7.355  18.489  0.00  0.00    +0.000 S 
ENDBRANCH  10  13
BRANCH   9  22
ATOM     22  C   UNL     1       0.789   9.610  21.966  0.00  0.00    +0.000 C 
ATOM     23  O   UNL     1       1.750   9.431  22.693  0.00  0.00    +0.000 OA
BRANCH  22  24
ATOM     24  O   UNL     1      -0.505   9.359  22.315  0.00  0.00    +0.000 OA
ATOM     25  C   UNL     1      -1.082  10.301  23.223  0.00  0.00    +0.000 C 
ENDBRANCH  22  24
ENDBRANCH   9  22
BRANCH   1  26
ATOM     26  C   UNL     1      -3.785  12.245  19.236  0.00  0.00    +0.000 C 
BRANCH  26  28
ATOM     27  C   UNL     1      -5.851  11.215  18.181  0.00  0.00    +0.000 C 
ATOM     28  C   UNL     1      -4.385  11.030  18.535  0.00  0.00    +0.000 C 
ENDBRANCH  26  28
ENDBRANCH   1  26
TORSDOF 5
ENDMDL
MODEL 7
REMARK VINA RESULT:      -5.7      0.861      1.404
REMARK  Name = 
REMARK  7 active torsions:
REMARK  status: ('A' for Active; 'I' for Inactive)
REMARK    1  A    between atoms: C_1  and  C_2
REMARK    2  A    between atoms: C_2  and  C_3
REMARK    3  A    between atoms: C_3  and  N_4
REMARK    4  A    between atoms: C_12  and  C_13
REMARK    5  A    between atoms: C_13  and  O_15
REMARK    6  A    between atoms: O_15  and  C_16
REMARK    7  A    between atoms: C_17  and  C_18
REMARK                            x       y       z     vdW  Elec       q    Type
REMARK                         _______ _______ _______ _____ _____    ______ ____
ROOT
ATOM      1  N   UNL     1      -0.668  15.225  18.843  0.00  0.00    +0.000 N 
ATOM      2  C   UNL     1       0.026  14.765  19.934  0.00  0.00    +0.000 C 
ATOM      3  O   UNL     1       1.051  15.304  20.344  0.00  0.00    +0.000 OA
ATOM      4  N   UNL     1      -0.538  13.690  20.560  0.00  0.00    +0.000 N 
ATOM      5  C   UNL     1      -0.022  13.153  21.802  0.00  0.00    +0.000 C 
ATOM      6  C   UNL     1      -1.310  12.679  22.498  0.00  0.00    +0.000 C 
ATOM      7  C   UNL     1      -2.326  12.470  21.355  0.00  0.00    +0.000 C 
ATOM      8  C   UNL     1      -1.517  12.725  20.076  0.00  0.00    +0.000 C 
ATOM      9  C   UNL     1      -0.789  11.435  19.693  0.00  0.00    +0.000 C 
ATOM     10  C   UNL     1       0.346  11.057  20.356  0.00  0.00    +0.000 C 
ATOM     11  C   UNL     1       0.906  11.980  21.453  0.00  0.00    +0.000 C 
ATOM     12  H   UNL     1      -1.667  15.127  18.932  0.00  0.00    +0.000 HD
ENDROOT
BRANCH  10  13
ATOM     13  C   UNL     1       1.001   9.812  20.083  0.00  0.00    +0.000 A 
ATOM     14  C   UNL     1       1.019   8.656  20.839  0.00  0.00    +0.000 A 
ATOM     15  C   UNL     1       1.590   7.527  20.155  0.00  0.00    +0.000 A 
ATOM     16  C   UNL     1       1.740   6.180  20.565  0.00  0.00    +0.000 A 
ATOM     17  C   UNL     1       2.269   5.228  19.689  0.00  0.00    +0.000 A 
ATOM     18  C   UNL     1       2.665   5.596  18.410  0.00  0.00    +0.000 A 
ATOM     19  C   UNL     1       2.557   6.923  17.988  0.00  0.00    +0.000 A 
ATOM     20  C   UNL     1       2.014   7.878  18.872  0.00  0.00    +0.000 A 
ATOM     21  S   UNL     1       1.763   9.557  18.568  0.00  0.00    +0.000 S 
ENDBRANCH  10  13
BRANCH   9  22
ATOM     22  C   UNL     1      -1.432  10.635  18.607  0.00  0.00    +0.000 C 
ATOM     23  O   UNL     1      -1.817   9.483  18.694  0.00  0.00    +0.000 OA
BRANCH  22  24
ATOM     24  O   UNL     1      -1.496  11.391  17.473  0.00  0.00    +0.000 OA
ATOM     25  C   UNL     1      -2.509  11.001  16.541  0.00  0.00    +0.000 C 
ENDBRANCH  22  24
ENDBRANCH   9  22
BRANCH   1  26
ATOM     26  C   UNL     1      -0.217  16.436  18.179  0.00  0.00    +0.000 C 
BRANCH  26  28
ATOM     27  C   UNL     1      -1.095  18.629  17.248  0.00  0.00    +0.000 C 
ATOM     28  C   UNL     1      -1.182  17.603  18.366  0.00  0.00    +0.000 C 
ENDBRANCH  26  28
ENDBRANCH   1  26
TORSDOF 5
ENDMDL
MODEL 8
REMARK VINA RESULT:      -5.6      1.328      1.913
REMARK  Name = 
REMARK  7 active torsions:
REMARK  status: ('A' for Active; 'I' for Inactive)
REMARK    1  A    between atoms: C_1  and  C_2
REMARK    2  A    between atoms: C_2  and  C_3
REMARK    3  A    between atoms: C_3  and  N_4
REMARK    4  A    between atoms: C_12  and  C_13
REMARK    5  A    between atoms: C_13  and  O_15
REMARK    6  A    between atoms: O_15  and  C_16
REMARK    7  A    between atoms: C_17  and  C_18
REMARK                            x       y       z     vdW  Elec       q    Type
REMARK                         _______ _______ _______ _____ _____    ______ ____
ROOT
ATOM      1  N   UNL     1      -1.884  16.023  19.989  0.00  0.00    +0.000 N 
ATOM      2  C   UNL     1      -1.366  15.364  21.076  0.00  0.00    +0.000 C 
ATOM      3  O   UNL     1      -0.545  15.876  21.833  0.00  0.00    +0.000 OA
ATOM      4  N   UNL     1      -1.871  14.111  21.280  0.00  0.00    +0.000 N 
ATOM      5  C   UNL     1      -1.543  13.320  22.448  0.00  0.00    +0.000 C 
ATOM      6  C   UNL     1      -2.856  12.554  22.687  0.00  0.00    +0.000 C 
ATOM      7  C   UNL     1      -3.570  12.552  21.318  0.00  0.00    +0.000 C 
ATOM      8  C   UNL     1      -2.565  13.215  20.366  0.00  0.00    +0.000 C 
ATOM      9  C   UNL     1      -1.580  12.150  19.877  0.00  0.00    +0.000 C 
ATOM     10  C   UNL     1      -0.561  11.727  20.684  0.00  0.00    +0.000 C 
ATOM     11  C   UNL     1      -0.391  12.380  22.067  0.00  0.00    +0.000 C 
ATOM     12  H   UNL     1      -2.852  15.806  19.812  0.00  0.00    +0.000 HD
ENDROOT
BRANCH  10  13
ATOM     13  C   UNL     1       0.323  10.669  20.292  0.00  0.00    +0.000 A 
ATOM     14  C   UNL     1       0.514   9.434  20.880  0.00  0.00    +0.000 A 
ATOM     15  C   UNL     1       1.315   8.537  20.091  0.00  0.00    +0.000 A 
ATOM     16  C   UNL     1       1.689   7.191  20.321  0.00  0.00    +0.000 A 
ATOM     17  C   UNL     1       2.426   6.486  19.364  0.00  0.00    +0.000 A 
ATOM     18  C   UNL     1       2.812   7.106  18.183  0.00  0.00    +0.000 A 
ATOM     19  C   UNL     1       2.485   8.441  17.942  0.00  0.00    +0.000 A 
ATOM     20  C   UNL     1       1.732   9.145  18.906  0.00  0.00    +0.000 A 
ATOM     21  S   UNL     1       1.195  10.781  18.819  0.00  0.00    +0.000 S 
ENDBRANCH  10  13
BRANCH   9  22
ATOM     22  C   UNL     1      -1.853  11.605  18.512  0.00  0.00    +0.000 C 
ATOM     23  O   UNL     1      -1.617  12.162  17.455  0.00  0.00    +0.000 OA
BRANCH  22  24
ATOM     24  O   UNL     1      -2.447  10.382  18.629  0.00  0.00    +0.000 OA
ATOM     25  C   UNL     1      -2.835   9.777  17.392  0.00  0.00    +0.000 C 
ENDBRANCH  22  24
ENDBRANCH   9  22
BRANCH   1  26
ATOM     26  C   UNL     1      -1.502  17.405  19.754  0.00  0.00    +0.000 C 
BRANCH  26  28
ATOM     27  C   UNL     1      -3.934  17.902  19.220  0.00  0.00    +0.000 C 
ATOM     28  C   UNL     1      -2.481  18.138  18.842  0.00  0.00    +0.000 C 
ENDBRANCH  26  28
ENDBRANCH   1  26
TORSDOF 5
ENDMDL
MODEL 9
REMARK VINA RESULT:      -5.6      3.381      7.637
REMARK  Name = 
REMARK  7 active torsions:
REMARK  status: ('A' for Active; 'I' for Inactive)
REMARK    1  A    between atoms: C_1  and  C_2
REMARK    2  A    between atoms: C_2  and  C_3
REMARK    3  A    between atoms: C_3  and  N_4
REMARK    4  A    between atoms: C_12  and  C_13
REMARK    5  A    between atoms: C_13  and  O_15
REMARK    6  A    between atoms: O_15  and  C_16
REMARK    7  A    between atoms: C_17  and  C_18
REMARK                            x       y       z     vdW  Elec       q    Type
REMARK                         _______ _______ _______ _____ _____    ______ ____
ROOT
ATOM      1  N   UNL     1       0.678   9.853  19.815  0.00  0.00    +0.000 N 
ATOM      2  C   UNL     1       0.702  10.943  20.649  0.00  0.00    +0.000 C 
ATOM      3  O   UNL     1       1.251  10.925  21.748  0.00  0.00    +0.000 OA
ATOM      4  N   UNL     1       0.113  12.066  20.141  0.00  0.00    +0.000 N 
ATOM      5  C   UNL     1       0.160  13.344  20.820  0.00  0.00    +0.000 C 
ATOM      6  C   UNL     1       0.213  14.326  19.636  0.00  0.00    +0.000 C 
ATOM      7  C   UNL     1      -0.387  13.548  18.446  0.00  0.00    +0.000 C 
ATOM      8  C   UNL     1      -0.849  12.218  19.057  0.00  0.00    +0.000 C 
ATOM      9  C   UNL     1      -2.242  12.414  19.659  0.00  0.00    +0.000 C 
ATOM     10  C   UNL     1      -2.394  13.040  20.865  0.00  0.00    +0.000 C 
ATOM     11  C   UNL     1      -1.137  13.491  21.629  0.00  0.00    +0.000 C 
ATOM     12  H   UNL     1       0.746  10.094  18.838  0.00  0.00    +0.000 HD
ENDROOT
BRANCH  10  13
ATOM     13  C   UNL     1      -3.689  13.318  21.413  0.00  0.00    +0.000 A 
ATOM     14  C   UNL     1      -4.409  12.600  22.347  0.00  0.00    +0.000 A 
ATOM     15  C   UNL     1      -5.574  13.290  22.833  0.00  0.00    +0.000 A 
ATOM     16  C   UNL     1      -6.525  12.917  23.813  0.00  0.00    +0.000 A 
ATOM     17  C   UNL     1      -7.551  13.794  24.177  0.00  0.00    +0.000 A 
ATOM     18  C   UNL     1      -7.656  15.038  23.568  0.00  0.00    +0.000 A 
ATOM     19  C   UNL     1      -6.752  15.421  22.576  0.00  0.00    +0.000 A 
ATOM     20  C   UNL     1      -5.713  14.537  22.220  0.00  0.00    +0.000 A 
ATOM     21  S   UNL     1      -4.474  14.799  21.048  0.00  0.00    +0.000 S 
ENDBRANCH  10  13
BRANCH   9  22
ATOM     22  C   UNL     1      -3.376  11.922  18.819  0.00  0.00    +0.000 C 
ATOM     23  O   UNL     1      -4.536  11.804  19.174  0.00  0.00    +0.000 OA
BRANCH  22  24
ATOM     24  O   UNL     1      -2.906  11.588  17.583  0.00  0.00    +0.000 OA
ATOM     25  C   UNL     1      -3.627  10.544  16.922  0.00  0.00    +0.000 C 
ENDBRANCH  22  24
ENDBRANCH   9  22
BRANCH   1  26
ATOM     26  C   UNL     1       1.382   8.646  20.210  0.00  0.00    +0.000 C 
BRANCH  26  28
ATOM     27  C   UNL     1       2.179   8.840  17.808  0.00  0.00    +0.000 C 
ATOM     28  C   UNL     1       2.061   7.950  19.035  0.00  0.00    +0.000 C 
ENDBRANCH  26  28
ENDBRANCH   1  26
TORSDOF 5
ENDMDL
