MODEL 1
REMARK VINA RESULT:      -7.5      0.000      0.000
REMARK  Name = 
REMARK  5 active torsions:
REMARK  status: ('A' for Active; 'I' for Inactive)
REMARK    1  A    between atoms: C_1  and  C_2
REMARK    2  A    between atoms: C_4  and  N_5
REMARK    3  A    between atoms: C_6  and  C_8
REMARK    4  A    between atoms: C_8  and  O_9
REMARK    5  A    between atoms: O_9  and  C_10
REMARK                            x       y       z     vdW  Elec       q    Type
REMARK                         _______ _______ _______ _____ _____    ______ ____
ROOT
ATOM      1  N   UNL     1       6.486   4.402  17.228  0.00  0.00    +0.000 N 
ATOM      2  C   UNL     1       5.350   4.930  17.827  0.00  0.00    +0.000 C 
ATOM      3  O   UNL     1       4.443   5.532  17.261  0.00  0.00    +0.000 OA
ATOM      4  H   UNL     1       7.165   3.908  17.788  0.00  0.00    +0.000 HD
ENDROOT
BRANCH   1   8
ATOM      5  C   UNL     1       6.614   3.908  12.262  0.00  0.00    +0.000 C 
ATOM      6  C   UNL     1       6.784   4.302  13.677  0.00  0.00    +0.000 A 
ATOM      7  C   UNL     1       6.210   3.729  14.839  0.00  0.00    +0.000 A 
ATOM      8  C   UNL     1       6.706   4.486  15.872  0.00  0.00    +0.000 A 
ATOM      9  O   UNL     1       7.527   5.444  15.364  0.00  0.00    +0.000 OA
ATOM     10  N   UNL     1       7.576   5.334  13.986  0.00  0.00    +0.000 NA
ENDBRANCH   1   8
BRANCH   2  11
ATOM     11  C   UNL     1       5.311   4.695  19.335  0.00  0.00    +0.000 C 
BRANCH  11  12
ATOM     12  O   UNL     1       4.895   3.349  19.536  0.00  0.00    +0.000 OA
BRANCH  12  13
ATOM     13  C   UNL     1       3.544   3.146  19.577  0.00  0.00    +0.000 A 
ATOM     14  C   UNL     1       2.841   3.972  20.458  0.00  0.00    +0.000 A 
ATOM     15  C   UNL     1       1.450   3.901  20.537  0.00  0.00    +0.000 A 
ATOM     16  C   UNL     1       0.754   3.012  19.723  0.00  0.00    +0.000 A 
ATOM     17  C   UNL     1       1.450   2.187  18.840  0.00  0.00    +0.000 A 
ATOM     18  C   UNL     1       2.845   2.250  18.767  0.00  0.00    +0.000 A 
ENDBRANCH  12  13
ENDBRANCH  11  12
ENDBRANCH   2  11
TORSDOF 4
ENDMDL
MODEL 2
REMARK VINA RESULT:      -7.4      1.135      1.231
REMARK  Name = 
REMARK  5 active torsions:
REMARK  status: ('A' for Active; 'I' for Inactive)
REMARK    1  A    between atoms: C_1  and  C_2
REMARK    2  A    between atoms: C_4  and  N_5
REMARK    3  A    between atoms: C_6  and  C_8
REMARK    4  A    between atoms: C_8  and  O_9
REMARK    5  A    between atoms: O_9  and  C_10
REMARK                            x       y       z     vdW  Elec       q    Type
REMARK                         _______ _______ _______ _____ _____    ______ ____
ROOT
ATOM      1  N   UNL     1       5.721   4.968  16.801  0.00  0.00    +0.000 N 
ATOM      2  C   UNL     1       6.418   4.680  17.967  0.00  0.00    +0.000 C 
ATOM      3  O   UNL     1       7.589   4.324  18.044  0.00  0.00    +0.000 OA
ATOM      4  H   UNL     1       4.758   5.269  16.853  0.00  0.00    +0.000 HD
ENDROOT
BRANCH   1   8
ATOM      5  C   UNL     1       7.125   4.011  12.107  0.00  0.00    +0.000 C 
ATOM      6  C   UNL     1       6.955   4.511  13.489  0.00  0.00    +0.000 A 
ATOM      7  C   UNL     1       6.017   4.115  14.473  0.00  0.00    +0.000 A 
ATOM      8  C   UNL     1       6.310   4.902  15.559  0.00  0.00    +0.000 A 
ATOM      9  O   UNL     1       7.357   5.713  15.249  0.00  0.00    +0.000 OA
ATOM     10  N   UNL     1       7.763   5.472  13.949  0.00  0.00    +0.000 NA
ENDBRANCH   1   8
BRANCH   2  11
ATOM     11  C   UNL     1       5.566   4.844  19.223  0.00  0.00    +0.000 C 
BRANCH  11  12
ATOM     12  O   UNL     1       5.053   3.558  19.549  0.00  0.00    +0.000 OA
BRANCH  12  13
ATOM     13  C   UNL     1       3.691   3.461  19.614  0.00  0.00    +0.000 A 
ATOM     14  C   UNL     1       3.191   2.786  20.729  0.00  0.00    +0.000 A 
ATOM     15  C   UNL     1       1.815   2.682  20.936  0.00  0.00    +0.000 A 
ATOM     16  C   UNL     1       0.932   3.268  20.033  0.00  0.00    +0.000 A 
ATOM     17  C   UNL     1       1.427   3.946  18.919  0.00  0.00    +0.000 A 
ATOM     18  C   UNL     1       2.806   4.042  18.706  0.00  0.00    +0.000 A 
ENDBRANCH  12  13
ENDBRANCH  11  12
ENDBRANCH   2  11
TORSDOF 4
ENDMDL
MODEL 3
REMARK VINA RESULT:      -7.4      0.953      1.534
REMARK  Name = 
REMARK  5 active torsions:
REMARK  status: ('A' for Active; 'I' for Inactive)
REMARK    1  A    between atoms: C_1  and  C_2
REMARK    2  A    between atoms: C_4  and  N_5
REMARK    3  A    between atoms: C_6  and  C_8
REMARK    4  A    between atoms: C_8  and  O_9
REMARK    5  A    between atoms: O_9  and  C_10
REMARK                            x       y       z     vdW  Elec       q    Type
REMARK                         _______ _______ _______ _____ _____    ______ ____
ROOT
ATOM      1  N   UNL     1       5.721   4.966  16.796  0.00  0.00    +0.000 N 
ATOM      2  C   UNL     1       6.431   4.705  17.960  0.00  0.00    +0.000 C 
ATOM      3  O   UNL     1       7.607   4.365  18.032  0.00  0.00    +0.000 OA
ATOM      4  H   UNL     1       4.755   5.256  16.851  0.00  0.00    +0.000 HD
ENDROOT
BRANCH   1   8
ATOM      5  C   UNL     1       7.097   3.953  12.106  0.00  0.00    +0.000 C 
ATOM      6  C   UNL     1       6.933   4.472  13.481  0.00  0.00    +0.000 A 
ATOM      7  C   UNL     1       6.008   4.080  14.479  0.00  0.00    +0.000 A 
ATOM      8  C   UNL     1       6.300   4.888  15.550  0.00  0.00    +0.000 A 
ATOM      9  O   UNL     1       7.335   5.707  15.218  0.00  0.00    +0.000 OA
ATOM     10  N   UNL     1       7.733   5.451  13.918  0.00  0.00    +0.000 NA
ENDBRANCH   1   8
BRANCH   2  11
ATOM     11  C   UNL     1       5.589   4.879  19.221  0.00  0.00    +0.000 C 
BRANCH  11  12
ATOM     12  O   UNL     1       5.093   3.591  19.570  0.00  0.00    +0.000 OA
BRANCH  12  13
ATOM     13  C   UNL     1       3.741   3.424  19.451  0.00  0.00    +0.000 A 
ATOM     14  C   UNL     1       3.327   2.673  18.349  0.00  0.00    +0.000 A 
ATOM     15  C   UNL     1       1.976   2.380  18.158  0.00  0.00    +0.000 A 
ATOM     16  C   UNL     1       1.034   2.827  19.081  0.00  0.00    +0.000 A 
ATOM     17  C   UNL     1       1.443   3.575  20.185  0.00  0.00    +0.000 A 
ATOM     18  C   UNL     1       2.796   3.877  20.370  0.00  0.00    +0.000 A 
ENDBRANCH  12  13
ENDBRANCH  11  12
ENDBRANCH   2  11
TORSDOF 4
ENDMDL
MODEL 4
REMARK VINA RESULT:      -7.4      0.214      1.187
REMARK  Name = 
REMARK  5 active torsions:
REMARK  status: ('A' for Active; 'I' for Inactive)
REMARK    1  A    between atoms: C_1  and  C_2
REMARK    2  A    between atoms: C_4  and  N_5
REMARK    3  A    between atoms: C_6  and  C_8
REMARK    4  A    between atoms: C_8  and  O_9
REMARK    5  A    between atoms: O_9  and  C_10
REMARK                            x       y       z     vdW  Elec       q    Type
REMARK                         _______ _______ _______ _____ _____    ______ ____
ROOT
ATOM      1  N   UNL     1       6.410   4.446  17.226  0.00  0.00    +0.000 N 
ATOM      2  C   UNL     1       5.387   5.170  17.824  0.00  0.00    +0.000 C 
ATOM      3  O   UNL     1       4.615   5.938  17.260  0.00  0.00    +0.000 OA
ATOM      4  H   UNL     1       6.980   3.827  17.783  0.00  0.00    +0.000 HD
ENDROOT
BRANCH   1   8
ATOM      5  C   UNL     1       6.596   3.880  12.269  0.00  0.00    +0.000 C 
ATOM      6  C   UNL     1       6.759   4.286  13.682  0.00  0.00    +0.000 A 
ATOM      7  C   UNL     1       6.145   3.752  14.841  0.00  0.00    +0.000 A 
ATOM      8  C   UNL     1       6.654   4.503  15.873  0.00  0.00    +0.000 A 
ATOM      9  O   UNL     1       7.521   5.421  15.366  0.00  0.00    +0.000 OA
ATOM     10  N   UNL     1       7.587   5.290  13.991  0.00  0.00    +0.000 NA
ENDBRANCH   1   8
BRANCH   2  11
ATOM     11  C   UNL     1       5.292   4.929  19.328  0.00  0.00    +0.000 C 
BRANCH  11  12
ATOM     12  O   UNL     1       4.793   3.608  19.507  0.00  0.00    +0.000 OA
BRANCH  12  13
ATOM     13  C   UNL     1       3.433   3.493  19.586  0.00  0.00    +0.000 A 
ATOM     14  C   UNL     1       2.866   2.522  18.758  0.00  0.00    +0.000 A 
ATOM     15  C   UNL     1       1.495   2.269  18.799  0.00  0.00    +0.000 A 
ATOM     16  C   UNL     1       0.686   2.979  19.683  0.00  0.00    +0.000 A 
ATOM     17  C   UNL     1       1.247   3.948  20.514  0.00  0.00    +0.000 A 
ATOM     18  C   UNL     1       2.620   4.209  20.465  0.00  0.00    +0.000 A 
ENDBRANCH  12  13
ENDBRANCH  11  12
ENDBRANCH   2  11
TORSDOF 4
ENDMDL
MODEL 5
REMARK VINA RESULT:      -7.4      1.636      1.831
REMARK  Name = 
REMARK  5 active torsions:
REMARK  status: ('A' for Active; 'I' for Inactive)
REMARK    1  A    between atoms: C_1  and  C_2
REMARK    2  A    between atoms: C_4  and  N_5
REMARK    3  A    between atoms: C_6  and  C_8
REMARK    4  A    between atoms: C_8  and  O_9
REMARK    5  A    between atoms: O_9  and  C_10
REMARK                            x       y       z     vdW  Elec       q    Type
REMARK                         _______ _______ _______ _____ _____    ______ ____
ROOT
ATOM      1  N   UNL     1       6.391   5.296  16.582  0.00  0.00    +0.000 N 
ATOM      2  C   UNL     1       7.183   4.857  17.634  0.00  0.00    +0.000 C 
ATOM      3  O   UNL     1       8.173   4.137  17.547  0.00  0.00    +0.000 OA
ATOM      4  H   UNL     1       5.604   5.902  16.765  0.00  0.00    +0.000 HD
ENDROOT
BRANCH   1   8
ATOM      5  C   UNL     1       6.597   3.449  11.949  0.00  0.00    +0.000 C 
ATOM      6  C   UNL     1       6.782   4.186  13.217  0.00  0.00    +0.000 A 
ATOM      7  C   UNL     1       6.088   4.042  14.443  0.00  0.00    +0.000 A 
ATOM      8  C   UNL     1       6.665   4.973  15.273  0.00  0.00    +0.000 A 
ATOM      9  O   UNL     1       7.643   5.628  14.591  0.00  0.00    +0.000 OA
ATOM     10  N   UNL     1       7.718   5.138  13.299  0.00  0.00    +0.000 NA
ENDBRANCH   1   8
BRANCH   2  11
ATOM     11  C   UNL     1       6.700   5.360  18.991  0.00  0.00    +0.000 C 
BRANCH  11  12
ATOM     12  O   UNL     1       5.836   4.362  19.522  0.00  0.00    +0.000 OA
BRANCH  12  13
ATOM     13  C   UNL     1       4.561   4.358  19.029  0.00  0.00    +0.000 A 
ATOM     14  C   UNL     1       3.827   5.524  19.259  0.00  0.00    +0.000 A 
ATOM     15  C   UNL     1       2.537   5.662  18.745  0.00  0.00    +0.000 A 
ATOM     16  C   UNL     1       1.981   4.635  17.985  0.00  0.00    +0.000 A 
ATOM     17  C   UNL     1       2.710   3.470  17.751  0.00  0.00    +0.000 A 
ATOM     18  C   UNL     1       4.000   3.328  18.274  0.00  0.00    +0.000 A 
ENDBRANCH  12  13
ENDBRANCH  11  12
ENDBRANCH   2  11
TORSDOF 4
ENDMDL
MODEL 6
REMARK VINA RESULT:      -7.4      1.186      1.356
REMARK  Name = 
REMARK  5 active torsions:
REMARK  status: ('A' for Active; 'I' for Inactive)
REMARK    1  A    between atoms: C_1  and  C_2
REMARK    2  A    between atoms: C_4  and  N_5
REMARK    3  A    between atoms: C_6  and  C_8
REMARK    4  A    between atoms: C_8  and  O_9
REMARK    5  A    between atoms: O_9  and  C_10
REMARK                            x       y       z     vdW  Elec       q    Type
REMARK                         _______ _______ _______ _____ _____    ______ ____
ROOT
ATOM      1  N   UNL     1       5.375   5.506  16.948  0.00  0.00    +0.000 N 
ATOM      2  C   UNL     1       5.829   5.029  18.170  0.00  0.00    +0.000 C 
ATOM      3  O   UNL     1       6.782   4.277  18.347  0.00  0.00    +0.000 OA
ATOM      4  H   UNL     1       4.587   6.136  16.916  0.00  0.00    +0.000 HD
ENDROOT
BRANCH   1   8
ATOM      5  C   UNL     1       6.753   3.792  12.466  0.00  0.00    +0.000 C 
ATOM      6  C   UNL     1       6.633   4.456  13.782  0.00  0.00    +0.000 A 
ATOM      7  C   UNL     1       5.585   4.375  14.731  0.00  0.00    +0.000 A 
ATOM      8  C   UNL     1       5.993   5.188  15.760  0.00  0.00    +0.000 A 
ATOM      9  O   UNL     1       7.208   5.716  15.451  0.00  0.00    +0.000 OA
ATOM     10  N   UNL     1       7.612   5.261  14.209  0.00  0.00    +0.000 NA
ENDBRANCH   1   8
BRANCH   2  11
ATOM     11  C   UNL     1       5.002   5.535  19.348  0.00  0.00    +0.000 C 
BRANCH  11  12
ATOM     12  O   UNL     1       3.688   5.781  18.860  0.00  0.00    +0.000 OA
BRANCH  12  13
ATOM     13  C   UNL     1       2.765   4.808  19.126  0.00  0.00    +0.000 A 
ATOM     14  C   UNL     1       2.367   4.711  20.461  0.00  0.00    +0.000 A 
ATOM     15  C   UNL     1       1.381   3.799  20.841  0.00  0.00    +0.000 A 
ATOM     16  C   UNL     1       0.779   2.990  19.881  0.00  0.00    +0.000 A 
ATOM     17  C   UNL     1       1.171   3.085  18.546  0.00  0.00    +0.000 A 
ATOM     18  C   UNL     1       2.166   3.992  18.166  0.00  0.00    +0.000 A 
ENDBRANCH  12  13
ENDBRANCH  11  12
ENDBRANCH   2  11
TORSDOF 4
ENDMDL
MODEL 7
REMARK VINA RESULT:      -7.3      1.157      1.454
REMARK  Name = 
REMARK  5 active torsions:
REMARK  status: ('A' for Active; 'I' for Inactive)
REMARK    1  A    between atoms: C_1  and  C_2
REMARK    2  A    between atoms: C_4  and  N_5
REMARK    3  A    between atoms: C_6  and  C_8
REMARK    4  A    between atoms: C_8  and  O_9
REMARK    5  A    between atoms: O_9  and  C_10
REMARK                            x       y       z     vdW  Elec       q    Type
REMARK                         _______ _______ _______ _____ _____    ______ ____
ROOT
ATOM      1  N   UNL     1       5.848   5.107  16.910  0.00  0.00    +0.000 N 
ATOM      2  C   UNL     1       6.605   4.830  18.041  0.00  0.00    +0.000 C 
ATOM      3  O   UNL     1       7.751   4.393  18.058  0.00  0.00    +0.000 OA
ATOM      4  H   UNL     1       4.915   5.480  17.010  0.00  0.00    +0.000 HD
ENDROOT
BRANCH   1   8
ATOM      5  C   UNL     1       6.870   3.773  12.209  0.00  0.00    +0.000 C 
ATOM      6  C   UNL     1       6.818   4.375  13.559  0.00  0.00    +0.000 A 
ATOM      7  C   UNL     1       5.945   4.081  14.635  0.00  0.00    +0.000 A 
ATOM      8  C   UNL     1       6.340   4.934  15.637  0.00  0.00    +0.000 A 
ATOM      9  O   UNL     1       7.384   5.685  15.193  0.00  0.00    +0.000 OA
ATOM     10  N   UNL     1       7.685   5.339  13.888  0.00  0.00    +0.000 NA
ENDBRANCH   1   8
BRANCH   2  11
ATOM     11  C   UNL     1       5.859   5.121  19.340  0.00  0.00    +0.000 C 
BRANCH  11  12
ATOM     12  O   UNL     1       4.522   5.456  18.987  0.00  0.00    +0.000 OA
BRANCH  12  13
ATOM     13  C   UNL     1       3.545   4.732  19.611  0.00  0.00    +0.000 A 
ATOM     14  C   UNL     1       2.414   5.457  19.992  0.00  0.00    +0.000 A 
ATOM     15  C   UNL     1       1.324   4.813  20.579  0.00  0.00    +0.000 A 
ATOM     16  C   UNL     1       1.357   3.434  20.773  0.00  0.00    +0.000 A 
ATOM     17  C   UNL     1       2.483   2.705  20.392  0.00  0.00    +0.000 A 
ATOM     18  C   UNL     1       3.579   3.352  19.813  0.00  0.00    +0.000 A 
ENDBRANCH  12  13
ENDBRANCH  11  12
ENDBRANCH   2  11
TORSDOF 4
ENDMDL
MODEL 8
REMARK VINA RESULT:      -7.1      1.090      1.268
REMARK  Name = 
REMARK  5 active torsions:
REMARK  status: ('A' for Active; 'I' for Inactive)
REMARK    1  A    between atoms: C_1  and  C_2
REMARK    2  A    between atoms: C_4  and  N_5
REMARK    3  A    between atoms: C_6  and  C_8
REMARK    4  A    between atoms: C_8  and  O_9
REMARK    5  A    between atoms: O_9  and  C_10
REMARK                            x       y       z     vdW  Elec       q    Type
REMARK                         _______ _______ _______ _____ _____    ______ ____
ROOT
ATOM      1  N   UNL     1       6.290   4.386  17.137  0.00  0.00    +0.000 N 
ATOM      2  C   UNL     1       5.847   5.476  17.874  0.00  0.00    +0.000 C 
ATOM      3  O   UNL     1       5.711   6.624  17.464  0.00  0.00    +0.000 OA
ATOM      4  H   UNL     1       6.350   3.477  17.571  0.00  0.00    +0.000 HD
ENDROOT
BRANCH   1   8
ATOM      5  C   UNL     1       6.741   3.998  12.180  0.00  0.00    +0.000 C 
ATOM      6  C   UNL     1       6.836   4.346  13.615  0.00  0.00    +0.000 A 
ATOM      7  C   UNL     1       6.141   3.790  14.716  0.00  0.00    +0.000 A 
ATOM      8  C   UNL     1       6.612   4.485  15.803  0.00  0.00    +0.000 A 
ATOM      9  O   UNL     1       7.532   5.395  15.381  0.00  0.00    +0.000 OA
ATOM     10  N   UNL     1       7.672   5.313  14.008  0.00  0.00    +0.000 NA
ENDBRANCH   1   8
BRANCH   2  11
ATOM     11  C   UNL     1       5.527   5.121  19.323  0.00  0.00    +0.000 C 
BRANCH  11  12
ATOM     12  O   UNL     1       4.164   5.469  19.546  0.00  0.00    +0.000 OA
BRANCH  12  13
ATOM     13  C   UNL     1       3.253   4.480  19.302  0.00  0.00    +0.000 A 
ATOM     14  C   UNL     1       2.209   4.828  18.441  0.00  0.00    +0.000 A 
ATOM     15  C   UNL     1       1.255   3.881  18.066  0.00  0.00    +0.000 A 
ATOM     16  C   UNL     1       1.351   2.575  18.541  0.00  0.00    +0.000 A 
ATOM     17  C   UNL     1       2.392   2.222  19.399  0.00  0.00    +0.000 A 
ATOM     18  C   UNL     1       3.343   3.174  19.783  0.00  0.00    +0.000 A 
ENDBRANCH  12  13
ENDBRANCH  11  12
ENDBRANCH   2  11
TORSDOF 4
ENDMDL
MODEL 9
REMARK VINA RESULT:      -7.1      1.467      1.481
REMARK  Name = 
REMARK  5 active torsions:
REMARK  status: ('A' for Active; 'I' for Inactive)
REMARK    1  A    between atoms: C_1  and  C_2
REMARK    2  A    between atoms: C_4  and  N_5
REMARK    3  A    between atoms: C_6  and  C_8
REMARK    4  A    between atoms: C_8  and  O_9
REMARK    5  A    between atoms: O_9  and  C_10
REMARK                            x       y       z     vdW  Elec       q    Type
REMARK                         _______ _______ _______ _____ _____    ______ ____
ROOT
ATOM      1  N   UNL     1       5.600   5.017  16.732  0.00  0.00    +0.000 N 
ATOM      2  C   UNL     1       4.827   6.123  17.063  0.00  0.00    +0.000 C 
ATOM      3  O   UNL     1       4.619   7.102  16.354  0.00  0.00    +0.000 OA
ATOM      4  H   UNL     1       5.693   4.255  17.388  0.00  0.00    +0.000 HD
ENDROOT
BRANCH   1   8
ATOM      5  C   UNL     1       7.040   3.940  12.075  0.00  0.00    +0.000 C 
ATOM      6  C   UNL     1       6.883   4.446  13.456  0.00  0.00    +0.000 A 
ATOM      7  C   UNL     1       5.874   4.152  14.405  0.00  0.00    +0.000 A 
ATOM      8  C   UNL     1       6.218   4.894  15.509  0.00  0.00    +0.000 A 
ATOM      9  O   UNL     1       7.361   5.582  15.241  0.00  0.00    +0.000 OA
ATOM     10  N   UNL     1       7.779   5.306  13.951  0.00  0.00    +0.000 NA
ENDBRANCH   1   8
BRANCH   2  11
ATOM     11  C   UNL     1       4.223   6.027  18.461  0.00  0.00    +0.000 C 
BRANCH  11  12
ATOM     12  O   UNL     1       2.809   5.991  18.301  0.00  0.00    +0.000 OA
BRANCH  12  13
ATOM     13  C   UNL     1       2.186   4.877  18.792  0.00  0.00    +0.000 A 
ATOM     14  C   UNL     1       1.972   4.871  20.172  0.00  0.00    +0.000 A 
ATOM     15  C   UNL     1       1.286   3.817  20.778  0.00  0.00    +0.000 A 
ATOM     16  C   UNL     1       0.798   2.770  19.999  0.00  0.00    +0.000 A 
ATOM     17  C   UNL     1       1.007   2.773  18.621  0.00  0.00    +0.000 A 
ATOM     18  C   UNL     1       1.703   3.824  18.015  0.00  0.00    +0.000 A 
ENDBRANCH  12  13
ENDBRANCH  11  12
ENDBRANCH   2  11
TORSDOF 4
ENDMDL
