MODEL 1
REMARK VINA RESULT:      -7.8      0.000      0.000
REMARK  Name = 
REMARK  15 active torsions:
REMARK  status: ('A' for Active; 'I' for Inactive)
REMARK    1  A    between atoms: C_1  and  C_2
REMARK    2  A    between atoms: C_2  and  C_3
REMARK    3  A    between atoms: C_2  and  C_4
REMARK    4  A    between atoms: C_4  and  C_5
REMARK    5  A    between atoms: C_5  and  N_6
REMARK    6  A    between atoms: C_5  and  C_28
REMARK    7  A    between atoms: C_7  and  C_9
REMARK    8  A    between atoms: C_9  and  N_10
REMARK    9  A    between atoms: C_13  and  C_14
REMARK   10  A    between atoms: C_14  and  C_15
REMARK   11  A    between atoms: C_28  and  O_30
REMARK   12  A    between atoms: O_30  and  C_31
REMARK   13  A    between atoms: C_31  and  C_32
REMARK   14  A    between atoms: C_31  and  C_33
REMARK   15  A    between atoms: C_31  and  C_34
REMARK                            x       y       z     vdW  Elec       q    Type
REMARK                         _______ _______ _______ _____ _____    ______ ____
ROOT
ATOM      1  N   UNL     1       2.187   6.681  19.935  0.00  0.00    +0.000 N 
ATOM      2  C   UNL     1       2.654   7.359  18.819  0.00  0.00    +0.000 A 
ATOM      3  O   UNL     1       2.637   8.577  18.688  0.00  0.00    +0.000 OA
ATOM      4  C   UNL     1       3.167   6.499  17.680  0.00  0.00    +0.000 A 
ATOM      5  N   UNL     1       2.921   5.225  17.591  0.00  0.00    +0.000 NA
ATOM      6  C   UNL     1       2.236   4.611  18.651  0.00  0.00    +0.000 A 
ATOM      7  C   UNL     1       1.933   3.254  18.513  0.00  0.00    +0.000 A 
ATOM      8  C   UNL     1       1.314   2.555  19.545  0.00  0.00    +0.000 A 
ATOM      9  C   UNL     1       1.004   3.209  20.733  0.00  0.00    +0.000 A 
ATOM     10  C   UNL     1       1.303   4.568  20.887  0.00  0.00    +0.000 A 
ATOM     11  C   UNL     1       1.913   5.285  19.848  0.00  0.00    +0.000 A 
ENDROOT
BRANCH   1  12
ATOM     12  C   UNL     1       1.869   7.463  21.125  0.00  0.00    +0.000 C 
BRANCH  12  14
ATOM     13  N   UNL     1       0.845   9.644  20.586  0.00  0.00    +0.000 N 
ATOM     14  C   UNL     1       0.625   8.349  21.002  0.00  0.00    +0.000 C 
ATOM     15  O   UNL     1      -0.484   7.934  21.326  0.00  0.00    +0.000 OA
ATOM     16  H   UNL     1       1.794  10.007  20.638  0.00  0.00    +0.000 HD
BRANCH  13  17
ATOM     17  C   UNL     1      -0.247  10.599  20.411  0.00  0.00    +0.000 C 
BRANCH  17  18
ATOM     18  C   UNL     1      -0.019  11.976  21.067  0.00  0.00    +0.000 C 
ATOM     19  O   UNL     1       1.091  12.318  21.472  0.00  0.00    +0.000 OA
BRANCH  18  20
ATOM     20  O   UNL     1      -1.159  12.719  21.214  0.00  0.00    +0.000 OA
BRANCH  20  21
ATOM     21  C   UNL     1      -1.792  12.786  22.527  0.00  0.00    +0.000 C 
ATOM     22  C   UNL     1      -1.181  13.896  23.394  0.00  0.00    +0.000 C 
ATOM     23  C   UNL     1      -3.276  13.137  22.298  0.00  0.00    +0.000 C 
ATOM     24  C   UNL     1      -1.749  11.415  23.222  0.00  0.00    +0.000 C 
ENDBRANCH  20  21
ENDBRANCH  18  20
ENDBRANCH  17  18
BRANCH  17  25
ATOM     25  C   UNL     1      -0.532  10.828  18.915  0.00  0.00    +0.000 C 
BRANCH  25  27
ATOM     26  C   UNL     1      -2.920  11.631  18.464  0.00  0.00    +0.000 C 
ATOM     27  C   UNL     1      -1.946  10.450  18.436  0.00  0.00    +0.000 C 
ATOM     28  C   UNL     1      -1.885   9.882  17.012  0.00  0.00    +0.000 C 
ENDBRANCH  25  27
ENDBRANCH  17  25
ENDBRANCH  13  17
ENDBRANCH  12  14
ENDBRANCH   1  12
BRANCH   4  29
ATOM     29  C   UNL     1       4.091   7.169  16.690  0.00  0.00    +0.000 C 
BRANCH  29  30
ATOM     30  C   UNL     1       5.307   6.303  16.456  0.00  0.00    +0.000 A 
ATOM     31  C   UNL     1       5.479   5.653  15.224  0.00  0.00    +0.000 A 
ATOM     32  C   UNL     1       6.527   4.754  15.036  0.00  0.00    +0.000 A 
ATOM     33  C   UNL     1       7.427   4.508  16.070  0.00  0.00    +0.000 A 
ATOM     34  C   UNL     1       7.287   5.175  17.287  0.00  0.00    +0.000 A 
ATOM     35  C   UNL     1       6.232   6.068  17.482  0.00  0.00    +0.000 A 
ENDBRANCH  29  30
ENDBRANCH   4  29
TORSDOF 10
ENDMDL
MODEL 2
REMARK VINA RESULT:      -7.7      0.798      1.057
REMARK  Name = 
REMARK  15 active torsions:
REMARK  status: ('A' for Active; 'I' for Inactive)
REMARK    1  A    between atoms: C_1  and  C_2
REMARK    2  A    between atoms: C_2  and  C_3
REMARK    3  A    between atoms: C_2  and  C_4
REMARK    4  A    between atoms: C_4  and  C_5
REMARK    5  A    between atoms: C_5  and  N_6
REMARK    6  A    between atoms: C_5  and  C_28
REMARK    7  A    between atoms: C_7  and  C_9
REMARK    8  A    between atoms: C_9  and  N_10
REMARK    9  A    between atoms: C_13  and  C_14
REMARK   10  A    between atoms: C_14  and  C_15
REMARK   11  A    between atoms: C_28  and  O_30
REMARK   12  A    between atoms: O_30  and  C_31
REMARK   13  A    between atoms: C_31  and  C_32
REMARK   14  A    between atoms: C_31  and  C_33
REMARK   15  A    between atoms: C_31  and  C_34
REMARK                            x       y       z     vdW  Elec       q    Type
REMARK                         _______ _______ _______ _____ _____    ______ ____
ROOT
ATOM      1  N   UNL     1       2.089   6.540  20.062  0.00  0.00    +0.000 N 
ATOM      2  C   UNL     1       2.521   7.279  18.971  0.00  0.00    +0.000 A 
ATOM      3  O   UNL     1       2.469   8.500  18.894  0.00  0.00    +0.000 OA
ATOM      4  C   UNL     1       3.039   6.483  17.789  0.00  0.00    +0.000 A 
ATOM      5  N   UNL     1       2.826   5.208  17.647  0.00  0.00    +0.000 NA
ATOM      6  C   UNL     1       2.173   4.530  18.688  0.00  0.00    +0.000 A 
ATOM      7  C   UNL     1       1.904   3.172  18.496  0.00  0.00    +0.000 A 
ATOM      8  C   UNL     1       1.320   2.413  19.505  0.00  0.00    +0.000 A 
ATOM      9  C   UNL     1       1.011   3.006  20.724  0.00  0.00    +0.000 A 
ATOM     10  C   UNL     1       1.276   4.364  20.933  0.00  0.00    +0.000 A 
ATOM     11  C   UNL     1       1.851   5.142  19.918  0.00  0.00    +0.000 A 
ENDROOT
BRANCH   1  12
ATOM     12  C   UNL     1       1.768   7.261  21.290  0.00  0.00    +0.000 C 
BRANCH  12  14
ATOM     13  N   UNL     1       0.846   9.537  21.039  0.00  0.00    +0.000 N 
ATOM     14  C   UNL     1       0.560   8.197  21.192  0.00  0.00    +0.000 C 
ATOM     15  O   UNL     1      -0.585   7.771  21.314  0.00  0.00    +0.000 OA
ATOM     16  H   UNL     1       1.788   9.852  21.257  0.00  0.00    +0.000 HD
BRANCH  13  17
ATOM     17  C   UNL     1      -0.205  10.546  20.918  0.00  0.00    +0.000 C 
BRANCH  17  18
ATOM     18  C   UNL     1      -0.414  11.419  22.172  0.00  0.00    +0.000 C 
ATOM     19  O   UNL     1      -0.515  10.922  23.292  0.00  0.00    +0.000 OA
BRANCH  18  20
ATOM     20  O   UNL     1      -0.548  12.756  21.903  0.00  0.00    +0.000 OA
BRANCH  20  21
ATOM     21  C   UNL     1      -1.740  13.453  22.376  0.00  0.00    +0.000 C 
ATOM     22  C   UNL     1      -1.487  14.162  23.714  0.00  0.00    +0.000 C 
ATOM     23  C   UNL     1      -2.077  14.534  21.331  0.00  0.00    +0.000 C 
ATOM     24  C   UNL     1      -2.940  12.494  22.445  0.00  0.00    +0.000 C 
ENDBRANCH  20  21
ENDBRANCH  18  20
ENDBRANCH  17  18
BRANCH  17  25
ATOM     25  C   UNL     1       0.077  11.483  19.730  0.00  0.00    +0.000 C 
BRANCH  25  27
ATOM     26  C   UNL     1      -0.797   9.927  17.895  0.00  0.00    +0.000 C 
ATOM     27  C   UNL     1      -0.857  11.325  18.515  0.00  0.00    +0.000 C 
ATOM     28  C   UNL     1      -2.304  11.634  18.920  0.00  0.00    +0.000 C 
ENDBRANCH  25  27
ENDBRANCH  17  25
ENDBRANCH  13  17
ENDBRANCH  12  14
ENDBRANCH   1  12
BRANCH   4  29
ATOM     29  C   UNL     1       3.930   7.220  16.816  0.00  0.00    +0.000 C 
BRANCH  29  30
ATOM     30  C   UNL     1       5.175   6.408  16.544  0.00  0.00    +0.000 A 
ATOM     31  C   UNL     1       5.321   5.737  15.320  0.00  0.00    +0.000 A 
ATOM     32  C   UNL     1       6.402   4.884  15.102  0.00  0.00    +0.000 A 
ATOM     33  C   UNL     1       7.360   4.707  16.098  0.00  0.00    +0.000 A 
ATOM     34  C   UNL     1       7.245   5.397  17.305  0.00  0.00    +0.000 A 
ATOM     35  C   UNL     1       6.157   6.243  17.529  0.00  0.00    +0.000 A 
ENDBRANCH  29  30
ENDBRANCH   4  29
TORSDOF 10
ENDMDL
MODEL 3
REMARK VINA RESULT:      -7.6      1.010      1.552
REMARK  Name = 
REMARK  15 active torsions:
REMARK  status: ('A' for Active; 'I' for Inactive)
REMARK    1  A    between atoms: C_1  and  C_2
REMARK    2  A    between atoms: C_2  and  C_3
REMARK    3  A    between atoms: C_2  and  C_4
REMARK    4  A    between atoms: C_4  and  C_5
REMARK    5  A    between atoms: C_5  and  N_6
REMARK    6  A    between atoms: C_5  and  C_28
REMARK    7  A    between atoms: C_7  and  C_9
REMARK    8  A    between atoms: C_9  and  N_10
REMARK    9  A    between atoms: C_13  and  C_14
REMARK   10  A    between atoms: C_14  and  C_15
REMARK   11  A    between atoms: C_28  and  O_30
REMARK   12  A    between atoms: O_30  and  C_31
REMARK   13  A    between atoms: C_31  and  C_32
REMARK   14  A    between atoms: C_31  and  C_33
REMARK   15  A    between atoms: C_31  and  C_34
REMARK                            x       y       z     vdW  Elec       q    Type
REMARK                         _______ _______ _______ _____ _____    ______ ____
ROOT
ATOM      1  N   UNL     1       2.140   6.638  19.975  0.00  0.00    +0.000 N 
ATOM      2  C   UNL     1       2.600   7.320  18.859  0.00  0.00    +0.000 A 
ATOM      3  O   UNL     1       2.565   8.538  18.725  0.00  0.00    +0.000 OA
ATOM      4  C   UNL     1       3.128   6.464  17.724  0.00  0.00    +0.000 A 
ATOM      5  N   UNL     1       2.900   5.187  17.638  0.00  0.00    +0.000 NA
ATOM      6  C   UNL     1       2.221   4.566  18.697  0.00  0.00    +0.000 A 
ATOM      7  C   UNL     1       1.939   3.204  18.563  0.00  0.00    +0.000 A 
ATOM      8  C   UNL     1       1.328   2.499  19.595  0.00  0.00    +0.000 A 
ATOM      9  C   UNL     1       1.005   3.152  20.780  0.00  0.00    +0.000 A 
ATOM     10  C   UNL     1       1.284   4.515  20.931  0.00  0.00    +0.000 A 
ATOM     11  C   UNL     1       1.886   5.238  19.892  0.00  0.00    +0.000 A 
ENDROOT
BRANCH   1  12
ATOM     12  C   UNL     1       1.807   7.419  21.163  0.00  0.00    +0.000 C 
BRANCH  12  14
ATOM     13  N   UNL     1       0.663   9.526  20.574  0.00  0.00    +0.000 N 
ATOM     14  C   UNL     1       0.520   8.242  21.055  0.00  0.00    +0.000 C 
ATOM     15  O   UNL     1      -0.555   7.793  21.442  0.00  0.00    +0.000 OA
ATOM     16  H   UNL     1       1.595   9.932  20.571  0.00  0.00    +0.000 HD
BRANCH  13  17
ATOM     17  C   UNL     1      -0.479  10.422  20.405  0.00  0.00    +0.000 C 
BRANCH  17  18
ATOM     18  C   UNL     1      -0.378  11.756  21.172  0.00  0.00    +0.000 C 
ATOM     19  O   UNL     1      -0.283  11.786  22.399  0.00  0.00    +0.000 OA
BRANCH  18  20
ATOM     20  O   UNL     1      -0.479  12.866  20.377  0.00  0.00    +0.000 OA
BRANCH  20  21
ATOM     21  C   UNL     1       0.656  13.780  20.296  0.00  0.00    +0.000 C 
ATOM     22  C   UNL     1       0.562  14.691  19.064  0.00  0.00    +0.000 C 
ATOM     23  C   UNL     1       0.605  14.679  21.546  0.00  0.00    +0.000 C 
ATOM     24  C   UNL     1       1.984  13.005  20.345  0.00  0.00    +0.000 C 
ENDBRANCH  20  21
ENDBRANCH  18  20
ENDBRANCH  17  18
BRANCH  17  25
ATOM     25  C   UNL     1      -0.694  10.749  18.915  0.00  0.00    +0.000 C 
BRANCH  25  27
ATOM     26  C   UNL     1      -3.065  11.554  18.385  0.00  0.00    +0.000 C 
ATOM     27  C   UNL     1      -2.078  10.385  18.343  0.00  0.00    +0.000 C 
ATOM     28  C   UNL     1      -1.937   9.896  16.896  0.00  0.00    +0.000 C 
ENDBRANCH  25  27
ENDBRANCH  17  25
ENDBRANCH  13  17
ENDBRANCH  12  14
ENDBRANCH   1  12
BRANCH   4  29
ATOM     29  C   UNL     1       4.045   7.145  16.734  0.00  0.00    +0.000 C 
BRANCH  29  30
ATOM     30  C   UNL     1       5.275   6.296  16.507  0.00  0.00    +0.000 A 
ATOM     31  C   UNL     1       5.448   5.627  15.285  0.00  0.00    +0.000 A 
ATOM     32  C   UNL     1       6.510   4.742  15.106  0.00  0.00    +0.000 A 
ATOM     33  C   UNL     1       7.422   4.532  16.137  0.00  0.00    +0.000 A 
ATOM     34  C   UNL     1       7.281   5.219  17.342  0.00  0.00    +0.000 A 
ATOM     35  C   UNL     1       6.212   6.098  17.529  0.00  0.00    +0.000 A 
ENDBRANCH  29  30
ENDBRANCH   4  29
TORSDOF 10
ENDMDL
MODEL 4
REMARK VINA RESULT:      -7.6      1.509      2.097
REMARK  Name = 
REMARK  15 active torsions:
REMARK  status: ('A' for Active; 'I' for Inactive)
REMARK    1  A    between atoms: C_1  and  C_2
REMARK    2  A    between atoms: C_2  and  C_3
REMARK    3  A    between atoms: C_2  and  C_4
REMARK    4  A    between atoms: C_4  and  C_5
REMARK    5  A    between atoms: C_5  and  N_6
REMARK    6  A    between atoms: C_5  and  C_28
REMARK    7  A    between atoms: C_7  and  C_9
REMARK    8  A    between atoms: C_9  and  N_10
REMARK    9  A    between atoms: C_13  and  C_14
REMARK   10  A    between atoms: C_14  and  C_15
REMARK   11  A    between atoms: C_28  and  O_30
REMARK   12  A    between atoms: O_30  and  C_31
REMARK   13  A    between atoms: C_31  and  C_32
REMARK   14  A    between atoms: C_31  and  C_33
REMARK   15  A    between atoms: C_31  and  C_34
REMARK                            x       y       z     vdW  Elec       q    Type
REMARK                         _______ _______ _______ _____ _____    ______ ____
ROOT
ATOM      1  N   UNL     1       2.243   7.054  19.707  0.00  0.00    +0.000 N 
ATOM      2  C   UNL     1       2.782   7.610  18.557  0.00  0.00    +0.000 A 
ATOM      3  O   UNL     1       2.764   8.805  18.287  0.00  0.00    +0.000 OA
ATOM      4  C   UNL     1       3.382   6.635  17.562  0.00  0.00    +0.000 A 
ATOM      5  N   UNL     1       3.154   5.356  17.602  0.00  0.00    +0.000 NA
ATOM      6  C   UNL     1       2.401   4.854  18.674  0.00  0.00    +0.000 A 
ATOM      7  C   UNL     1       2.120   3.485  18.671  0.00  0.00    +0.000 A 
ATOM      8  C   UNL     1       1.436   2.897  19.731  0.00  0.00    +0.000 A 
ATOM      9  C   UNL     1       1.037   3.676  20.812  0.00  0.00    +0.000 A 
ATOM     10  C   UNL     1       1.312   5.048  20.830  0.00  0.00    +0.000 A 
ATOM     11  C   UNL     1       1.988   5.653  19.761  0.00  0.00    +0.000 A 
ENDROOT
BRANCH   1  12
ATOM     12  C   UNL     1       1.834   7.961  20.776  0.00  0.00    +0.000 C 
BRANCH  12  14
ATOM     13  N   UNL     1       0.403   9.567  19.566  0.00  0.00    +0.000 N 
ATOM     14  C   UNL     1       0.471   8.627  20.571  0.00  0.00    +0.000 C 
ATOM     15  O   UNL     1      -0.476   8.376  21.312  0.00  0.00    +0.000 OA
ATOM     16  H   UNL     1       1.276   9.947  19.209  0.00  0.00    +0.000 HD
BRANCH  13  17
ATOM     17  C   UNL     1      -0.836  10.275  19.247  0.00  0.00    +0.000 C 
BRANCH  17  18
ATOM     18  C   UNL     1      -0.839  11.774  19.608  0.00  0.00    +0.000 C 
ATOM     19  O   UNL     1      -1.467  12.200  20.577  0.00  0.00    +0.000 OA
BRANCH  18  20
ATOM     20  O   UNL     1      -0.155  12.563  18.722  0.00  0.00    +0.000 OA
BRANCH  20  21
ATOM     21  C   UNL     1       1.115  13.149  19.137  0.00  0.00    +0.000 C 
ATOM     22  C   UNL     1       1.064  14.683  19.116  0.00  0.00    +0.000 C 
ATOM     23  C   UNL     1       1.363  12.710  20.594  0.00  0.00    +0.000 C 
ATOM     24  C   UNL     1       2.273  12.595  18.290  0.00  0.00    +0.000 C 
ENDBRANCH  20  21
ENDBRANCH  18  20
ENDBRANCH  17  18
BRANCH  17  25
ATOM     25  C   UNL     1      -1.161  10.148  17.747  0.00  0.00    +0.000 C 
BRANCH  25  27
ATOM     26  C   UNL     1      -2.743  10.735  15.823  0.00  0.00    +0.000 C 
ATOM     27  C   UNL     1      -2.589  10.553  17.335  0.00  0.00    +0.000 C 
ATOM     28  C   UNL     1      -3.595   9.503  17.821  0.00  0.00    +0.000 C 
ENDBRANCH  25  27
ENDBRANCH  17  25
ENDBRANCH  13  17
ENDBRANCH  12  14
ENDBRANCH   1  12
BRANCH   4  29
ATOM     29  C   UNL     1       4.368   7.205  16.568  0.00  0.00    +0.000 C 
BRANCH  29  30
ATOM     30  C   UNL     1       5.481   6.211  16.324  0.00  0.00    +0.000 A 
ATOM     31  C   UNL     1       5.539   5.510  15.109  0.00  0.00    +0.000 A 
ATOM     32  C   UNL     1       6.483   4.502  14.916  0.00  0.00    +0.000 A 
ATOM     33  C   UNL     1       7.390   4.196  15.927  0.00  0.00    +0.000 A 
ATOM     34  C   UNL     1       7.364   4.910  17.125  0.00  0.00    +0.000 A 
ATOM     35  C   UNL     1       6.414   5.913  17.325  0.00  0.00    +0.000 A 
ENDBRANCH  29  30
ENDBRANCH   4  29
TORSDOF 10
ENDMDL
MODEL 5
REMARK VINA RESULT:      -7.3      2.391      9.418
REMARK  Name = 
REMARK  15 active torsions:
REMARK  status: ('A' for Active; 'I' for Inactive)
REMARK    1  A    between atoms: C_1  and  C_2
REMARK    2  A    between atoms: C_2  and  C_3
REMARK    3  A    between atoms: C_2  and  C_4
REMARK    4  A    between atoms: C_4  and  C_5
REMARK    5  A    between atoms: C_5  and  N_6
REMARK    6  A    between atoms: C_5  and  C_28
REMARK    7  A    between atoms: C_7  and  C_9
REMARK    8  A    between atoms: C_9  and  N_10
REMARK    9  A    between atoms: C_13  and  C_14
REMARK   10  A    between atoms: C_14  and  C_15
REMARK   11  A    between atoms: C_28  and  O_30
REMARK   12  A    between atoms: O_30  and  C_31
REMARK   13  A    between atoms: C_31  and  C_32
REMARK   14  A    between atoms: C_31  and  C_33
REMARK   15  A    between atoms: C_31  and  C_34
REMARK                            x       y       z     vdW  Elec       q    Type
REMARK                         _______ _______ _______ _____ _____    ______ ____
ROOT
ATOM      1  N   UNL     1       0.083  10.444  18.431  0.00  0.00    +0.000 N 
ATOM      2  C   UNL     1      -1.064  10.077  17.743  0.00  0.00    +0.000 A 
ATOM      3  O   UNL     1      -1.075   9.403  16.720  0.00  0.00    +0.000 OA
ATOM      4  C   UNL     1      -2.373  10.609  18.294  0.00  0.00    +0.000 A 
ATOM      5  N   UNL     1      -2.433  11.583  19.154  0.00  0.00    +0.000 NA
ATOM      6  C   UNL     1      -1.227  12.088  19.662  0.00  0.00    +0.000 A 
ATOM      7  C   UNL     1      -1.310  13.169  20.544  0.00  0.00    +0.000 A 
ATOM      8  C   UNL     1      -0.166  13.687  21.144  0.00  0.00    +0.000 A 
ATOM      9  C   UNL     1       1.073  13.115  20.875  0.00  0.00    +0.000 A 
ATOM     10  C   UNL     1       1.172  12.031  19.996  0.00  0.00    +0.000 A 
ATOM     11  C   UNL     1       0.028  11.511  19.375  0.00  0.00    +0.000 A 
ENDROOT
BRANCH   1  12
ATOM     12  C   UNL     1       1.338   9.801  18.057  0.00  0.00    +0.000 C 
BRANCH  12  14
ATOM     13  N   UNL     1       2.442   7.602  18.255  0.00  0.00    +0.000 N 
ATOM     14  C   UNL     1       1.714   8.579  18.899  0.00  0.00    +0.000 C 
ATOM     15  O   UNL     1       1.322   8.461  20.057  0.00  0.00    +0.000 OA
ATOM     16  H   UNL     1       2.462   7.615  17.238  0.00  0.00    +0.000 HD
BRANCH  13  17
ATOM     17  C   UNL     1       2.882   6.386  18.935  0.00  0.00    +0.000 C 
BRANCH  17  18
ATOM     18  C   UNL     1       1.938   5.176  18.779  0.00  0.00    +0.000 C 
ATOM     19  O   UNL     1       1.506   4.836  17.679  0.00  0.00    +0.000 OA
BRANCH  18  20
ATOM     20  O   UNL     1       1.584   4.588  19.965  0.00  0.00    +0.000 OA
BRANCH  20  21
ATOM     21  C   UNL     1       1.800   3.155  20.132  0.00  0.00    +0.000 C 
ATOM     22  C   UNL     1       1.435   2.689  21.549  0.00  0.00    +0.000 C 
ATOM     23  C   UNL     1       0.857   2.437  19.147  0.00  0.00    +0.000 C 
ATOM     24  C   UNL     1       3.239   2.772  19.748  0.00  0.00    +0.000 C 
ENDBRANCH  20  21
ENDBRANCH  18  20
ENDBRANCH  17  18
BRANCH  17  25
ATOM     25  C   UNL     1       4.278   5.963  18.442  0.00  0.00    +0.000 C 
BRANCH  25  27
ATOM     26  C   UNL     1       5.257   6.612  16.168  0.00  0.00    +0.000 C 
ATOM     27  C   UNL     1       4.384   5.623  16.943  0.00  0.00    +0.000 C 
ATOM     28  C   UNL     1       4.947   4.207  16.764  0.00  0.00    +0.000 C 
ENDBRANCH  25  27
ENDBRANCH  17  25
ENDBRANCH  13  17
ENDBRANCH  12  14
ENDBRANCH   1  12
BRANCH   4  29
ATOM     29  C   UNL     1      -3.628   9.873  17.884  0.00  0.00    +0.000 C 
BRANCH  29  30
ATOM     30  C   UNL     1      -4.806  10.820  17.903  0.00  0.00    +0.000 A 
ATOM     31  C   UNL     1      -5.875  10.590  18.783  0.00  0.00    +0.000 A 
ATOM     32  C   UNL     1      -7.023  11.380  18.727  0.00  0.00    +0.000 A 
ATOM     33  C   UNL     1      -7.107  12.420  17.805  0.00  0.00    +0.000 A 
ATOM     34  C   UNL     1      -6.036  12.681  16.950  0.00  0.00    +0.000 A 
ATOM     35  C   UNL     1      -4.890  11.885  16.997  0.00  0.00    +0.000 A 
ENDBRANCH  29  30
ENDBRANCH   4  29
TORSDOF 10
ENDMDL
MODEL 6
REMARK VINA RESULT:      -7.3      1.631      2.303
REMARK  Name = 
REMARK  15 active torsions:
REMARK  status: ('A' for Active; 'I' for Inactive)
REMARK    1  A    between atoms: C_1  and  C_2
REMARK    2  A    between atoms: C_2  and  C_3
REMARK    3  A    between atoms: C_2  and  C_4
REMARK    4  A    between atoms: C_4  and  C_5
REMARK    5  A    between atoms: C_5  and  N_6
REMARK    6  A    between atoms: C_5  and  C_28
REMARK    7  A    between atoms: C_7  and  C_9
REMARK    8  A    between atoms: C_9  and  N_10
REMARK    9  A    between atoms: C_13  and  C_14
REMARK   10  A    between atoms: C_14  and  C_15
REMARK   11  A    between atoms: C_28  and  O_30
REMARK   12  A    between atoms: O_30  and  C_31
REMARK   13  A    between atoms: C_31  and  C_32
REMARK   14  A    between atoms: C_31  and  C_33
REMARK   15  A    between atoms: C_31  and  C_34
REMARK                            x       y       z     vdW  Elec       q    Type
REMARK                         _______ _______ _______ _____ _____    ______ ____
ROOT
ATOM      1  N   UNL     1       2.360   6.532  19.627  0.00  0.00    +0.000 N 
ATOM      2  C   UNL     1       3.022   7.058  18.527  0.00  0.00    +0.000 A 
ATOM      3  O   UNL     1       3.162   8.255  18.307  0.00  0.00    +0.000 OA
ATOM      4  C   UNL     1       3.550   6.052  17.522  0.00  0.00    +0.000 A 
ATOM      5  N   UNL     1       3.166   4.810  17.497  0.00  0.00    +0.000 NA
ATOM      6  C   UNL     1       2.303   4.368  18.511  0.00  0.00    +0.000 A 
ATOM      7  C   UNL     1       1.859   3.045  18.438  0.00  0.00    +0.000 A 
ATOM      8  C   UNL     1       1.054   2.508  19.439  0.00  0.00    +0.000 A 
ATOM      9  C   UNL     1       0.697   3.291  20.531  0.00  0.00    +0.000 A 
ATOM     10  C   UNL     1       1.135   4.617  20.620  0.00  0.00    +0.000 A 
ATOM     11  C   UNL     1       1.934   5.172  19.610  0.00  0.00    +0.000 A 
ENDROOT
BRANCH   1  12
ATOM     12  C   UNL     1       2.009   7.443  20.712  0.00  0.00    +0.000 C 
BRANCH  12  14
ATOM     13  N   UNL     1       0.701   9.198  19.569  0.00  0.00    +0.000 N 
ATOM     14  C   UNL     1       0.691   8.199  20.519  0.00  0.00    +0.000 C 
ATOM     15  O   UNL     1      -0.285   7.963  21.225  0.00  0.00    +0.000 OA
ATOM     16  H   UNL     1       1.603   9.546  19.252  0.00  0.00    +0.000 HD
BRANCH  13  17
ATOM     17  C   UNL     1      -0.487   9.994  19.268  0.00  0.00    +0.000 C 
BRANCH  17  18
ATOM     18  C   UNL     1      -0.553  11.359  19.982  0.00  0.00    +0.000 C 
ATOM     19  O   UNL     1      -1.613  11.807  20.417  0.00  0.00    +0.000 OA
BRANCH  18  20
ATOM     20  O   UNL     1       0.640  12.031  20.012  0.00  0.00    +0.000 OA
BRANCH  20  21
ATOM     21  C   UNL     1       0.689  13.401  19.512  0.00  0.00    +0.000 C 
ATOM     22  C   UNL     1       0.530  14.424  20.645  0.00  0.00    +0.000 C 
ATOM     23  C   UNL     1       2.085  13.607  18.890  0.00  0.00    +0.000 C 
ATOM     24  C   UNL     1      -0.344  13.609  18.392  0.00  0.00    +0.000 C 
ENDBRANCH  20  21
ENDBRANCH  18  20
ENDBRANCH  17  18
BRANCH  17  25
ATOM     25  C   UNL     1      -0.600  10.247  17.753  0.00  0.00    +0.000 C 
BRANCH  25  27
ATOM     26  C   UNL     1      -3.033   9.560  18.151  0.00  0.00    +0.000 C 
ATOM     27  C   UNL     1      -1.960   9.903  17.116  0.00  0.00    +0.000 C 
ATOM     28  C   UNL     1      -2.448  11.074  16.254  0.00  0.00    +0.000 C 
ENDBRANCH  25  27
ENDBRANCH  17  25
ENDBRANCH  13  17
ENDBRANCH  12  14
ENDBRANCH   1  12
BRANCH   4  29
ATOM     29  C   UNL     1       4.648   6.531  16.600  0.00  0.00    +0.000 C 
BRANCH  29  30
ATOM     30  C   UNL     1       5.919   6.750  17.389  0.00  0.00    +0.000 A 
ATOM     31  C   UNL     1       6.678   7.914  17.186  0.00  0.00    +0.000 A 
ATOM     32  C   UNL     1       7.914   8.072  17.811  0.00  0.00    +0.000 A 
ATOM     33  C   UNL     1       8.396   7.080  18.661  0.00  0.00    +0.000 A 
ATOM     34  C   UNL     1       7.634   5.936  18.898  0.00  0.00    +0.000 A 
ATOM     35  C   UNL     1       6.401   5.769  18.265  0.00  0.00    +0.000 A 
ENDBRANCH  29  30
ENDBRANCH   4  29
TORSDOF 10
ENDMDL
MODEL 7
REMARK VINA RESULT:      -7.2      1.012      1.497
REMARK  Name = 
REMARK  15 active torsions:
REMARK  status: ('A' for Active; 'I' for Inactive)
REMARK    1  A    between atoms: C_1  and  C_2
REMARK    2  A    between atoms: C_2  and  C_3
REMARK    3  A    between atoms: C_2  and  C_4
REMARK    4  A    between atoms: C_4  and  C_5
REMARK    5  A    between atoms: C_5  and  N_6
REMARK    6  A    between atoms: C_5  and  C_28
REMARK    7  A    between atoms: C_7  and  C_9
REMARK    8  A    between atoms: C_9  and  N_10
REMARK    9  A    between atoms: C_13  and  C_14
REMARK   10  A    between atoms: C_14  and  C_15
REMARK   11  A    between atoms: C_28  and  O_30
REMARK   12  A    between atoms: O_30  and  C_31
REMARK   13  A    between atoms: C_31  and  C_32
REMARK   14  A    between atoms: C_31  and  C_33
REMARK   15  A    between atoms: C_31  and  C_34
REMARK                            x       y       z     vdW  Elec       q    Type
REMARK                         _______ _______ _______ _____ _____    ______ ____
ROOT
ATOM      1  N   UNL     1       2.173   6.714  20.002  0.00  0.00    +0.000 N 
ATOM      2  C   UNL     1       2.598   7.380  18.862  0.00  0.00    +0.000 A 
ATOM      3  O   UNL     1       2.542   8.594  18.706  0.00  0.00    +0.000 OA
ATOM      4  C   UNL     1       3.113   6.509  17.733  0.00  0.00    +0.000 A 
ATOM      5  N   UNL     1       2.902   5.228  17.676  0.00  0.00    +0.000 NA
ATOM      6  C   UNL     1       2.257   4.618  18.763  0.00  0.00    +0.000 A 
ATOM      7  C   UNL     1       1.991   3.250  18.661  0.00  0.00    +0.000 A 
ATOM      8  C   UNL     1       1.413   2.557  19.720  0.00  0.00    +0.000 A 
ATOM      9  C   UNL     1       1.108   3.228  20.900  0.00  0.00    +0.000 A 
ATOM     10  C   UNL     1       1.370   4.598  21.018  0.00  0.00    +0.000 A 
ATOM     11  C   UNL     1       1.938   5.309  19.951  0.00  0.00    +0.000 A 
ENDROOT
BRANCH   1  12
ATOM     12  C   UNL     1       1.856   7.513  21.182  0.00  0.00    +0.000 C 
BRANCH  12  14
ATOM     13  N   UNL     1       0.629   9.579  20.615  0.00  0.00    +0.000 N 
ATOM     14  C   UNL     1       0.539   8.291  21.099  0.00  0.00    +0.000 C 
ATOM     15  O   UNL     1      -0.511   7.806  21.508  0.00  0.00    +0.000 OA
ATOM     16  H   UNL     1       1.546  10.017  20.592  0.00  0.00    +0.000 HD
BRANCH  13  17
ATOM     17  C   UNL     1      -0.546  10.436  20.468  0.00  0.00    +0.000 C 
BRANCH  17  18
ATOM     18  C   UNL     1      -0.859  11.325  21.688  0.00  0.00    +0.000 C 
ATOM     19  O   UNL     1      -0.195  11.255  22.722  0.00  0.00    +0.000 OA
BRANCH  18  20
ATOM     20  O   UNL     1      -1.964  12.119  21.531  0.00  0.00    +0.000 OA
BRANCH  20  21
ATOM     21  C   UNL     1      -1.996  13.420  22.191  0.00  0.00    +0.000 C 
ATOM     22  C   UNL     1      -0.581  13.961  22.444  0.00  0.00    +0.000 C 
ATOM     23  C   UNL     1      -2.704  14.397  21.232  0.00  0.00    +0.000 C 
ATOM     24  C   UNL     1      -2.832  13.356  23.479  0.00  0.00    +0.000 C 
ENDBRANCH  20  21
ENDBRANCH  18  20
ENDBRANCH  17  18
BRANCH  17  25
ATOM     25  C   UNL     1      -0.397  11.352  19.239  0.00  0.00    +0.000 C 
BRANCH  25  27
ATOM     26  C   UNL     1       1.952  12.097  18.550  0.00  0.00    +0.000 C 
ATOM     27  C   UNL     1       0.689  12.440  19.342  0.00  0.00    +0.000 C 
ATOM     28  C   UNL     1       0.136  13.784  18.851  0.00  0.00    +0.000 C 
ENDBRANCH  25  27
ENDBRANCH  17  25
ENDBRANCH  13  17
ENDBRANCH  12  14
ENDBRANCH   1  12
BRANCH   4  29
ATOM     29  C   UNL     1       3.997   7.184  16.709  0.00  0.00    +0.000 C 
BRANCH  29  30
ATOM     30  C   UNL     1       5.248   6.363  16.493  0.00  0.00    +0.000 A 
ATOM     31  C   UNL     1       5.418   5.647  15.297  0.00  0.00    +0.000 A 
ATOM     32  C   UNL     1       6.504   4.788  15.133  0.00  0.00    +0.000 A 
ATOM     33  C   UNL     1       7.442   4.650  16.154  0.00  0.00    +0.000 A 
ATOM     34  C   UNL     1       7.303   5.385  17.331  0.00  0.00    +0.000 A 
ATOM     35  C   UNL     1       6.211   6.237  17.502  0.00  0.00    +0.000 A 
ENDBRANCH  29  30
ENDBRANCH   4  29
TORSDOF 10
ENDMDL
MODEL 8
REMARK VINA RESULT:      -7.2      1.834      3.180
REMARK  Name = 
REMARK  15 active torsions:
REMARK  status: ('A' for Active; 'I' for Inactive)
REMARK    1  A    between atoms: C_1  and  C_2
REMARK    2  A    between atoms: C_2  and  C_3
REMARK    3  A    between atoms: C_2  and  C_4
REMARK    4  A    between atoms: C_4  and  C_5
REMARK    5  A    between atoms: C_5  and  N_6
REMARK    6  A    between atoms: C_5  and  C_28
REMARK    7  A    between atoms: C_7  and  C_9
REMARK    8  A    between atoms: C_9  and  N_10
REMARK    9  A    between atoms: C_13  and  C_14
REMARK   10  A    between atoms: C_14  and  C_15
REMARK   11  A    between atoms: C_28  and  O_30
REMARK   12  A    between atoms: O_30  and  C_31
REMARK   13  A    between atoms: C_31  and  C_32
REMARK   14  A    between atoms: C_31  and  C_33
REMARK   15  A    between atoms: C_31  and  C_34
REMARK                            x       y       z     vdW  Elec       q    Type
REMARK                         _______ _______ _______ _____ _____    ______ ____
ROOT
ATOM      1  N   UNL     1       2.686   6.268  19.007  0.00  0.00    +0.000 N 
ATOM      2  C   UNL     1       3.503   6.650  17.954  0.00  0.00    +0.000 A 
ATOM      3  O   UNL     1       3.753   7.811  17.653  0.00  0.00    +0.000 OA
ATOM      4  C   UNL     1       4.068   5.526  17.106  0.00  0.00    +0.000 A 
ATOM      5  N   UNL     1       3.602   4.313  17.139  0.00  0.00    +0.000 NA
ATOM      6  C   UNL     1       2.600   4.018  18.076  0.00  0.00    +0.000 A 
ATOM      7  C   UNL     1       2.073   2.724  18.062  0.00  0.00    +0.000 A 
ATOM      8  C   UNL     1       1.125   2.331  19.000  0.00  0.00    +0.000 A 
ATOM      9  C   UNL     1       0.703   3.231  19.973  0.00  0.00    +0.000 A 
ATOM     10  C   UNL     1       1.222   4.530  20.003  0.00  0.00    +0.000 A 
ATOM     11  C   UNL     1       2.168   4.940  19.053  0.00  0.00    +0.000 A 
ENDROOT
BRANCH   1  12
ATOM     12  C   UNL     1       2.280   7.294  19.963  0.00  0.00    +0.000 C 
BRANCH  12  14
ATOM     13  N   UNL     1       1.357   9.572  20.196  0.00  0.00    +0.000 N 
ATOM     14  C   UNL     1       1.577   8.508  19.348  0.00  0.00    +0.000 C 
ATOM     15  O   UNL     1       1.179   8.490  18.187  0.00  0.00    +0.000 OA
ATOM     16  H   UNL     1       1.423   9.405  21.197  0.00  0.00    +0.000 HD
BRANCH  13  17
ATOM     17  C   UNL     1       0.708  10.802  19.746  0.00  0.00    +0.000 C 
BRANCH  17  18
ATOM     18  C   UNL     1      -0.820  10.844  19.951  0.00  0.00    +0.000 C 
ATOM     19  O   UNL     1      -1.322  11.399  20.927  0.00  0.00    +0.000 OA
BRANCH  18  20
ATOM     20  O   UNL     1      -1.529  10.155  19.003  0.00  0.00    +0.000 OA
BRANCH  20  21
ATOM     21  C   UNL     1      -2.184  10.900  17.934  0.00  0.00    +0.000 C 
ATOM     22  C   UNL     1      -1.410  12.178  17.579  0.00  0.00    +0.000 C 
ATOM     23  C   UNL     1      -2.187   9.995  16.686  0.00  0.00    +0.000 C 
ATOM     24  C   UNL     1      -3.651  11.190  18.292  0.00  0.00    +0.000 C 
ENDBRANCH  20  21
ENDBRANCH  18  20
ENDBRANCH  17  18
BRANCH  17  25
ATOM     25  C   UNL     1       1.315  12.025  20.456  0.00  0.00    +0.000 C 
BRANCH  25  27
ATOM     26  C   UNL     1       2.438  12.460  18.198  0.00  0.00    +0.000 C 
ATOM     27  C   UNL     1       2.014  13.052  19.544  0.00  0.00    +0.000 C 
ATOM     28  C   UNL     1       1.091  14.252  19.299  0.00  0.00    +0.000 C 
ENDBRANCH  25  27
ENDBRANCH  17  25
ENDBRANCH  13  17
ENDBRANCH  12  14
ENDBRANCH   1  12
BRANCH   4  29
ATOM     29  C   UNL     1       5.295   5.851  16.285  0.00  0.00    +0.000 C 
BRANCH  29  30
ATOM     30  C   UNL     1       6.438   6.227  17.199  0.00  0.00    +0.000 A 
ATOM     31  C   UNL     1       6.831   5.355  18.226  0.00  0.00    +0.000 A 
ATOM     32  C   UNL     1       7.797   5.740  19.154  0.00  0.00    +0.000 A 
ATOM     33  C   UNL     1       8.396   6.993  19.055  0.00  0.00    +0.000 A 
ATOM     34  C   UNL     1       8.040   7.855  18.018  0.00  0.00    +0.000 A 
ATOM     35  C   UNL     1       7.065   7.476  17.093  0.00  0.00    +0.000 A 
ENDBRANCH  29  30
ENDBRANCH   4  29
TORSDOF 10
ENDMDL
MODEL 9
REMARK VINA RESULT:      -7.1      1.311      1.706
REMARK  Name = 
REMARK  15 active torsions:
REMARK  status: ('A' for Active; 'I' for Inactive)
REMARK    1  A    between atoms: C_1  and  C_2
REMARK    2  A    between atoms: C_2  and  C_3
REMARK    3  A    between atoms: C_2  and  C_4
REMARK    4  A    between atoms: C_4  and  C_5
REMARK    5  A    between atoms: C_5  and  N_6
REMARK    6  A    between atoms: C_5  and  C_28
REMARK    7  A    between atoms: C_7  and  C_9
REMARK    8  A    between atoms: C_9  and  N_10
REMARK    9  A    between atoms: C_13  and  C_14
REMARK   10  A    between atoms: C_14  and  C_15
REMARK   11  A    between atoms: C_28  and  O_30
REMARK   12  A    between atoms: O_30  and  C_31
REMARK   13  A    between atoms: C_31  and  C_32
REMARK   14  A    between atoms: C_31  and  C_33
REMARK   15  A    between atoms: C_31  and  C_34
REMARK                            x       y       z     vdW  Elec       q    Type
REMARK                         _______ _______ _______ _____ _____    ______ ____
ROOT
ATOM      1  N   UNL     1       2.066   6.546  20.121  0.00  0.00    +0.000 N 
ATOM      2  C   UNL     1       2.496   7.296  19.037  0.00  0.00    +0.000 A 
ATOM      3  O   UNL     1       2.416   8.517  18.961  0.00  0.00    +0.000 OA
ATOM      4  C   UNL     1       3.049   6.515  17.861  0.00  0.00    +0.000 A 
ATOM      5  N   UNL     1       2.868   5.236  17.715  0.00  0.00    +0.000 NA
ATOM      6  C   UNL     1       2.217   4.541  18.745  0.00  0.00    +0.000 A 
ATOM      7  C   UNL     1       1.983   3.177  18.547  0.00  0.00    +0.000 A 
ATOM      8  C   UNL     1       1.403   2.403  19.546  0.00  0.00    +0.000 A 
ATOM      9  C   UNL     1       1.062   2.986  20.762  0.00  0.00    +0.000 A 
ATOM     10  C   UNL     1       1.292   4.350  20.977  0.00  0.00    +0.000 A 
ATOM     11  C   UNL     1       1.863   5.143  19.971  0.00  0.00    +0.000 A 
ENDROOT
BRANCH   1  12
ATOM     12  C   UNL     1       1.710   7.256  21.345  0.00  0.00    +0.000 C 
BRANCH  12  14
ATOM     13  N   UNL     1       1.056   9.637  21.377  0.00  0.00    +0.000 N 
ATOM     14  C   UNL     1       0.639   8.338  21.176  0.00  0.00    +0.000 C 
ATOM     15  O   UNL     1      -0.529   8.043  20.944  0.00  0.00    +0.000 OA
ATOM     16  H   UNL     1       1.937   9.785  21.863  0.00  0.00    +0.000 HD
BRANCH  13  17
ATOM     17  C   UNL     1       0.147  10.773  21.237  0.00  0.00    +0.000 C 
BRANCH  17  18
ATOM     18  C   UNL     1      -0.618  11.155  22.520  0.00  0.00    +0.000 C 
ATOM     19  O   UNL     1      -1.058  10.298  23.285  0.00  0.00    +0.000 OA
BRANCH  18  20
ATOM     20  O   UNL     1      -0.816  12.502  22.671  0.00  0.00    +0.000 OA
BRANCH  20  21
ATOM     21  C   UNL     1      -2.143  13.051  22.413  0.00  0.00    +0.000 C 
ATOM     22  C   UNL     1      -2.746  12.490  21.118  0.00  0.00    +0.000 C 
ATOM     23  C   UNL     1      -3.051  12.611  23.579  0.00  0.00    +0.000 C 
ATOM     24  C   UNL     1      -2.107  14.589  22.419  0.00  0.00    +0.000 C 
ENDBRANCH  20  21
ENDBRANCH  18  20
ENDBRANCH  17  18
BRANCH  17  25
ATOM     25  C   UNL     1       0.910  12.020  20.752  0.00  0.00    +0.000 C 
BRANCH  25  27
ATOM     26  C   UNL     1       0.106  13.825  19.126  0.00  0.00    +0.000 C 
ATOM     27  C   UNL     1       0.681  12.415  19.281  0.00  0.00    +0.000 C 
ATOM     28  C   UNL     1       1.997  12.320  18.499  0.00  0.00    +0.000 C 
ENDBRANCH  25  27
ENDBRANCH  17  25
ENDBRANCH  13  17
ENDBRANCH  12  14
ENDBRANCH   1  12
BRANCH   4  29
ATOM     29  C   UNL     1       3.936   7.275  16.902  0.00  0.00    +0.000 C 
BRANCH  29  30
ATOM     30  C   UNL     1       5.179   6.468  16.604  0.00  0.00    +0.000 A 
ATOM     31  C   UNL     1       5.309   5.810  15.371  0.00  0.00    +0.000 A 
ATOM     32  C   UNL     1       6.389   4.962  15.130  0.00  0.00    +0.000 A 
ATOM     33  C   UNL     1       7.360   4.777  16.110  0.00  0.00    +0.000 A 
ATOM     34  C   UNL     1       7.261   5.454  17.325  0.00  0.00    +0.000 A 
ATOM     35  C   UNL     1       6.175   6.296  17.574  0.00  0.00    +0.000 A 
ENDBRANCH  29  30
ENDBRANCH   4  29
TORSDOF 10
ENDMDL
