MODEL 1
REMARK VINA RESULT:      -7.0      0.000      0.000
REMARK  Name = 
REMARK  7 active torsions:
REMARK  status: ('A' for Active; 'I' for Inactive)
REMARK    1  A    between atoms: C_1  and  O_2
REMARK    2  A    between atoms: O_2  and  C_3
REMARK    3  A    between atoms: C_7  and  N_8
REMARK    4  A    between atoms: N_8  and  C_9
REMARK    5  A    between atoms: C_9  and  N_11
REMARK    6  A    between atoms: N_11  and  N_12
REMARK    7  A    between atoms: C_13  and  C_15
REMARK                            x       y       z     vdW  Elec       q    Type
REMARK                         _______ _______ _______ _____ _____    ______ ____
ROOT
ATOM      1  C   UNL     1       2.438   4.560  20.231  0.00  0.00    +0.000 C 
ATOM      2  S   UNL     1       0.944   3.826  20.273  0.00  0.00    +0.000 S 
ENDROOT
BRANCH   1   3
ATOM      3  N   UNL     1       2.781   5.889  20.407  0.00  0.00    +0.000 N 
ATOM      4  H   UNL     1       3.629   5.970  20.957  0.00  0.00    +0.000 HD
BRANCH   3   9
ATOM      5  C   UNL     1       1.216   9.167  19.747  0.00  0.00    +0.000 A 
ATOM      6  C   UNL     1       1.568   9.394  18.418  0.00  0.00    +0.000 A 
ATOM      7  C   UNL     1       2.336   8.458  17.726  0.00  0.00    +0.000 A 
ATOM      8  C   UNL     1       2.758   7.287  18.361  0.00  0.00    +0.000 A 
ATOM      9  C   UNL     1       2.413   7.046  19.691  0.00  0.00    +0.000 A 
ATOM     10  C   UNL     1       1.612   7.980  20.367  0.00  0.00    +0.000 A 
BRANCH   5  12
ATOM     11  C   UNL     1      -0.631  10.625  19.520  0.00  0.00    +0.000 C 
ATOM     12  O   UNL     1       0.432  10.127  20.326  0.00  0.00    +0.000 OA
ENDBRANCH   5  12
ENDBRANCH   3   9
ENDBRANCH   1   3
BRANCH   1  13
ATOM     13  N   UNL     1       3.543   3.779  19.927  0.00  0.00    +0.000 N 
ATOM     14  H   UNL     1       3.878   3.108  20.619  0.00  0.00    +0.000 HD
BRANCH  13  15
ATOM     15  N   UNL     1       4.473   4.244  18.994  0.00  0.00    +0.000 N 
ATOM     16  C   UNL     1       4.346   3.908  17.663  0.00  0.00    +0.000 C 
ATOM     17  O   UNL     1       3.423   3.247  17.198  0.00  0.00    +0.000 OA
ATOM     18  H   UNL     1       5.236   4.806  19.355  0.00  0.00    +0.000 HD
BRANCH  16  19
ATOM     19  C   UNL     1       5.417   4.444  16.784  0.00  0.00    +0.000 A 
ATOM     20  C   UNL     1       5.636   3.941  15.500  0.00  0.00    +0.000 A 
ATOM     21  C   UNL     1       6.690   4.461  14.774  0.00  0.00    +0.000 A 
ATOM     22  N   UNL     1       7.510   5.426  15.237  0.00  0.00    +0.000 NA
ATOM     23  C   UNL     1       7.258   5.912  16.473  0.00  0.00    +0.000 A 
ATOM     24  C   UNL     1       6.230   5.463  17.279  0.00  0.00    +0.000 A 
ENDBRANCH  16  19
ENDBRANCH  13  15
ENDBRANCH   1  13
TORSDOF 6
ENDMDL
MODEL 2
REMARK VINA RESULT:      -6.9      3.959      7.598
REMARK  Name = 
REMARK  7 active torsions:
REMARK  status: ('A' for Active; 'I' for Inactive)
REMARK    1  A    between atoms: C_1  and  O_2
REMARK    2  A    between atoms: O_2  and  C_3
REMARK    3  A    between atoms: C_7  and  N_8
REMARK    4  A    between atoms: N_8  and  C_9
REMARK    5  A    between atoms: C_9  and  N_11
REMARK    6  A    between atoms: N_11  and  N_12
REMARK    7  A    between atoms: C_13  and  C_15
REMARK                            x       y       z     vdW  Elec       q    Type
REMARK                         _______ _______ _______ _____ _____    ______ ____
ROOT
ATOM      1  C   UNL     1       6.259   5.121  16.910  0.00  0.00    +0.000 C 
ATOM      2  S   UNL     1       6.928   6.456  17.647  0.00  0.00    +0.000 S 
ENDROOT
BRANCH   1   3
ATOM      3  N   UNL     1       5.655   4.998  15.671  0.00  0.00    +0.000 N 
ATOM      4  H   UNL     1       4.758   5.472  15.662  0.00  0.00    +0.000 HD
BRANCH   3   9
ATOM      5  C   UNL     1       5.947   3.379  12.367  0.00  0.00    +0.000 A 
ATOM      6  C   UNL     1       7.119   3.946  11.868  0.00  0.00    +0.000 A 
ATOM      7  C   UNL     1       7.823   4.880  12.626  0.00  0.00    +0.000 A 
ATOM      8  C   UNL     1       7.360   5.253  13.891  0.00  0.00    +0.000 A 
ATOM      9  C   UNL     1       6.189   4.694  14.402  0.00  0.00    +0.000 A 
ATOM     10  C   UNL     1       5.506   3.730  13.643  0.00  0.00    +0.000 A 
BRANCH   5  12
ATOM     11  C   UNL     1       6.132   1.295  11.263  0.00  0.00    +0.000 C 
ATOM     12  O   UNL     1       5.349   2.448  11.562  0.00  0.00    +0.000 OA
ENDBRANCH   5  12
ENDBRANCH   3   9
ENDBRANCH   1   3
BRANCH   1  13
ATOM     13  N   UNL     1       6.228   3.929  17.618  0.00  0.00    +0.000 N 
ATOM     14  H   UNL     1       6.646   3.097  17.202  0.00  0.00    +0.000 HD
BRANCH  13  15
ATOM     15  N   UNL     1       5.226   3.726  18.571  0.00  0.00    +0.000 N 
ATOM     16  C   UNL     1       3.923   3.521  18.173  0.00  0.00    +0.000 C 
ATOM     17  O   UNL     1       3.556   3.450  17.004  0.00  0.00    +0.000 OA
ATOM     18  H   UNL     1       5.512   3.765  19.544  0.00  0.00    +0.000 HD
BRANCH  16  19
ATOM     19  C   UNL     1       2.955   3.348  19.286  0.00  0.00    +0.000 A 
ATOM     20  C   UNL     1       1.623   3.751  19.173  0.00  0.00    +0.000 A 
ATOM     21  C   UNL     1       0.808   3.603  20.278  0.00  0.00    +0.000 A 
ATOM     22  N   UNL     1       1.229   3.091  21.452  0.00  0.00    +0.000 NA
ATOM     23  C   UNL     1       2.516   2.686  21.525  0.00  0.00    +0.000 A 
ATOM     24  C   UNL     1       3.412   2.787  20.479  0.00  0.00    +0.000 A 
ENDBRANCH  16  19
ENDBRANCH  13  15
ENDBRANCH   1  13
TORSDOF 6
ENDMDL
MODEL 3
REMARK VINA RESULT:      -6.8      2.179      6.125
REMARK  Name = 
REMARK  7 active torsions:
REMARK  status: ('A' for Active; 'I' for Inactive)
REMARK    1  A    between atoms: C_1  and  O_2
REMARK    2  A    between atoms: O_2  and  C_3
REMARK    3  A    between atoms: C_7  and  N_8
REMARK    4  A    between atoms: N_8  and  C_9
REMARK    5  A    between atoms: C_9  and  N_11
REMARK    6  A    between atoms: N_11  and  N_12
REMARK    7  A    between atoms: C_13  and  C_15
REMARK                            x       y       z     vdW  Elec       q    Type
REMARK                         _______ _______ _______ _____ _____    ______ ____
ROOT
ATOM      1  C   UNL     1       4.303   3.232  19.343  0.00  0.00    +0.000 C 
ATOM      2  S   UNL     1       3.441   1.987  18.651  0.00  0.00    +0.000 S 
ENDROOT
BRANCH   1   3
ATOM      3  N   UNL     1       5.634   3.582  19.195  0.00  0.00    +0.000 N 
ATOM      4  H   UNL     1       6.236   2.788  19.387  0.00  0.00    +0.000 HD
BRANCH   3   9
ATOM      5  C   UNL     1       6.563   5.741  16.348  0.00  0.00    +0.000 A 
ATOM      6  C   UNL     1       7.392   6.682  16.956  0.00  0.00    +0.000 A 
ATOM      7  C   UNL     1       7.648   6.610  18.324  0.00  0.00    +0.000 A 
ATOM      8  C   UNL     1       7.075   5.595  19.096  0.00  0.00    +0.000 A 
ATOM      9  C   UNL     1       6.243   4.647  18.501  0.00  0.00    +0.000 A 
ATOM     10  C   UNL     1       6.019   4.710  17.116  0.00  0.00    +0.000 A 
BRANCH   5  12
ATOM     11  C   UNL     1       6.772   4.743  14.214  0.00  0.00    +0.000 C 
ATOM     12  O   UNL     1       6.403   5.876  14.996  0.00  0.00    +0.000 OA
ENDBRANCH   5  12
ENDBRANCH   3   9
ENDBRANCH   1   3
BRANCH   1  13
ATOM     13  N   UNL     1       3.655   4.049  20.257  0.00  0.00    +0.000 N 
ATOM     14  H   UNL     1       3.074   3.620  20.977  0.00  0.00    +0.000 HD
BRANCH  13  15
ATOM     15  N   UNL     1       3.357   5.368  19.904  0.00  0.00    +0.000 N 
ATOM     16  C   UNL     1       2.107   5.888  20.162  0.00  0.00    +0.000 C 
ATOM     17  O   UNL     1       1.209   5.286  20.742  0.00  0.00    +0.000 OA
ATOM     18  H   UNL     1       4.092   5.889  19.437  0.00  0.00    +0.000 HD
BRANCH  16  19
ATOM     19  C   UNL     1       1.915   7.290  19.708  0.00  0.00    +0.000 A 
ATOM     20  C   UNL     1       1.306   8.249  20.521  0.00  0.00    +0.000 A 
ATOM     21  C   UNL     1       1.119   9.513  19.996  0.00  0.00    +0.000 A 
ATOM     22  N   UNL     1       1.492   9.867  18.750  0.00  0.00    +0.000 NA
ATOM     23  C   UNL     1       2.102   8.925  17.996  0.00  0.00    +0.000 A 
ATOM     24  C   UNL     1       2.340   7.634  18.425  0.00  0.00    +0.000 A 
ENDBRANCH  16  19
ENDBRANCH  13  15
ENDBRANCH   1  13
TORSDOF 6
ENDMDL
MODEL 4
REMARK VINA RESULT:      -6.8      3.380      4.406
REMARK  Name = 
REMARK  7 active torsions:
REMARK  status: ('A' for Active; 'I' for Inactive)
REMARK    1  A    between atoms: C_1  and  O_2
REMARK    2  A    between atoms: O_2  and  C_3
REMARK    3  A    between atoms: C_7  and  N_8
REMARK    4  A    between atoms: N_8  and  C_9
REMARK    5  A    between atoms: C_9  and  N_11
REMARK    6  A    between atoms: N_11  and  N_12
REMARK    7  A    between atoms: C_13  and  C_15
REMARK                            x       y       z     vdW  Elec       q    Type
REMARK                         _______ _______ _______ _____ _____    ______ ____
ROOT
ATOM      1  C   UNL     1       6.813   5.439  18.713  0.00  0.00    +0.000 C 
ATOM      2  S   UNL     1       7.835   6.740  18.528  0.00  0.00    +0.000 S 
ENDROOT
BRANCH   1   3
ATOM      3  N   UNL     1       5.698   5.292  19.520  0.00  0.00    +0.000 N 
ATOM      4  H   UNL     1       5.898   5.597  20.466  0.00  0.00    +0.000 HD
BRANCH   3   9
ATOM      5  C   UNL     1       2.297   3.858  19.467  0.00  0.00    +0.000 A 
ATOM      6  C   UNL     1       1.614   4.759  18.652  0.00  0.00    +0.000 A 
ATOM      7  C   UNL     1       2.279   5.859  18.113  0.00  0.00    +0.000 A 
ATOM      8  C   UNL     1       3.634   6.066  18.387  0.00  0.00    +0.000 A 
ATOM      9  C   UNL     1       4.329   5.173  19.201  0.00  0.00    +0.000 A 
ATOM     10  C   UNL     1       3.657   4.050  19.711  0.00  0.00    +0.000 A 
BRANCH   5  12
ATOM     11  C   UNL     1       1.346   2.746  21.325  0.00  0.00    +0.000 C 
ATOM     12  O   UNL     1       1.565   2.793  19.918  0.00  0.00    +0.000 OA
ENDBRANCH   5  12
ENDBRANCH   3   9
ENDBRANCH   1   3
BRANCH   1  13
ATOM     13  N   UNL     1       7.100   4.276  18.015  0.00  0.00    +0.000 N 
ATOM     14  H   UNL     1       7.549   3.504  18.507  0.00  0.00    +0.000 HD
BRANCH  13  15
ATOM     15  N   UNL     1       7.282   4.337  16.631  0.00  0.00    +0.000 N 
ATOM     16  C   UNL     1       6.207   4.175  15.783  0.00  0.00    +0.000 C 
ATOM     17  O   UNL     1       5.046   4.024  16.153  0.00  0.00    +0.000 OA
ATOM     18  H   UNL     1       8.232   4.477  16.304  0.00  0.00    +0.000 HD
BRANCH  16  19
ATOM     19  C   UNL     1       6.544   4.233  14.338  0.00  0.00    +0.000 A 
ATOM     20  C   UNL     1       6.025   3.313  13.424  0.00  0.00    +0.000 A 
ATOM     21  C   UNL     1       6.437   3.409  12.109  0.00  0.00    +0.000 A 
ATOM     22  N   UNL     1       7.306   4.339  11.664  0.00  0.00    +0.000 NA
ATOM     23  C   UNL     1       7.772   5.231  12.566  0.00  0.00    +0.000 A 
ATOM     24  C   UNL     1       7.422   5.225  13.902  0.00  0.00    +0.000 A 
ENDBRANCH  16  19
ENDBRANCH  13  15
ENDBRANCH   1  13
TORSDOF 6
ENDMDL
MODEL 5
REMARK VINA RESULT:      -6.8      4.198      6.286
REMARK  Name = 
REMARK  7 active torsions:
REMARK  status: ('A' for Active; 'I' for Inactive)
REMARK    1  A    between atoms: C_1  and  O_2
REMARK    2  A    between atoms: O_2  and  C_3
REMARK    3  A    between atoms: C_7  and  N_8
REMARK    4  A    between atoms: N_8  and  C_9
REMARK    5  A    between atoms: C_9  and  N_11
REMARK    6  A    between atoms: N_11  and  N_12
REMARK    7  A    between atoms: C_13  and  C_15
REMARK                            x       y       z     vdW  Elec       q    Type
REMARK                         _______ _______ _______ _____ _____    ______ ____
ROOT
ATOM      1  C   UNL     1       5.742   3.962  15.462  0.00  0.00    +0.000 C 
ATOM      2  S   UNL     1       6.029   3.933  13.822  0.00  0.00    +0.000 S 
ENDROOT
BRANCH   1   3
ATOM      3  N   UNL     1       6.632   3.906  16.521  0.00  0.00    +0.000 N 
ATOM      4  H   UNL     1       7.187   3.059  16.477  0.00  0.00    +0.000 HD
BRANCH   3   9
ATOM      5  C   UNL     1       7.582   7.297  17.630  0.00  0.00    +0.000 A 
ATOM      6  C   UNL     1       8.124   7.049  18.890  0.00  0.00    +0.000 A 
ATOM      7  C   UNL     1       8.176   5.748  19.387  0.00  0.00    +0.000 A 
ATOM      8  C   UNL     1       7.683   4.683  18.626  0.00  0.00    +0.000 A 
ATOM      9  C   UNL     1       7.138   4.917  17.364  0.00  0.00    +0.000 A 
ATOM     10  C   UNL     1       7.122   6.227  16.860  0.00  0.00    +0.000 A 
BRANCH   5  12
ATOM     11  C   UNL     1       8.399   9.483  18.010  0.00  0.00    +0.000 C 
ATOM     12  O   UNL     1       7.609   8.601  17.218  0.00  0.00    +0.000 OA
ENDBRANCH   5  12
ENDBRANCH   3   9
ENDBRANCH   1   3
BRANCH   1  13
ATOM     13  N   UNL     1       4.426   3.997  15.897  0.00  0.00    +0.000 N 
ATOM     14  H   UNL     1       3.758   4.587  15.400  0.00  0.00    +0.000 HD
BRANCH  13  15
ATOM     15  N   UNL     1       4.139   3.699  17.231  0.00  0.00    +0.000 N 
ATOM     16  C   UNL     1       2.841   3.452  17.622  0.00  0.00    +0.000 C 
ATOM     17  O   UNL     1       1.879   3.422  16.861  0.00  0.00    +0.000 OA
ATOM     18  H   UNL     1       4.923   3.703  17.875  0.00  0.00    +0.000 HD
BRANCH  16  19
ATOM     19  C   UNL     1       2.672   3.178  19.073  0.00  0.00    +0.000 A 
ATOM     20  C   UNL     1       3.717   2.681  19.854  0.00  0.00    +0.000 A 
ATOM     21  C   UNL     1       3.454   2.403  21.182  0.00  0.00    +0.000 A 
ATOM     22  N   UNL     1       2.250   2.590  21.758  0.00  0.00    +0.000 NA
ATOM     23  C   UNL     1       1.264   3.096  20.984  0.00  0.00    +0.000 A 
ATOM     24  C   UNL     1       1.423   3.410  19.649  0.00  0.00    +0.000 A 
ENDBRANCH  16  19
ENDBRANCH  13  15
ENDBRANCH   1  13
TORSDOF 6
ENDMDL
MODEL 6
REMARK VINA RESULT:      -6.7      4.043      7.582
REMARK  Name = 
REMARK  7 active torsions:
REMARK  status: ('A' for Active; 'I' for Inactive)
REMARK    1  A    between atoms: C_1  and  O_2
REMARK    2  A    between atoms: O_2  and  C_3
REMARK    3  A    between atoms: C_7  and  N_8
REMARK    4  A    between atoms: N_8  and  C_9
REMARK    5  A    between atoms: C_9  and  N_11
REMARK    6  A    between atoms: N_11  and  N_12
REMARK    7  A    between atoms: C_13  and  C_15
REMARK                            x       y       z     vdW  Elec       q    Type
REMARK                         _______ _______ _______ _____ _____    ______ ____
ROOT
ATOM      1  C   UNL     1       6.647   5.270  17.069  0.00  0.00    +0.000 C 
ATOM      2  S   UNL     1       7.551   6.553  17.622  0.00  0.00    +0.000 S 
ENDROOT
BRANCH   1   3
ATOM      3  N   UNL     1       5.948   5.121  15.883  0.00  0.00    +0.000 N 
ATOM      4  H   UNL     1       5.042   5.571  15.943  0.00  0.00    +0.000 HD
BRANCH   3   9
ATOM      5  C   UNL     1       6.022   3.469  12.582  0.00  0.00    +0.000 A 
ATOM      6  C   UNL     1       7.128   4.068  11.983  0.00  0.00    +0.000 A 
ATOM      7  C   UNL     1       7.861   5.033  12.671  0.00  0.00    +0.000 A 
ATOM      8  C   UNL     1       7.491   5.408  13.966  0.00  0.00    +0.000 A 
ATOM      9  C   UNL     1       6.386   4.817  14.578  0.00  0.00    +0.000 A 
ATOM     10  C   UNL     1       5.675   3.822  13.888  0.00  0.00    +0.000 A 
BRANCH   5  12
ATOM     11  C   UNL     1       6.241   1.546  11.224  0.00  0.00    +0.000 C 
ATOM     12  O   UNL     1       5.390   2.510  11.840  0.00  0.00    +0.000 OA
ENDBRANCH   5  12
ENDBRANCH   3   9
ENDBRANCH   1   3
BRANCH   1  13
ATOM     13  N   UNL     1       6.491   4.171  17.900  0.00  0.00    +0.000 N 
ATOM     14  H   UNL     1       7.245   3.486  17.959  0.00  0.00    +0.000 HD
BRANCH  13  15
ATOM     15  N   UNL     1       5.204   3.724  18.208  0.00  0.00    +0.000 N 
ATOM     16  C   UNL     1       4.453   4.380  19.160  0.00  0.00    +0.000 C 
ATOM     17  O   UNL     1       4.811   5.393  19.753  0.00  0.00    +0.000 OA
ATOM     18  H   UNL     1       4.882   2.897  17.718  0.00  0.00    +0.000 HD
BRANCH  16  19
ATOM     19  C   UNL     1       3.115   3.784  19.411  0.00  0.00    +0.000 A 
ATOM     20  C   UNL     1       2.673   3.486  20.702  0.00  0.00    +0.000 A 
ATOM     21  C   UNL     1       1.438   2.882  20.837  0.00  0.00    +0.000 A 
ATOM     22  N   UNL     1       0.642   2.570  19.795  0.00  0.00    +0.000 NA
ATOM     23  C   UNL     1       1.084   2.894  18.559  0.00  0.00    +0.000 A 
ATOM     24  C   UNL     1       2.300   3.501  18.315  0.00  0.00    +0.000 A 
ENDBRANCH  16  19
ENDBRANCH  13  15
ENDBRANCH   1  13
TORSDOF 6
ENDMDL
MODEL 7
REMARK VINA RESULT:      -6.7      1.248      1.283
REMARK  Name = 
REMARK  7 active torsions:
REMARK  status: ('A' for Active; 'I' for Inactive)
REMARK    1  A    between atoms: C_1  and  O_2
REMARK    2  A    between atoms: O_2  and  C_3
REMARK    3  A    between atoms: C_7  and  N_8
REMARK    4  A    between atoms: N_8  and  C_9
REMARK    5  A    between atoms: C_9  and  N_11
REMARK    6  A    between atoms: N_11  and  N_12
REMARK    7  A    between atoms: C_13  and  C_15
REMARK                            x       y       z     vdW  Elec       q    Type
REMARK                         _______ _______ _______ _____ _____    ______ ____
ROOT
ATOM      1  C   UNL     1       2.617   4.258  20.259  0.00  0.00    +0.000 C 
ATOM      2  S   UNL     1       1.131   3.587  20.598  0.00  0.00    +0.000 S 
ENDROOT
BRANCH   1   3
ATOM      3  N   UNL     1       3.039   5.573  20.344  0.00  0.00    +0.000 N 
ATOM      4  H   UNL     1       3.996   5.621  20.678  0.00  0.00    +0.000 HD
BRANCH   3   9
ATOM      5  C   UNL     1       1.265   8.793  20.012  0.00  0.00    +0.000 A 
ATOM      6  C   UNL     1       1.488   9.110  18.673  0.00  0.00    +0.000 A 
ATOM      7  C   UNL     1       2.237   8.256  17.866  0.00  0.00    +0.000 A 
ATOM      8  C   UNL     1       2.770   7.076  18.393  0.00  0.00    +0.000 A 
ATOM      9  C   UNL     1       2.555   6.746  19.731  0.00  0.00    +0.000 A 
ATOM     10  C   UNL     1       1.770   7.598  20.526  0.00  0.00    +0.000 A 
BRANCH   5  12
ATOM     11  C   UNL     1      -0.322   9.110  21.737  0.00  0.00    +0.000 C 
ATOM     12  O   UNL     1       0.489   9.677  20.711  0.00  0.00    +0.000 OA
ENDBRANCH   5  12
ENDBRANCH   3   9
ENDBRANCH   1   3
BRANCH   1  13
ATOM     13  N   UNL     1       3.612   3.429  19.763  0.00  0.00    +0.000 N 
ATOM     14  H   UNL     1       4.180   2.893  20.420  0.00  0.00    +0.000 HD
BRANCH  13  15
ATOM     15  N   UNL     1       4.178   3.711  18.518  0.00  0.00    +0.000 N 
ATOM     16  C   UNL     1       5.364   4.409  18.438  0.00  0.00    +0.000 C 
ATOM     17  O   UNL     1       6.020   4.780  19.406  0.00  0.00    +0.000 OA
ATOM     18  H   UNL     1       3.660   3.399  17.703  0.00  0.00    +0.000 HD
BRANCH  16  19
ATOM     19  C   UNL     1       5.839   4.666  17.054  0.00  0.00    +0.000 A 
ATOM     20  C   UNL     1       4.951   4.887  16.000  0.00  0.00    +0.000 A 
ATOM     21  C   UNL     1       5.480   5.062  14.736  0.00  0.00    +0.000 A 
ATOM     22  N   UNL     1       6.802   5.035  14.470  0.00  0.00    +0.000 NA
ATOM     23  C   UNL     1       7.639   4.845  15.514  0.00  0.00    +0.000 A 
ATOM     24  C   UNL     1       7.214   4.663  16.815  0.00  0.00    +0.000 A 
ENDBRANCH  16  19
ENDBRANCH  13  15
ENDBRANCH   1  13
TORSDOF 6
ENDMDL
MODEL 8
REMARK VINA RESULT:      -6.7      3.724      7.565
REMARK  Name = 
REMARK  7 active torsions:
REMARK  status: ('A' for Active; 'I' for Inactive)
REMARK    1  A    between atoms: C_1  and  O_2
REMARK    2  A    between atoms: O_2  and  C_3
REMARK    3  A    between atoms: C_7  and  N_8
REMARK    4  A    between atoms: N_8  and  C_9
REMARK    5  A    between atoms: C_9  and  N_11
REMARK    6  A    between atoms: N_11  and  N_12
REMARK    7  A    between atoms: C_13  and  C_15
REMARK                            x       y       z     vdW  Elec       q    Type
REMARK                         _______ _______ _______ _____ _____    ______ ____
ROOT
ATOM      1  C   UNL     1       6.401   6.060  16.624  0.00  0.00    +0.000 C 
ATOM      2  S   UNL     1       7.296   7.119  17.546  0.00  0.00    +0.000 S 
ENDROOT
BRANCH   1   3
ATOM      3  N   UNL     1       6.808   4.964  15.883  0.00  0.00    +0.000 N 
ATOM      4  H   UNL     1       6.740   4.115  16.433  0.00  0.00    +0.000 HD
BRANCH   3   9
ATOM      5  C   UNL     1       6.163   3.510  12.552  0.00  0.00    +0.000 A 
ATOM      6  C   UNL     1       7.033   4.239  11.743  0.00  0.00    +0.000 A 
ATOM      7  C   UNL     1       7.843   5.228  12.299  0.00  0.00    +0.000 A 
ATOM      8  C   UNL     1       7.787   5.496  13.670  0.00  0.00    +0.000 A 
ATOM      9  C   UNL     1       6.921   4.774  14.491  0.00  0.00    +0.000 A 
ATOM     10  C   UNL     1       6.135   3.758  13.926  0.00  0.00    +0.000 A 
BRANCH   5  12
ATOM     11  C   UNL     1       6.197   1.505  11.299  0.00  0.00    +0.000 C 
ATOM     12  O   UNL     1       5.437   2.538  11.919  0.00  0.00    +0.000 OA
ENDBRANCH   5  12
ENDBRANCH   3   9
ENDBRANCH   1   3
BRANCH   1  13
ATOM     13  N   UNL     1       5.039   6.288  16.501  0.00  0.00    +0.000 N 
ATOM     14  H   UNL     1       4.719   7.055  15.909  0.00  0.00    +0.000 HD
BRANCH  13  15
ATOM     15  N   UNL     1       4.182   5.877  17.525  0.00  0.00    +0.000 N 
ATOM     16  C   UNL     1       3.729   4.576  17.569  0.00  0.00    +0.000 C 
ATOM     17  O   UNL     1       4.064   3.696  16.782  0.00  0.00    +0.000 OA
ATOM     18  H   UNL     1       3.904   6.586  18.195  0.00  0.00    +0.000 HD
BRANCH  16  19
ATOM     19  C   UNL     1       2.801   4.281  18.691  0.00  0.00    +0.000 A 
ATOM     20  C   UNL     1       1.687   3.456  18.527  0.00  0.00    +0.000 A 
ATOM     21  C   UNL     1       0.848   3.282  19.611  0.00  0.00    +0.000 A 
ATOM     22  N   UNL     1       1.050   3.862  20.811  0.00  0.00    +0.000 NA
ATOM     23  C   UNL     1       2.151   4.635  20.948  0.00  0.00    +0.000 A 
ATOM     24  C   UNL     1       3.053   4.871  19.930  0.00  0.00    +0.000 A 
ENDBRANCH  16  19
ENDBRANCH  13  15
ENDBRANCH   1  13
TORSDOF 6
ENDMDL
MODEL 9
REMARK VINA RESULT:      -6.6      2.483      7.084
REMARK  Name = 
REMARK  7 active torsions:
REMARK  status: ('A' for Active; 'I' for Inactive)
REMARK    1  A    between atoms: C_1  and  O_2
REMARK    2  A    between atoms: O_2  and  C_3
REMARK    3  A    between atoms: C_7  and  N_8
REMARK    4  A    between atoms: N_8  and  C_9
REMARK    5  A    between atoms: C_9  and  N_11
REMARK    6  A    between atoms: N_11  and  N_12
REMARK    7  A    between atoms: C_13  and  C_15
REMARK                            x       y       z     vdW  Elec       q    Type
REMARK                         _______ _______ _______ _____ _____    ______ ____
ROOT
ATOM      1  C   UNL     1       2.055   5.152  19.558  0.00  0.00    +0.000 C 
ATOM      2  S   UNL     1       1.189   3.888  20.207  0.00  0.00    +0.000 S 
ENDROOT
BRANCH   1   3
ATOM      3  N   UNL     1       2.391   5.417  18.241  0.00  0.00    +0.000 N 
ATOM      4  H   UNL     1       1.741   6.080  17.833  0.00  0.00    +0.000 HD
BRANCH   3   9
ATOM      5  C   UNL     1       5.665   6.294  16.780  0.00  0.00    +0.000 A 
ATOM      6  C   UNL     1       6.035   5.103  16.160  0.00  0.00    +0.000 A 
ATOM      7  C   UNL     1       5.198   3.990  16.225  0.00  0.00    +0.000 A 
ATOM      8  C   UNL     1       3.984   4.062  16.913  0.00  0.00    +0.000 A 
ATOM      9  C   UNL     1       3.601   5.247  17.539  0.00  0.00    +0.000 A 
ATOM     10  C   UNL     1       4.437   6.372  17.438  0.00  0.00    +0.000 A 
BRANCH   5  12
ATOM     11  C   UNL     1       7.610   7.386  17.566  0.00  0.00    +0.000 C 
ATOM     12  O   UNL     1       6.537   7.338  16.630  0.00  0.00    +0.000 OA
ENDBRANCH   5  12
ENDBRANCH   3   9
ENDBRANCH   1   3
BRANCH   1  13
ATOM     13  N   UNL     1       2.593   6.092  20.425  0.00  0.00    +0.000 N 
ATOM     14  H   UNL     1       3.473   5.881  20.896  0.00  0.00    +0.000 HD
BRANCH  13  15
ATOM     15  N   UNL     1       1.745   7.012  21.047  0.00  0.00    +0.000 N 
ATOM     16  C   UNL     1       1.449   8.208  20.431  0.00  0.00    +0.000 C 
ATOM     17  O   UNL     1       1.844   8.532  19.315  0.00  0.00    +0.000 OA
ATOM     18  H   UNL     1       1.395   6.757  21.965  0.00  0.00    +0.000 HD
BRANCH  16  19
ATOM     19  C   UNL     1       0.561   9.106  21.213  0.00  0.00    +0.000 A 
ATOM     20  C   UNL     1      -0.099  10.185  20.624  0.00  0.00    +0.000 A 
ATOM     21  C   UNL     1      -0.861  10.999  21.439  0.00  0.00    +0.000 A 
ATOM     22  N   UNL     1      -1.001  10.805  22.766  0.00  0.00    +0.000 NA
ATOM     23  C   UNL     1      -0.371   9.737  23.305  0.00  0.00    +0.000 A 
ATOM     24  C   UNL     1       0.411   8.861  22.579  0.00  0.00    +0.000 A 
ENDBRANCH  16  19
ENDBRANCH  13  15
ENDBRANCH   1  13
TORSDOF 6
ENDMDL
