MODEL 1
REMARK VINA RESULT:      -6.9      0.000      0.000
REMARK  Name = 
REMARK  15 active torsions:
REMARK  status: ('A' for Active; 'I' for Inactive)
REMARK    1  A    between atoms: CD1_1  and  CG_2
REMARK    2  A    between atoms: CG_2  and  CD2_3
REMARK    3  A    between atoms: CG_2  and  CB_4
REMARK    4  A    between atoms: CB_4  and  CA_5
REMARK    5  A    between atoms: CA_5  and  N_6
REMARK    6  A    between atoms: CA_5  and  C_7
REMARK    7  A    between atoms: N_9  and  CA_10
REMARK    8  A    between atoms: CA_10  and  CB_11
REMARK    9  A    between atoms: CA_10  and  C_16
REMARK   10  A    between atoms: CB_11  and  CG_12
REMARK   11  A    between atoms: CG_12  and  CD_13
REMARK   12  A    between atoms: CD_13  and  CE_14
REMARK   13  A    between atoms: CE_14  and  NZ_15
REMARK   14  A    between atoms: CA_22  and  C_23
REMARK   15  A    between atoms: C_23  and  OXT_25
REMARK                            x       y       z     vdW  Elec       q    Type
REMARK                         _______ _______ _______ _____ _____    ______ ____
ROOT
ATOM      1  CA  LYS A   2       2.775   5.750  18.991  0.00  0.00    +0.000 C 
ENDROOT
BRANCH   1   2
ATOM      2  C   LYS A   2       4.296   5.478  19.092  0.00  0.00    +0.000 C 
ATOM      3  O   LYS A   2       4.781   4.867  20.051  0.00  0.00    +0.000 OA
ATOM      4  N   PRO A   3       5.121   5.810  18.041  0.00  0.00    +0.000 N 
ATOM      5  CD  PRO A   3       4.801   6.547  16.832  0.00  0.00    +0.000 C 
ATOM      6  CG  PRO A   3       5.549   5.777  15.761  0.00  0.00    +0.000 C 
ATOM      7  CB  PRO A   3       6.845   5.366  16.451  0.00  0.00    +0.000 C 
ATOM      8  CA  PRO A   3       6.498   5.289  17.948  0.00  0.00    +0.000 C 
BRANCH   8   9
ATOM      9  C   PRO A   3       7.479   6.091  18.826  0.00  0.00    +0.000 C 
ATOM     10  O   PRO A   3       8.094   7.085  18.466  0.00  0.00    +0.000 OA
BRANCH   9  11
ATOM     11  OXT PRO A   3       7.672   5.542  20.050  0.00  0.00    +0.000 OA
ATOM     12  HXT PRO A   3       7.761   6.224  20.758  0.00  0.00    +0.000 HD
ENDBRANCH   9  11
ENDBRANCH   8   9
ENDBRANCH   1   2
BRANCH   1  15
ATOM     13  C   LEU A   1       1.932   8.018  19.498  0.00  0.00    +0.000 C 
ATOM     14  O   LEU A   1       1.555   7.679  20.615  0.00  0.00    +0.000 OA
ATOM     15  N   LYS A   2       2.581   7.156  18.641  0.00  0.00    +0.000 N 
ATOM     16  H   LYS A   2       2.754   7.434  17.680  0.00  0.00    +0.000 HD
BRANCH  13  17
ATOM     17  CA  LEU A   1       1.667   9.430  18.935  0.00  0.00    +0.000 C 
BRANCH  17  18
ATOM     18  N   LEU A   1       1.742   9.360  17.459  0.00  0.00    +0.000 NA
ATOM     19  H1  LEU A   1       2.615   9.812  17.174  0.00  0.00    +0.000 HD
ATOM     20  H2  LEU A   1       1.008   9.946  17.058  0.00  0.00    +0.000 HD
ENDBRANCH  17  18
BRANCH  17  21
ATOM     21  CB  LEU A   1       0.268   9.918  19.337  0.00  0.00    +0.000 C 
BRANCH  21  23
ATOM     22  CD1 LEU A   1      -1.866  10.058  17.939  0.00  0.00    +0.000 C 
ATOM     23  CG  LEU A   1      -0.499  10.675  18.233  0.00  0.00    +0.000 C 
ATOM     24  CD2 LEU A   1      -0.668  12.141  18.643  0.00  0.00    +0.000 C 
ENDBRANCH  21  23
ENDBRANCH  17  21
ENDBRANCH  13  17
ENDBRANCH   1  15
BRANCH   1  25
ATOM     25  CB  LYS A   2       2.034   4.814  18.020  0.00  0.00    +0.000 C 
BRANCH  25  26
ATOM     26  CG  LYS A   2       1.329   3.610  18.655  0.00  0.00    +0.000 C 
BRANCH  26  27
ATOM     27  CD  LYS A   2       0.930   3.900  20.106  0.00  0.00    +0.000 C 
BRANCH  27  28
ATOM     28  CE  LYS A   2       1.376   2.766  21.029  0.00  0.00    +0.000 C 
BRANCH  28  29
ATOM     29  NZ  LYS A   2       2.827   2.755  21.165  0.00  0.00    +0.000 NA
ATOM     30  HZ1 LYS A   2       3.131   3.584  21.675  0.00  0.00    +0.000 HD
ATOM     31  HZ2 LYS A   2       3.252   2.820  20.241  0.00  0.00    +0.000 HD
ENDBRANCH  28  29
ENDBRANCH  27  28
ENDBRANCH  26  27
ENDBRANCH  25  26
ENDBRANCH   1  25
TORSDOF 13
ENDMDL
MODEL 2
REMARK VINA RESULT:      -6.8      4.067      7.291
REMARK  Name = 
REMARK  15 active torsions:
REMARK  status: ('A' for Active; 'I' for Inactive)
REMARK    1  A    between atoms: CD1_1  and  CG_2
REMARK    2  A    between atoms: CG_2  and  CD2_3
REMARK    3  A    between atoms: CG_2  and  CB_4
REMARK    4  A    between atoms: CB_4  and  CA_5
REMARK    5  A    between atoms: CA_5  and  N_6
REMARK    6  A    between atoms: CA_5  and  C_7
REMARK    7  A    between atoms: N_9  and  CA_10
REMARK    8  A    between atoms: CA_10  and  CB_11
REMARK    9  A    between atoms: CA_10  and  C_16
REMARK   10  A    between atoms: CB_11  and  CG_12
REMARK   11  A    between atoms: CG_12  and  CD_13
REMARK   12  A    between atoms: CD_13  and  CE_14
REMARK   13  A    between atoms: CE_14  and  NZ_15
REMARK   14  A    between atoms: CA_22  and  C_23
REMARK   15  A    between atoms: C_23  and  OXT_25
REMARK                            x       y       z     vdW  Elec       q    Type
REMARK                         _______ _______ _______ _____ _____    ______ ____
ROOT
ATOM      1  CA  LYS A   2       5.614   4.437  18.440  0.00  0.00    +0.000 C 
ENDROOT
BRANCH   1   2
ATOM      2  C   LYS A   2       4.292   4.539  19.241  0.00  0.00    +0.000 C 
ATOM      3  O   LYS A   2       3.949   5.592  19.791  0.00  0.00    +0.000 OA
ATOM      4  N   PRO A   3       3.413   3.479  19.246  0.00  0.00    +0.000 N 
ATOM      5  CD  PRO A   3       3.595   2.146  18.703  0.00  0.00    +0.000 C 
ATOM      6  CG  PRO A   3       2.249   1.856  18.067  0.00  0.00    +0.000 C 
ATOM      7  CB  PRO A   3       1.251   2.493  19.028  0.00  0.00    +0.000 C 
ATOM      8  CA  PRO A   3       2.022   3.635  19.710  0.00  0.00    +0.000 C 
BRANCH   8   9
ATOM      9  C   PRO A   3       1.918   3.585  21.248  0.00  0.00    +0.000 C 
ATOM     10  O   PRO A   3       1.486   2.639  21.892  0.00  0.00    +0.000 OA
BRANCH   9  11
ATOM     11  OXT PRO A   3       2.284   4.744  21.847  0.00  0.00    +0.000 OA
ATOM     12  HXT PRO A   3       3.180   5.047  21.563  0.00  0.00    +0.000 HD
ENDBRANCH   9  11
ENDBRANCH   8   9
ENDBRANCH   1   2
BRANCH   1  15
ATOM     13  C   LEU A   1       5.494   4.094  15.995  0.00  0.00    +0.000 C 
ATOM     14  O   LEU A   1       5.736   2.896  16.104  0.00  0.00    +0.000 OA
ATOM     15  N   LYS A   2       5.369   4.928  17.085  0.00  0.00    +0.000 N 
ATOM     16  H   LYS A   2       5.305   5.931  16.948  0.00  0.00    +0.000 HD
BRANCH  13  17
ATOM     17  CA  LEU A   1       5.354   4.782  14.621  0.00  0.00    +0.000 C 
BRANCH  17  18
ATOM     18  N   LEU A   1       5.495   6.241  14.819  0.00  0.00    +0.000 NA
ATOM     19  H1  LEU A   1       5.774   6.394  15.792  0.00  0.00    +0.000 HD
ATOM     20  H2  LEU A   1       4.576   6.681  14.745  0.00  0.00    +0.000 HD
ENDBRANCH  17  18
BRANCH  17  21
ATOM     21  CB  LEU A   1       6.455   4.304  13.663  0.00  0.00    +0.000 C 
BRANCH  21  23
ATOM     22  CD1 LEU A   1       4.699   3.589  11.951  0.00  0.00    +0.000 C 
ATOM     23  CG  LEU A   1       6.012   3.231  12.647  0.00  0.00    +0.000 C 
ATOM     24  CD2 LEU A   1       7.116   3.032  11.603  0.00  0.00    +0.000 C 
ENDBRANCH  21  23
ENDBRANCH  17  21
ENDBRANCH  13  17
ENDBRANCH   1  15
BRANCH   1  25
ATOM     25  CB  LYS A   2       6.803   5.157  19.100  0.00  0.00    +0.000 C 
BRANCH  25  26
ATOM     26  CG  LYS A   2       7.788   5.840  18.145  0.00  0.00    +0.000 C 
BRANCH  26  27
ATOM     27  CD  LYS A   2       8.230   7.205  18.685  0.00  0.00    +0.000 C 
BRANCH  27  28
ATOM     28  CE  LYS A   2       7.858   8.321  17.708  0.00  0.00    +0.000 C 
BRANCH  28  29
ATOM     29  NZ  LYS A   2       6.776   7.894  16.830  0.00  0.00    +0.000 NA
ATOM     30  HZ1 LYS A   2       5.979   8.521  16.937  0.00  0.00    +0.000 HD
ATOM     31  HZ2 LYS A   2       6.450   6.973  17.121  0.00  0.00    +0.000 HD
ENDBRANCH  28  29
ENDBRANCH  27  28
ENDBRANCH  26  27
ENDBRANCH  25  26
ENDBRANCH   1  25
TORSDOF 13
ENDMDL
MODEL 3
REMARK VINA RESULT:      -6.8      1.781      2.219
REMARK  Name = 
REMARK  15 active torsions:
REMARK  status: ('A' for Active; 'I' for Inactive)
REMARK    1  A    between atoms: CD1_1  and  CG_2
REMARK    2  A    between atoms: CG_2  and  CD2_3
REMARK    3  A    between atoms: CG_2  and  CB_4
REMARK    4  A    between atoms: CB_4  and  CA_5
REMARK    5  A    between atoms: CA_5  and  N_6
REMARK    6  A    between atoms: CA_5  and  C_7
REMARK    7  A    between atoms: N_9  and  CA_10
REMARK    8  A    between atoms: CA_10  and  CB_11
REMARK    9  A    between atoms: CA_10  and  C_16
REMARK   10  A    between atoms: CB_11  and  CG_12
REMARK   11  A    between atoms: CG_12  and  CD_13
REMARK   12  A    between atoms: CD_13  and  CE_14
REMARK   13  A    between atoms: CE_14  and  NZ_15
REMARK   14  A    between atoms: CA_22  and  C_23
REMARK   15  A    between atoms: C_23  and  OXT_25
REMARK                            x       y       z     vdW  Elec       q    Type
REMARK                         _______ _______ _______ _____ _____    ______ ____
ROOT
ATOM      1  CA  LYS A   2       3.102   6.574  18.195  0.00  0.00    +0.000 C 
ENDROOT
BRANCH   1   2
ATOM      2  C   LYS A   2       4.382   6.417  17.337  0.00  0.00    +0.000 C 
ATOM      3  O   LYS A   2       4.476   6.934  16.217  0.00  0.00    +0.000 OA
ATOM      4  N   PRO A   3       5.490   5.796  17.868  0.00  0.00    +0.000 N 
ATOM      5  CD  PRO A   3       5.620   5.097  19.132  0.00  0.00    +0.000 C 
ATOM      6  CG  PRO A   3       6.978   5.551  19.630  0.00  0.00    +0.000 C 
ATOM      7  CB  PRO A   3       7.819   5.631  18.360  0.00  0.00    +0.000 C 
ATOM      8  CA  PRO A   3       6.814   5.905  17.228  0.00  0.00    +0.000 C 
BRANCH   8   9
ATOM      9  C   PRO A   3       6.968   4.925  16.048  0.00  0.00    +0.000 C 
ATOM     10  O   PRO A   3       7.548   5.172  15.000  0.00  0.00    +0.000 OA
BRANCH   9  11
ATOM     11  OXT PRO A   3       6.321   3.750  16.241  0.00  0.00    +0.000 OA
ATOM     12  HXT PRO A   3       5.596   3.825  16.907  0.00  0.00    +0.000 HD
ENDBRANCH   9  11
ENDBRANCH   8   9
ENDBRANCH   1   2
BRANCH   1  15
ATOM     13  C   LEU A   1       1.874   8.572  18.976  0.00  0.00    +0.000 C 
ATOM     14  O   LEU A   1       1.739   8.107  20.103  0.00  0.00    +0.000 OA
ATOM     15  N   LYS A   2       2.566   7.917  17.980  0.00  0.00    +0.000 N 
ATOM     16  H   LYS A   2       2.539   8.270  17.029  0.00  0.00    +0.000 HD
BRANCH  13  17
ATOM     17  CA  LEU A   1       1.238   9.915  18.560  0.00  0.00    +0.000 C 
BRANCH  17  18
ATOM     18  N   LEU A   1       2.106  10.540  17.538  0.00  0.00    +0.000 NA
ATOM     19  H1  LEU A   1       2.857   9.878  17.325  0.00  0.00    +0.000 HD
ATOM     20  H2  LEU A   1       2.583  11.344  17.948  0.00  0.00    +0.000 HD
ENDBRANCH  17  18
BRANCH  17  21
ATOM     21  CB  LEU A   1      -0.155   9.688  17.954  0.00  0.00    +0.000 C 
BRANCH  21  23
ATOM     22  CD1 LEU A   1      -0.855  11.024  20.017  0.00  0.00    +0.000 C 
ATOM     23  CG  LEU A   1      -1.312  10.370  18.713  0.00  0.00    +0.000 C 
ATOM     24  CD2 LEU A   1      -1.966  11.419  17.807  0.00  0.00    +0.000 C 
ENDBRANCH  21  23
ENDBRANCH  17  21
ENDBRANCH  13  17
ENDBRANCH   1  15
BRANCH   1  25
ATOM     25  CB  LYS A   2       2.041   5.489  17.942  0.00  0.00    +0.000 C 
BRANCH  25  26
ATOM     26  CG  LYS A   2       2.146   4.231  18.811  0.00  0.00    +0.000 C 
BRANCH  26  27
ATOM     27  CD  LYS A   2       1.449   4.428  20.162  0.00  0.00    +0.000 C 
BRANCH  27  28
ATOM     28  CE  LYS A   2       2.264   3.795  21.290  0.00  0.00    +0.000 C 
BRANCH  28  29
ATOM     29  NZ  LYS A   2       1.498   2.743  21.949  0.00  0.00    +0.000 NA
ATOM     30  HZ1 LYS A   2       1.947   1.841  21.791  0.00  0.00    +0.000 HD
ATOM     31  HZ2 LYS A   2       0.577   2.678  21.518  0.00  0.00    +0.000 HD
ENDBRANCH  28  29
ENDBRANCH  27  28
ENDBRANCH  26  27
ENDBRANCH  25  26
ENDBRANCH   1  25
TORSDOF 13
ENDMDL
MODEL 4
REMARK VINA RESULT:      -6.7      0.776      1.044
REMARK  Name = 
REMARK  15 active torsions:
REMARK  status: ('A' for Active; 'I' for Inactive)
REMARK    1  A    between atoms: CD1_1  and  CG_2
REMARK    2  A    between atoms: CG_2  and  CD2_3
REMARK    3  A    between atoms: CG_2  and  CB_4
REMARK    4  A    between atoms: CB_4  and  CA_5
REMARK    5  A    between atoms: CA_5  and  N_6
REMARK    6  A    between atoms: CA_5  and  C_7
REMARK    7  A    between atoms: N_9  and  CA_10
REMARK    8  A    between atoms: CA_10  and  CB_11
REMARK    9  A    between atoms: CA_10  and  C_16
REMARK   10  A    between atoms: CB_11  and  CG_12
REMARK   11  A    between atoms: CG_12  and  CD_13
REMARK   12  A    between atoms: CD_13  and  CE_14
REMARK   13  A    between atoms: CE_14  and  NZ_15
REMARK   14  A    between atoms: CA_22  and  C_23
REMARK   15  A    between atoms: C_23  and  OXT_25
REMARK                            x       y       z     vdW  Elec       q    Type
REMARK                         _______ _______ _______ _____ _____    ______ ____
ROOT
ATOM      1  CA  LYS A   2       2.756   5.721  18.933  0.00  0.00    +0.000 C 
ENDROOT
BRANCH   1   2
ATOM      2  C   LYS A   2       4.273   5.454  19.092  0.00  0.00    +0.000 C 
ATOM      3  O   LYS A   2       4.732   4.920  20.108  0.00  0.00    +0.000 OA
ATOM      4  N   PRO A   3       5.124   5.699  18.038  0.00  0.00    +0.000 N 
ATOM      5  CD  PRO A   3       4.835   6.337  16.767  0.00  0.00    +0.000 C 
ATOM      6  CG  PRO A   3       5.605   5.482  15.779  0.00  0.00    +0.000 C 
ATOM      7  CB  PRO A   3       6.883   5.125  16.531  0.00  0.00    +0.000 C 
ATOM      8  CA  PRO A   3       6.500   5.169  18.020  0.00  0.00    +0.000 C 
BRANCH   8   9
ATOM      9  C   PRO A   3       7.464   6.036  18.855  0.00  0.00    +0.000 C 
ATOM     10  O   PRO A   3       8.045   7.032  18.447  0.00  0.00    +0.000 OA
BRANCH   9  11
ATOM     11  OXT PRO A   3       7.683   5.545  20.099  0.00  0.00    +0.000 OA
ATOM     12  HXT PRO A   3       8.560   5.099  20.178  0.00  0.00    +0.000 HD
ENDBRANCH   9  11
ENDBRANCH   8   9
ENDBRANCH   1   2
BRANCH   1  15
ATOM     13  C   LEU A   1       1.913   7.991  19.428  0.00  0.00    +0.000 C 
ATOM     14  O   LEU A   1       1.523   7.655  20.541  0.00  0.00    +0.000 OA
ATOM     15  N   LYS A   2       2.570   7.127  18.579  0.00  0.00    +0.000 N 
ATOM     16  H   LYS A   2       2.755   7.403  17.620  0.00  0.00    +0.000 HD
BRANCH  13  17
ATOM     17  CA  LEU A   1       1.660   9.404  18.861  0.00  0.00    +0.000 C 
BRANCH  17  18
ATOM     18  N   LEU A   1       1.924   9.371  17.405  0.00  0.00    +0.000 NA
ATOM     19  H1  LEU A   1       1.162   8.847  16.966  0.00  0.00    +0.000 HD
ATOM     20  H2  LEU A   1       2.756   8.808  17.227  0.00  0.00    +0.000 HD
ENDBRANCH  17  18
BRANCH  17  21
ATOM     21  CB  LEU A   1       0.201   9.824  19.089  0.00  0.00    +0.000 C 
BRANCH  21  23
ATOM     22  CD1 LEU A   1      -0.256  10.578  21.487  0.00  0.00    +0.000 C 
ATOM     23  CG  LEU A   1       0.010  11.018  20.048  0.00  0.00    +0.000 C 
ATOM     24  CD2 LEU A   1       1.253  11.912  19.999  0.00  0.00    +0.000 C 
ENDBRANCH  21  23
ENDBRANCH  17  21
ENDBRANCH  13  17
ENDBRANCH   1  15
BRANCH   1  25
ATOM     25  CB  LYS A   2       2.056   4.784  17.932  0.00  0.00    +0.000 C 
BRANCH  25  26
ATOM     26  CG  LYS A   2       1.132   3.723  18.538  0.00  0.00    +0.000 C 
BRANCH  26  27
ATOM     27  CD  LYS A   2       1.088   3.831  20.067  0.00  0.00    +0.000 C 
BRANCH  27  28
ATOM     28  CE  LYS A   2       1.868   2.687  20.714  0.00  0.00    +0.000 C 
BRANCH  28  29
ATOM     29  NZ  LYS A   2       1.992   2.899  22.151  0.00  0.00    +0.000 NA
ATOM     30  HZ1 LYS A   2       2.232   2.020  22.609  0.00  0.00    +0.000 HD
ATOM     31  HZ2 LYS A   2       1.086   3.175  22.529  0.00  0.00    +0.000 HD
ENDBRANCH  28  29
ENDBRANCH  27  28
ENDBRANCH  26  27
ENDBRANCH  25  26
ENDBRANCH   1  25
TORSDOF 13
ENDMDL
MODEL 5
REMARK VINA RESULT:      -6.7      2.007      4.458
REMARK  Name = 
REMARK  15 active torsions:
REMARK  status: ('A' for Active; 'I' for Inactive)
REMARK    1  A    between atoms: CD1_1  and  CG_2
REMARK    2  A    between atoms: CG_2  and  CD2_3
REMARK    3  A    between atoms: CG_2  and  CB_4
REMARK    4  A    between atoms: CB_4  and  CA_5
REMARK    5  A    between atoms: CA_5  and  N_6
REMARK    6  A    between atoms: CA_5  and  C_7
REMARK    7  A    between atoms: N_9  and  CA_10
REMARK    8  A    between atoms: CA_10  and  CB_11
REMARK    9  A    between atoms: CA_10  and  C_16
REMARK   10  A    between atoms: CB_11  and  CG_12
REMARK   11  A    between atoms: CG_12  and  CD_13
REMARK   12  A    between atoms: CD_13  and  CE_14
REMARK   13  A    between atoms: CE_14  and  NZ_15
REMARK   14  A    between atoms: CA_22  and  C_23
REMARK   15  A    between atoms: C_23  and  OXT_25
REMARK                            x       y       z     vdW  Elec       q    Type
REMARK                         _______ _______ _______ _____ _____    ______ ____
ROOT
ATOM      1  CA  LYS A   2       3.024   6.577  18.270  0.00  0.00    +0.000 C 
ENDROOT
BRANCH   1   2
ATOM      2  C   LYS A   2       3.551   5.385  19.107  0.00  0.00    +0.000 C 
ATOM      3  O   LYS A   2       4.619   5.453  19.727  0.00  0.00    +0.000 OA
ATOM      4  N   PRO A   3       2.766   4.266  19.272  0.00  0.00    +0.000 N 
ATOM      5  CD  PRO A   3       1.502   3.941  18.637  0.00  0.00    +0.000 C 
ATOM      6  CG  PRO A   3       0.698   3.344  19.775  0.00  0.00    +0.000 C 
ATOM      7  CB  PRO A   3       1.731   2.552  20.569  0.00  0.00    +0.000 C 
ATOM      8  CA  PRO A   3       3.072   3.256  20.303  0.00  0.00    +0.000 C 
BRANCH   8   9
ATOM      9  C   PRO A   3       4.174   2.280  19.846  0.00  0.00    +0.000 C 
ATOM     10  O   PRO A   3       5.081   1.864  20.554  0.00  0.00    +0.000 OA
BRANCH   9  11
ATOM     11  OXT PRO A   3       4.100   1.967  18.530  0.00  0.00    +0.000 OA
ATOM     12  HXT PRO A   3       3.462   1.234  18.353  0.00  0.00    +0.000 HD
ENDBRANCH   9  11
ENDBRANCH   8   9
ENDBRANCH   1   2
BRANCH   1  15
ATOM     13  C   LEU A   1       1.687   8.607  18.721  0.00  0.00    +0.000 C 
ATOM     14  O   LEU A   1       1.358   8.709  17.543  0.00  0.00    +0.000 OA
ATOM     15  N   LYS A   2       2.466   7.571  19.187  0.00  0.00    +0.000 N 
ATOM     16  H   LYS A   2       2.826   7.596  20.135  0.00  0.00    +0.000 HD
BRANCH  13  17
ATOM     17  CA  LEU A   1       1.293   9.661  19.777  0.00  0.00    +0.000 C 
BRANCH  17  18
ATOM     18  N   LEU A   1       1.134  10.963  19.093  0.00  0.00    +0.000 NA
ATOM     19  H1  LEU A   1       1.608  11.670  19.663  0.00  0.00    +0.000 HD
ATOM     20  H2  LEU A   1       0.151  11.236  19.114  0.00  0.00    +0.000 HD
ENDBRANCH  17  18
BRANCH  17  21
ATOM     21  CB  LEU A   1      -0.038   9.286  20.444  0.00  0.00    +0.000 C 
BRANCH  21  23
ATOM     22  CD1 LEU A   1       1.436   9.095  22.521  0.00  0.00    +0.000 C 
ATOM     23  CG  LEU A   1       0.009   9.193  21.983  0.00  0.00    +0.000 C 
ATOM     24  CD2 LEU A   1      -0.693  10.412  22.589  0.00  0.00    +0.000 C 
ENDBRANCH  21  23
ENDBRANCH  17  21
ENDBRANCH  13  17
ENDBRANCH   1  15
BRANCH   1  25
ATOM     25  CB  LYS A   2       4.073   7.196  17.330  0.00  0.00    +0.000 C 
BRANCH  25  26
ATOM     26  CG  LYS A   2       4.890   6.205  16.492  0.00  0.00    +0.000 C 
BRANCH  26  27
ATOM     27  CD  LYS A   2       6.389   6.336  16.782  0.00  0.00    +0.000 C 
BRANCH  27  28
ATOM     28  CE  LYS A   2       7.054   4.960  16.831  0.00  0.00    +0.000 C 
BRANCH  28  29
ATOM     29  NZ  LYS A   2       6.112   3.952  17.300  0.00  0.00    +0.000 NA
ATOM     30  HZ1 LYS A   2       6.061   3.188  16.626  0.00  0.00    +0.000 HD
ATOM     31  HZ2 LYS A   2       5.177   4.357  17.338  0.00  0.00    +0.000 HD
ENDBRANCH  28  29
ENDBRANCH  27  28
ENDBRANCH  26  27
ENDBRANCH  25  26
ENDBRANCH   1  25
TORSDOF 13
ENDMDL
MODEL 6
REMARK VINA RESULT:      -6.7      1.994      2.524
REMARK  Name = 
REMARK  15 active torsions:
REMARK  status: ('A' for Active; 'I' for Inactive)
REMARK    1  A    between atoms: CD1_1  and  CG_2
REMARK    2  A    between atoms: CG_2  and  CD2_3
REMARK    3  A    between atoms: CG_2  and  CB_4
REMARK    4  A    between atoms: CB_4  and  CA_5
REMARK    5  A    between atoms: CA_5  and  N_6
REMARK    6  A    between atoms: CA_5  and  C_7
REMARK    7  A    between atoms: N_9  and  CA_10
REMARK    8  A    between atoms: CA_10  and  CB_11
REMARK    9  A    between atoms: CA_10  and  C_16
REMARK   10  A    between atoms: CB_11  and  CG_12
REMARK   11  A    between atoms: CG_12  and  CD_13
REMARK   12  A    between atoms: CD_13  and  CE_14
REMARK   13  A    between atoms: CE_14  and  NZ_15
REMARK   14  A    between atoms: CA_22  and  C_23
REMARK   15  A    between atoms: C_23  and  OXT_25
REMARK                            x       y       z     vdW  Elec       q    Type
REMARK                         _______ _______ _______ _____ _____    ______ ____
ROOT
ATOM      1  CA  LYS A   2       3.112   6.600  18.197  0.00  0.00    +0.000 C 
ENDROOT
BRANCH   1   2
ATOM      2  C   LYS A   2       4.376   6.439  17.317  0.00  0.00    +0.000 C 
ATOM      3  O   LYS A   2       4.458   6.966  16.201  0.00  0.00    +0.000 OA
ATOM      4  N   PRO A   3       5.486   5.802  17.824  0.00  0.00    +0.000 N 
ATOM      5  CD  PRO A   3       5.629   5.089  19.080  0.00  0.00    +0.000 C 
ATOM      6  CG  PRO A   3       7.000   5.525  19.560  0.00  0.00    +0.000 C 
ATOM      7  CB  PRO A   3       7.821   5.609  18.278  0.00  0.00    +0.000 C 
ATOM      8  CA  PRO A   3       6.802   5.905  17.164  0.00  0.00    +0.000 C 
BRANCH   8   9
ATOM      9  C   PRO A   3       6.927   4.934  15.973  0.00  0.00    +0.000 C 
ATOM     10  O   PRO A   3       6.423   3.821  15.917  0.00  0.00    +0.000 OA
BRANCH   9  11
ATOM     11  OXT PRO A   3       7.733   5.399  14.987  0.00  0.00    +0.000 OA
ATOM     12  HXT PRO A   3       7.936   6.360  15.089  0.00  0.00    +0.000 HD
ENDBRANCH   9  11
ENDBRANCH   8   9
ENDBRANCH   1   2
BRANCH   1  15
ATOM     13  C   LEU A   1       1.872   8.592  18.973  0.00  0.00    +0.000 C 
ATOM     14  O   LEU A   1       1.741   8.130  20.102  0.00  0.00    +0.000 OA
ATOM     15  N   LYS A   2       2.567   7.939  17.979  0.00  0.00    +0.000 N 
ATOM     16  H   LYS A   2       2.536   8.288  17.027  0.00  0.00    +0.000 HD
BRANCH  13  17
ATOM     17  CA  LEU A   1       1.227   9.930  18.554  0.00  0.00    +0.000 C 
BRANCH  17  18
ATOM     18  N   LEU A   1       2.103  10.570  17.548  0.00  0.00    +0.000 NA
ATOM     19  H1  LEU A   1       2.873   9.924  17.355  0.00  0.00    +0.000 HD
ATOM     20  H2  LEU A   1       2.552  11.386  17.965  0.00  0.00    +0.000 HD
ENDBRANCH  17  18
BRANCH  17  21
ATOM     21  CB  LEU A   1      -0.154   9.690  17.927  0.00  0.00    +0.000 C 
BRANCH  21  23
ATOM     22  CD1 LEU A   1      -0.893  11.503  19.569  0.00  0.00    +0.000 C 
ATOM     23  CG  LEU A   1      -1.333  10.337  18.683  0.00  0.00    +0.000 C 
ATOM     24  CD2 LEU A   1      -2.382  10.818  17.675  0.00  0.00    +0.000 C 
ENDBRANCH  21  23
ENDBRANCH  17  21
ENDBRANCH  13  17
ENDBRANCH   1  15
BRANCH   1  25
ATOM     25  CB  LYS A   2       2.050   5.509  17.974  0.00  0.00    +0.000 C 
BRANCH  25  26
ATOM     26  CG  LYS A   2       1.952   4.434  19.063  0.00  0.00    +0.000 C 
BRANCH  26  27
ATOM     27  CD  LYS A   2       1.903   3.028  18.455  0.00  0.00    +0.000 C 
BRANCH  27  28
ATOM     28  CE  LYS A   2       3.214   2.283  18.706  0.00  0.00    +0.000 C 
BRANCH  28  29
ATOM     29  NZ  LYS A   2       4.090   2.378  17.545  0.00  0.00    +0.000 NA
ATOM     30  HZ1 LYS A   2       4.954   2.854  17.803  0.00  0.00    +0.000 HD
ATOM     31  HZ2 LYS A   2       3.647   2.962  16.837  0.00  0.00    +0.000 HD
ENDBRANCH  28  29
ENDBRANCH  27  28
ENDBRANCH  26  27
ENDBRANCH  25  26
ENDBRANCH   1  25
TORSDOF 13
ENDMDL
MODEL 7
REMARK VINA RESULT:      -6.7      1.813      4.874
REMARK  Name = 
REMARK  15 active torsions:
REMARK  status: ('A' for Active; 'I' for Inactive)
REMARK    1  A    between atoms: CD1_1  and  CG_2
REMARK    2  A    between atoms: CG_2  and  CD2_3
REMARK    3  A    between atoms: CG_2  and  CB_4
REMARK    4  A    between atoms: CB_4  and  CA_5
REMARK    5  A    between atoms: CA_5  and  N_6
REMARK    6  A    between atoms: CA_5  and  C_7
REMARK    7  A    between atoms: N_9  and  CA_10
REMARK    8  A    between atoms: CA_10  and  CB_11
REMARK    9  A    between atoms: CA_10  and  C_16
REMARK   10  A    between atoms: CB_11  and  CG_12
REMARK   11  A    between atoms: CG_12  and  CD_13
REMARK   12  A    between atoms: CD_13  and  CE_14
REMARK   13  A    between atoms: CE_14  and  NZ_15
REMARK   14  A    between atoms: CA_22  and  C_23
REMARK   15  A    between atoms: C_23  and  OXT_25
REMARK                            x       y       z     vdW  Elec       q    Type
REMARK                         _______ _______ _______ _____ _____    ______ ____
ROOT
ATOM      1  CA  LYS A   2       3.306   6.173  17.671  0.00  0.00    +0.000 C 
ENDROOT
BRANCH   1   2
ATOM      2  C   LYS A   2       4.635   5.832  18.390  0.00  0.00    +0.000 C 
ATOM      3  O   LYS A   2       4.674   5.617  19.608  0.00  0.00    +0.000 OA
ATOM      4  N   PRO A   3       5.781   5.641  17.653  0.00  0.00    +0.000 N 
ATOM      5  CD  PRO A   3       5.995   5.856  16.234  0.00  0.00    +0.000 C 
ATOM      6  CG  PRO A   3       6.837   4.659  15.836  0.00  0.00    +0.000 C 
ATOM      7  CB  PRO A   3       7.754   4.448  17.036  0.00  0.00    +0.000 C 
ATOM      8  CA  PRO A   3       6.978   5.008  18.241  0.00  0.00    +0.000 C 
BRANCH   8   9
ATOM      9  C   PRO A   3       7.810   6.006  19.071  0.00  0.00    +0.000 C 
ATOM     10  O   PRO A   3       8.276   7.055  18.648  0.00  0.00    +0.000 OA
BRANCH   9  11
ATOM     11  OXT PRO A   3       8.057   5.576  20.332  0.00  0.00    +0.000 OA
ATOM     12  HXT PRO A   3       9.014   5.381  20.482  0.00  0.00    +0.000 HD
ENDBRANCH   9  11
ENDBRANCH   8   9
ENDBRANCH   1   2
BRANCH   1  15
ATOM     13  C   LEU A   1       2.234   3.950  17.814  0.00  0.00    +0.000 C 
ATOM     14  O   LEU A   1       3.104   3.434  17.119  0.00  0.00    +0.000 OA
ATOM     15  N   LYS A   2       2.266   5.278  18.178  0.00  0.00    +0.000 N 
ATOM     16  H   LYS A   2       1.463   5.696  18.636  0.00  0.00    +0.000 HD
BRANCH  13  17
ATOM     17  CA  LEU A   1       1.000   3.163  18.302  0.00  0.00    +0.000 C 
BRANCH  17  18
ATOM     18  N   LEU A   1       1.320   1.720  18.246  0.00  0.00    +0.000 NA
ATOM     19  H1  LEU A   1       0.457   1.223  18.007  0.00  0.00    +0.000 HD
ATOM     20  H2  LEU A   1       1.553   1.390  19.183  0.00  0.00    +0.000 HD
ENDBRANCH  17  18
BRANCH  17  21
ATOM     21  CB  LEU A   1       0.659   3.538  19.752  0.00  0.00    +0.000 C 
BRANCH  21  23
ATOM     22  CD1 LEU A   1       2.178   4.751  21.410  0.00  0.00    +0.000 C 
ATOM     23  CG  LEU A   1       1.832   3.418  20.747  0.00  0.00    +0.000 C 
ATOM     24  CD2 LEU A   1       1.486   2.378  21.818  0.00  0.00    +0.000 C 
ENDBRANCH  21  23
ENDBRANCH  17  21
ENDBRANCH  13  17
ENDBRANCH   1  15
BRANCH   1  25
ATOM     25  CB  LYS A   2       2.892   7.650  17.786  0.00  0.00    +0.000 C 
BRANCH  25  26
ATOM     26  CG  LYS A   2       2.062   8.020  19.021  0.00  0.00    +0.000 C 
BRANCH  26  27
ATOM     27  CD  LYS A   2       1.356   9.368  18.834  0.00  0.00    +0.000 C 
BRANCH  27  28
ATOM     28  CE  LYS A   2       0.481   9.695  20.044  0.00  0.00    +0.000 C 
BRANCH  28  29
ATOM     29  NZ  LYS A   2       1.061   9.140  21.261  0.00  0.00    +0.000 NA
ATOM     30  HZ1 LYS A   2       0.716   9.653  22.071  0.00  0.00    +0.000 HD
ATOM     31  HZ2 LYS A   2       2.070   9.280  21.247  0.00  0.00    +0.000 HD
ENDBRANCH  28  29
ENDBRANCH  27  28
ENDBRANCH  26  27
ENDBRANCH  25  26
ENDBRANCH   1  25
TORSDOF 13
ENDMDL
MODEL 8
REMARK VINA RESULT:      -6.6      3.266      7.660
REMARK  Name = 
REMARK  15 active torsions:
REMARK  status: ('A' for Active; 'I' for Inactive)
REMARK    1  A    between atoms: CD1_1  and  CG_2
REMARK    2  A    between atoms: CG_2  and  CD2_3
REMARK    3  A    between atoms: CG_2  and  CB_4
REMARK    4  A    between atoms: CB_4  and  CA_5
REMARK    5  A    between atoms: CA_5  and  N_6
REMARK    6  A    between atoms: CA_5  and  C_7
REMARK    7  A    between atoms: N_9  and  CA_10
REMARK    8  A    between atoms: CA_10  and  CB_11
REMARK    9  A    between atoms: CA_10  and  C_16
REMARK   10  A    between atoms: CB_11  and  CG_12
REMARK   11  A    between atoms: CG_12  and  CD_13
REMARK   12  A    between atoms: CD_13  and  CE_14
REMARK   13  A    between atoms: CE_14  and  NZ_15
REMARK   14  A    between atoms: CA_22  and  C_23
REMARK   15  A    between atoms: C_23  and  OXT_25
REMARK                            x       y       z     vdW  Elec       q    Type
REMARK                         _______ _______ _______ _____ _____    ______ ____
ROOT
ATOM      1  CA  LYS A   2       7.187   6.545  17.507  0.00  0.00    +0.000 C 
ENDROOT
BRANCH   1   2
ATOM      2  C   LYS A   2       6.347   5.678  18.478  0.00  0.00    +0.000 C 
ATOM      3  O   LYS A   2       6.877   5.030  19.388  0.00  0.00    +0.000 OA
ATOM      4  N   PRO A   3       4.973   5.717  18.415  0.00  0.00    +0.000 N 
ATOM      5  CD  PRO A   3       4.127   6.373  17.435  0.00  0.00    +0.000 C 
ATOM      6  CG  PRO A   3       3.023   6.967  18.287  0.00  0.00    +0.000 C 
ATOM      7  CB  PRO A   3       2.792   5.913  19.364  0.00  0.00    +0.000 C 
ATOM      8  CA  PRO A   3       4.136   5.177  19.503  0.00  0.00    +0.000 C 
BRANCH   8   9
ATOM      9  C   PRO A   3       3.985   3.646  19.410  0.00  0.00    +0.000 C 
ATOM     10  O   PRO A   3       4.811   2.833  19.802  0.00  0.00    +0.000 OA
BRANCH   9  11
ATOM     11  OXT PRO A   3       2.857   3.257  18.767  0.00  0.00    +0.000 OA
ATOM     12  HXT PRO A   3       2.845   2.287  18.582  0.00  0.00    +0.000 HD
ENDBRANCH   9  11
ENDBRANCH   8   9
ENDBRANCH   1   2
BRANCH   1  15
ATOM     13  C   LEU A   1       7.103   5.158  15.463  0.00  0.00    +0.000 C 
ATOM     14  O   LEU A   1       7.781   4.274  15.978  0.00  0.00    +0.000 OA
ATOM     15  N   LYS A   2       6.720   6.292  16.145  0.00  0.00    +0.000 N 
ATOM     16  H   LYS A   2       6.278   7.056  15.645  0.00  0.00    +0.000 HD
BRANCH  13  17
ATOM     17  CA  LEU A   1       6.659   5.096  13.986  0.00  0.00    +0.000 C 
BRANCH  17  18
ATOM     18  N   LEU A   1       7.815   5.469  13.141  0.00  0.00    +0.000 NA
ATOM     19  H1  LEU A   1       8.547   4.771  13.295  0.00  0.00    +0.000 HD
ATOM     20  H2  LEU A   1       8.217   6.341  13.487  0.00  0.00    +0.000 HD
ENDBRANCH  17  18
BRANCH  17  21
ATOM     21  CB  LEU A   1       6.213   3.675  13.615  0.00  0.00    +0.000 C 
BRANCH  21  23
ATOM     22  CD1 LEU A   1       6.796   2.179  11.628  0.00  0.00    +0.000 C 
ATOM     23  CG  LEU A   1       6.043   3.421  12.103  0.00  0.00    +0.000 C 
ATOM     24  CD2 LEU A   1       4.553   3.284  11.774  0.00  0.00    +0.000 C 
ENDBRANCH  21  23
ENDBRANCH  17  21
ENDBRANCH  13  17
ENDBRANCH   1  15
BRANCH   1  25
ATOM     25  CB  LYS A   2       7.180   8.046  17.842  0.00  0.00    +0.000 C 
BRANCH  25  26
ATOM     26  CG  LYS A   2       8.539   8.662  18.192  0.00  0.00    +0.000 C 
BRANCH  26  27
ATOM     27  CD  LYS A   2       8.486  10.193  18.141  0.00  0.00    +0.000 C 
BRANCH  27  28
ATOM     28  CE  LYS A   2       9.544  10.803  19.060  0.00  0.00    +0.000 C 
BRANCH  28  29
ATOM     29  NZ  LYS A   2       9.300  10.425  20.447  0.00  0.00    +0.000 NA
ATOM     30  HZ1 LYS A   2       8.488  10.927  20.803  0.00  0.00    +0.000 HD
ATOM     31  HZ2 LYS A   2      10.089  10.722  21.020  0.00  0.00    +0.000 HD
ENDBRANCH  28  29
ENDBRANCH  27  28
ENDBRANCH  26  27
ENDBRANCH  25  26
ENDBRANCH   1  25
TORSDOF 13
ENDMDL
MODEL 9
REMARK VINA RESULT:      -6.6      1.640      5.225
REMARK  Name = 
REMARK  15 active torsions:
REMARK  status: ('A' for Active; 'I' for Inactive)
REMARK    1  A    between atoms: CD1_1  and  CG_2
REMARK    2  A    between atoms: CG_2  and  CD2_3
REMARK    3  A    between atoms: CG_2  and  CB_4
REMARK    4  A    between atoms: CB_4  and  CA_5
REMARK    5  A    between atoms: CA_5  and  N_6
REMARK    6  A    between atoms: CA_5  and  C_7
REMARK    7  A    between atoms: N_9  and  CA_10
REMARK    8  A    between atoms: CA_10  and  CB_11
REMARK    9  A    between atoms: CA_10  and  C_16
REMARK   10  A    between atoms: CB_11  and  CG_12
REMARK   11  A    between atoms: CG_12  and  CD_13
REMARK   12  A    between atoms: CD_13  and  CE_14
REMARK   13  A    between atoms: CE_14  and  NZ_15
REMARK   14  A    between atoms: CA_22  and  C_23
REMARK   15  A    between atoms: C_23  and  OXT_25
REMARK                            x       y       z     vdW  Elec       q    Type
REMARK                         _______ _______ _______ _____ _____    ______ ____
ROOT
ATOM      1  CA  LYS A   2       3.166   6.149  18.031  0.00  0.00    +0.000 C 
ENDROOT
BRANCH   1   2
ATOM      2  C   LYS A   2       4.558   5.788  18.607  0.00  0.00    +0.000 C 
ATOM      3  O   LYS A   2       4.705   5.480  19.796  0.00  0.00    +0.000 OA
ATOM      4  N   PRO A   3       5.641   5.685  17.764  0.00  0.00    +0.000 N 
ATOM      5  CD  PRO A   3       5.729   6.015  16.354  0.00  0.00    +0.000 C 
ATOM      6  CG  PRO A   3       6.556   4.875  15.793  0.00  0.00    +0.000 C 
ATOM      7  CB  PRO A   3       7.576   4.595  16.891  0.00  0.00    +0.000 C 
ATOM      8  CA  PRO A   3       6.895   5.040  18.197  0.00  0.00    +0.000 C 
BRANCH   8   9
ATOM      9  C   PRO A   3       7.776   5.991  19.031  0.00  0.00    +0.000 C 
ATOM     10  O   PRO A   3       8.316   7.002  18.606  0.00  0.00    +0.000 OA
BRANCH   9  11
ATOM     11  OXT PRO A   3       7.973   5.561  20.301  0.00  0.00    +0.000 OA
ATOM     12  HXT PRO A   3       7.133   5.279  20.737  0.00  0.00    +0.000 HD
ENDBRANCH   9  11
ENDBRANCH   8   9
ENDBRANCH   1   2
BRANCH   1  15
ATOM     13  C   LEU A   1       2.032   3.953  17.978  0.00  0.00    +0.000 C 
ATOM     14  O   LEU A   1       2.741   3.556  17.059  0.00  0.00    +0.000 OA
ATOM     15  N   LYS A   2       2.190   5.194  18.555  0.00  0.00    +0.000 N 
ATOM     16  H   LYS A   2       1.501   5.536  19.216  0.00  0.00    +0.000 HD
BRANCH  13  17
ATOM     17  CA  LEU A   1       0.866   3.112  18.538  0.00  0.00    +0.000 C 
BRANCH  17  18
ATOM     18  N   LEU A   1       1.147   1.687  18.255  0.00  0.00    +0.000 NA
ATOM     19  H1  LEU A   1       1.386   1.612  17.262  0.00  0.00    +0.000 HD
ATOM     20  H2  LEU A   1       0.285   1.148  18.352  0.00  0.00    +0.000 HD
ENDBRANCH  17  18
BRANCH  17  21
ATOM     21  CB  LEU A   1       0.745   3.299  20.057  0.00  0.00    +0.000 C 
BRANCH  21  23
ATOM     22  CD1 LEU A   1       3.098   2.760  20.894  0.00  0.00    +0.000 C 
ATOM     23  CG  LEU A   1       1.624   2.353  20.901  0.00  0.00    +0.000 C 
ATOM     24  CD2 LEU A   1       1.101   2.321  22.341  0.00  0.00    +0.000 C 
ENDBRANCH  21  23
ENDBRANCH  17  21
ENDBRANCH  13  17
ENDBRANCH   1  15
BRANCH   1  25
ATOM     25  CB  LYS A   2       2.737   7.603  18.293  0.00  0.00    +0.000 C 
BRANCH  25  26
ATOM     26  CG  LYS A   2       2.001   7.859  19.613  0.00  0.00    +0.000 C 
BRANCH  26  27
ATOM     27  CD  LYS A   2       1.226   9.181  19.571  0.00  0.00    +0.000 C 
BRANCH  27  28
ATOM     28  CE  LYS A   2       1.032   9.650  18.129  0.00  0.00    +0.000 C 
BRANCH  28  29
ATOM     29  NZ  LYS A   2       0.831  11.093  18.082  0.00  0.00    +0.000 NA
ATOM     30  HZ1 LYS A   2       1.732  11.568  18.126  0.00  0.00    +0.000 HD
ATOM     31  HZ2 LYS A   2       0.316  11.388  18.911  0.00  0.00    +0.000 HD
ENDBRANCH  28  29
ENDBRANCH  27  28
ENDBRANCH  26  27
ENDBRANCH  25  26
ENDBRANCH   1  25
TORSDOF 13
ENDMDL
