MODEL 1
REMARK VINA RESULT:      -7.8      0.000      0.000
REMARK  Name = 
REMARK  2 active torsions:
REMARK  status: ('A' for Active; 'I' for Inactive)
REMARK    1  A    between atoms: C_4  and  C_5
REMARK    2  A    between atoms: C_12  and  C_13
REMARK                            x       y       z     vdW  Elec       q    Type
REMARK                         _______ _______ _______ _____ _____    ______ ____
ROOT
ATOM      1  C   UNL     1       2.718   6.586  18.208  0.00  0.00    +0.000 A 
ATOM      2  C   UNL     1       2.482   5.233  18.500  0.00  0.00    +0.000 A 
ATOM      3  C   UNL     1       3.228   4.220  17.866  0.00  0.00    +0.000 A 
ATOM      4  C   UNL     1       4.231   4.562  16.959  0.00  0.00    +0.000 A 
ATOM      5  C   UNL     1       4.391   5.890  16.583  0.00  0.00    +0.000 A 
ATOM      6  C   UNL     1       3.612   6.876  17.164  0.00  0.00    +0.000 A 
ATOM      7  O   UNL     1       5.351   6.316  15.706  0.00  0.00    +0.000 OA
ATOM      8  C   UNL     1       6.517   5.501  15.853  0.00  0.00    +0.000 C 
ATOM      9  C   UNL     1       6.165   4.020  15.728  0.00  0.00    +0.000 C 
ATOM     10  O   UNL     1       5.056   3.564  16.521  0.00  0.00    +0.000 OA
ENDROOT
BRANCH   1  14
ATOM     11  C   UNL     1       0.767   9.852  20.192  0.00  0.00    +0.000 A 
ATOM     12  C   UNL     1       1.126   9.953  18.858  0.00  0.00    +0.000 A 
ATOM     13  C   UNL     1       1.834   8.911  18.262  0.00  0.00    +0.000 A 
ATOM     14  C   UNL     1       2.152   7.725  18.963  0.00  0.00    +0.000 A 
ATOM     15  C   UNL     1       1.850   7.680  20.328  0.00  0.00    +0.000 A 
ATOM     16  C   UNL     1       1.156   8.737  20.934  0.00  0.00    +0.000 A 
ENDBRANCH   1  14
BRANCH   8  17
ATOM     17  C   UNL     1       7.267   5.946  17.116  0.00  0.00    +0.000 C 
ATOM     18  N   UNL     1       7.577   5.139  18.098  0.00  0.00    +0.000 NA
ATOM     19  C   UNL     1       8.086   6.041  19.172  0.00  0.00    +0.000 C 
ATOM     20  C   UNL     1       8.218   7.445  18.573  0.00  0.00    +0.000 C 
ATOM     21  N   UNL     1       7.636   7.268  17.264  0.00  0.00    +0.000 N 
ATOM     22  H   UNL     1       6.976   7.956  16.923  0.00  0.00    +0.000 HD
ENDBRANCH   8  17
TORSDOF 2
ENDMDL
MODEL 2
REMARK VINA RESULT:      -7.8      1.777      2.684
REMARK  Name = 
REMARK  2 active torsions:
REMARK  status: ('A' for Active; 'I' for Inactive)
REMARK    1  A    between atoms: C_4  and  C_5
REMARK    2  A    between atoms: C_12  and  C_13
REMARK                            x       y       z     vdW  Elec       q    Type
REMARK                         _______ _______ _______ _____ _____    ______ ____
ROOT
ATOM      1  C   UNL     1       1.986   6.570  19.494  0.00  0.00    +0.000 A 
ATOM      2  C   UNL     1       2.117   5.883  20.712  0.00  0.00    +0.000 A 
ATOM      3  C   UNL     1       2.519   4.533  20.736  0.00  0.00    +0.000 A 
ATOM      4  C   UNL     1       2.820   3.877  19.542  0.00  0.00    +0.000 A 
ATOM      5  C   UNL     1       2.584   4.516  18.331  0.00  0.00    +0.000 A 
ATOM      6  C   UNL     1       2.128   5.824  18.312  0.00  0.00    +0.000 A 
ATOM      7  O   UNL     1       2.853   3.953  17.114  0.00  0.00    +0.000 OA
ATOM      8  C   UNL     1       4.004   3.111  17.231  0.00  0.00    +0.000 C 
ATOM      9  C   UNL     1       3.828   2.104  18.365  0.00  0.00    +0.000 C 
ATOM     10  O   UNL     1       3.392   2.639  19.626  0.00  0.00    +0.000 OA
ENDROOT
BRANCH   1  14
ATOM     11  C   UNL     1       1.161  10.729  18.837  0.00  0.00    +0.000 A 
ATOM     12  C   UNL     1       1.850   9.990  17.889  0.00  0.00    +0.000 A 
ATOM     13  C   UNL     1       2.178   8.664  18.165  0.00  0.00    +0.000 A 
ATOM     14  C   UNL     1       1.782   8.028  19.364  0.00  0.00    +0.000 A 
ATOM     15  C   UNL     1       1.159   8.816  20.338  0.00  0.00    +0.000 A 
ATOM     16  C   UNL     1       0.846  10.157  20.069  0.00  0.00    +0.000 A 
ENDBRANCH   1  14
BRANCH   8  17
ATOM     17  C   UNL     1       5.256   3.998  17.261  0.00  0.00    +0.000 C 
ATOM     18  N   UNL     1       5.576   4.834  16.308  0.00  0.00    +0.000 NA
ATOM     19  C   UNL     1       6.950   5.295  16.664  0.00  0.00    +0.000 C 
ATOM     20  C   UNL     1       7.267   4.761  18.066  0.00  0.00    +0.000 C 
ATOM     21  N   UNL     1       6.125   3.921  18.331  0.00  0.00    +0.000 N 
ATOM     22  H   UNL     1       6.274   2.998  18.719  0.00  0.00    +0.000 HD
ENDBRANCH   8  17
TORSDOF 2
ENDMDL
MODEL 3
REMARK VINA RESULT:      -7.7      1.369      1.956
REMARK  Name = 
REMARK  2 active torsions:
REMARK  status: ('A' for Active; 'I' for Inactive)
REMARK    1  A    between atoms: C_4  and  C_5
REMARK    2  A    between atoms: C_12  and  C_13
REMARK                            x       y       z     vdW  Elec       q    Type
REMARK                         _______ _______ _______ _____ _____    ______ ____
ROOT
ATOM      1  C   UNL     1       3.096   6.727  18.777  0.00  0.00    +0.000 A 
ATOM      2  C   UNL     1       3.352   5.737  19.740  0.00  0.00    +0.000 A 
ATOM      3  C   UNL     1       4.448   4.864  19.599  0.00  0.00    +0.000 A 
ATOM      4  C   UNL     1       5.308   4.998  18.509  0.00  0.00    +0.000 A 
ATOM      5  C   UNL     1       4.995   5.898  17.498  0.00  0.00    +0.000 A 
ATOM      6  C   UNL     1       3.881   6.712  17.611  0.00  0.00    +0.000 A 
ATOM      7  O   UNL     1       5.782   6.101  16.397  0.00  0.00    +0.000 OA
ATOM      8  C   UNL     1       7.154   5.930  16.762  0.00  0.00    +0.000 C 
ATOM      9  C   UNL     1       7.371   4.585  17.451  0.00  0.00    +0.000 C 
ATOM     10  O   UNL     1       6.461   4.265  18.517  0.00  0.00    +0.000 OA
ENDROOT
BRANCH   1  14
ATOM     11  C   UNL     1       0.496  10.074  19.444  0.00  0.00    +0.000 A 
ATOM     12  C   UNL     1       0.804   9.205  20.478  0.00  0.00    +0.000 A 
ATOM     13  C   UNL     1       1.582   8.079  20.214  0.00  0.00    +0.000 A 
ATOM     14  C   UNL     1       2.115   7.822  18.930  0.00  0.00    +0.000 A 
ATOM     15  C   UNL     1       1.725   8.668  17.887  0.00  0.00    +0.000 A 
ATOM     16  C   UNL     1       0.925   9.790  18.147  0.00  0.00    +0.000 A 
ENDBRANCH   1  14
BRANCH   8  17
ATOM     17  C   UNL     1       7.621   7.189  17.506  0.00  0.00    +0.000 C 
ATOM     18  N   UNL     1       7.429   8.405  17.066  0.00  0.00    +0.000 NA
ATOM     19  C   UNL     1       8.229   9.264  17.988  0.00  0.00    +0.000 C 
ATOM     20  C   UNL     1       8.724   8.375  19.135  0.00  0.00    +0.000 C 
ATOM     21  N   UNL     1       8.300   7.065  18.701  0.00  0.00    +0.000 N 
ATOM     22  H   UNL     1       8.951   6.292  18.768  0.00  0.00    +0.000 HD
ENDBRANCH   8  17
TORSDOF 2
ENDMDL
MODEL 4
REMARK VINA RESULT:      -7.6      3.035      6.746
REMARK  Name = 
REMARK  2 active torsions:
REMARK  status: ('A' for Active; 'I' for Inactive)
REMARK    1  A    between atoms: C_4  and  C_5
REMARK    2  A    between atoms: C_12  and  C_13
REMARK                            x       y       z     vdW  Elec       q    Type
REMARK                         _______ _______ _______ _____ _____    ______ ____
ROOT
ATOM      1  C   UNL     1       6.445   5.137  15.661  0.00  0.00    +0.000 A 
ATOM      2  C   UNL     1       7.378   5.113  16.710  0.00  0.00    +0.000 A 
ATOM      3  C   UNL     1       6.974   5.354  18.037  0.00  0.00    +0.000 A 
ATOM      4  C   UNL     1       5.629   5.590  18.322  0.00  0.00    +0.000 A 
ATOM      5  C   UNL     1       4.723   5.726  17.278  0.00  0.00    +0.000 A 
ATOM      6  C   UNL     1       5.137   5.550  15.968  0.00  0.00    +0.000 A 
ATOM      7  O   UNL     1       3.386   5.952  17.462  0.00  0.00    +0.000 OA
ATOM      8  C   UNL     1       2.959   5.294  18.658  0.00  0.00    +0.000 C 
ATOM      9  C   UNL     1       3.835   5.697  19.843  0.00  0.00    +0.000 C 
ATOM     10  O   UNL     1       5.256   5.621  19.635  0.00  0.00    +0.000 OA
ENDROOT
BRANCH   1  14
ATOM     11  C   UNL     1       6.885   3.951  11.561  0.00  0.00    +0.000 A 
ATOM     12  C   UNL     1       6.013   3.275  12.399  0.00  0.00    +0.000 A 
ATOM     13  C   UNL     1       5.952   3.626  13.747  0.00  0.00    +0.000 A 
ATOM     14  C   UNL     1       6.716   4.691  14.278  0.00  0.00    +0.000 A 
ATOM     15  C   UNL     1       7.646   5.305  13.432  0.00  0.00    +0.000 A 
ATOM     16  C   UNL     1       7.722   4.938  12.080  0.00  0.00    +0.000 A 
ENDBRANCH   1  14
BRANCH   8  17
ATOM     17  C   UNL     1       2.813   3.795  18.365  0.00  0.00    +0.000 C 
ATOM     18  N   UNL     1       1.902   3.297  17.570  0.00  0.00    +0.000 NA
ATOM     19  C   UNL     1       2.006   1.821  17.766  0.00  0.00    +0.000 C 
ATOM     20  C   UNL     1       3.249   1.555  18.622  0.00  0.00    +0.000 C 
ATOM     21  N   UNL     1       3.664   2.892  18.971  0.00  0.00    +0.000 N 
ATOM     22  H   UNL     1       3.918   3.093  19.930  0.00  0.00    +0.000 HD
ENDBRANCH   8  17
TORSDOF 2
ENDMDL
MODEL 5
REMARK VINA RESULT:      -7.5      1.704      2.768
REMARK  Name = 
REMARK  2 active torsions:
REMARK  status: ('A' for Active; 'I' for Inactive)
REMARK    1  A    between atoms: C_4  and  C_5
REMARK    2  A    between atoms: C_12  and  C_13
REMARK                            x       y       z     vdW  Elec       q    Type
REMARK                         _______ _______ _______ _____ _____    ______ ____
ROOT
ATOM      1  C   UNL     1       1.924   6.757  19.342  0.00  0.00    +0.000 A 
ATOM      2  C   UNL     1       2.015   6.147  20.604  0.00  0.00    +0.000 A 
ATOM      3  C   UNL     1       2.463   4.818  20.729  0.00  0.00    +0.000 A 
ATOM      4  C   UNL     1       2.849   4.106  19.593  0.00  0.00    +0.000 A 
ATOM      5  C   UNL     1       2.654   4.664  18.336  0.00  0.00    +0.000 A 
ATOM      6  C   UNL     1       2.154   5.950  18.215  0.00  0.00    +0.000 A 
ATOM      7  O   UNL     1       3.007   4.042  17.169  0.00  0.00    +0.000 OA
ATOM      8  C   UNL     1       4.179   3.254  17.394  0.00  0.00    +0.000 C 
ATOM      9  C   UNL     1       3.980   2.308  18.576  0.00  0.00    +0.000 C 
ATOM     10  O   UNL     1       3.460   2.898  19.780  0.00  0.00    +0.000 OA
ENDROOT
BRANCH   1  14
ATOM     11  C   UNL     1       1.428  11.003  18.973  0.00  0.00    +0.000 A 
ATOM     12  C   UNL     1       0.923  10.329  20.073  0.00  0.00    +0.000 A 
ATOM     13  C   UNL     1       1.023   8.940  20.127  0.00  0.00    +0.000 A 
ATOM     14  C   UNL     1       1.675   8.197  19.115  0.00  0.00    +0.000 A 
ATOM     15  C   UNL     1       2.105   8.890  17.979  0.00  0.00    +0.000 A 
ATOM     16  C   UNL     1       1.986  10.286  17.915  0.00  0.00    +0.000 A 
ENDBRANCH   1  14
BRANCH   8  17
ATOM     17  C   UNL     1       5.396   4.188  17.433  0.00  0.00    +0.000 C 
ATOM     18  N   UNL     1       5.664   5.070  16.506  0.00  0.00    +0.000 NA
ATOM     19  C   UNL     1       7.025   5.573  16.854  0.00  0.00    +0.000 C 
ATOM     20  C   UNL     1       7.390   5.003  18.229  0.00  0.00    +0.000 C 
ATOM     21  N   UNL     1       6.287   4.109  18.485  0.00  0.00    +0.000 N 
ATOM     22  H   UNL     1       6.480   3.179  18.837  0.00  0.00    +0.000 HD
ENDBRANCH   8  17
TORSDOF 2
ENDMDL
MODEL 6
REMARK VINA RESULT:      -7.5      1.468      2.208
REMARK  Name = 
REMARK  2 active torsions:
REMARK  status: ('A' for Active; 'I' for Inactive)
REMARK    1  A    between atoms: C_4  and  C_5
REMARK    2  A    between atoms: C_12  and  C_13
REMARK                            x       y       z     vdW  Elec       q    Type
REMARK                         _______ _______ _______ _____ _____    ______ ____
ROOT
ATOM      1  C   UNL     1       1.924   6.854  19.678  0.00  0.00    +0.000 A 
ATOM      2  C   UNL     1       1.831   5.946  20.746  0.00  0.00    +0.000 A 
ATOM      3  C   UNL     1       2.369   4.650  20.636  0.00  0.00    +0.000 A 
ATOM      4  C   UNL     1       3.028   4.268  19.468  0.00  0.00    +0.000 A 
ATOM      5  C   UNL     1       3.024   5.120  18.370  0.00  0.00    +0.000 A 
ATOM      6  C   UNL     1       2.438   6.371  18.462  0.00  0.00    +0.000 A 
ATOM      7  O   UNL     1       3.648   4.831  17.187  0.00  0.00    +0.000 OA
ATOM      8  C   UNL     1       4.824   4.061  17.453  0.00  0.00    +0.000 C 
ATOM      9  C   UNL     1       4.493   2.837  18.304  0.00  0.00    +0.000 C 
ATOM     10  O   UNL     1       3.701   3.079  19.480  0.00  0.00    +0.000 OA
ENDROOT
BRANCH   1  14
ATOM     11  C   UNL     1       0.679  10.960  19.673  0.00  0.00    +0.000 A 
ATOM     12  C   UNL     1       1.224  10.388  18.534  0.00  0.00    +0.000 A 
ATOM     13  C   UNL     1       1.698   9.079  18.589  0.00  0.00    +0.000 A 
ATOM     14  C   UNL     1       1.591   8.292  19.759  0.00  0.00    +0.000 A 
ATOM     15  C   UNL     1       1.112   8.915  20.915  0.00  0.00    +0.000 A 
ATOM     16  C   UNL     1       0.653  10.240  20.867  0.00  0.00    +0.000 A 
ENDBRANCH   1  14
BRANCH   8  17
ATOM     17  C   UNL     1       5.919   5.006  17.968  0.00  0.00    +0.000 C 
ATOM     18  N   UNL     1       6.321   6.070  17.324  0.00  0.00    +0.000 NA
ATOM     19  C   UNL     1       7.520   6.532  18.083  0.00  0.00    +0.000 C 
ATOM     20  C   UNL     1       7.604   5.699  19.366  0.00  0.00    +0.000 C 
ATOM     21  N   UNL     1       6.548   4.736  19.167  0.00  0.00    +0.000 N 
ATOM     22  H   UNL     1       6.730   3.760  19.366  0.00  0.00    +0.000 HD
ENDBRANCH   8  17
TORSDOF 2
ENDMDL
MODEL 7
REMARK VINA RESULT:      -7.4      1.624      2.575
REMARK  Name = 
REMARK  2 active torsions:
REMARK  status: ('A' for Active; 'I' for Inactive)
REMARK    1  A    between atoms: C_4  and  C_5
REMARK    2  A    between atoms: C_12  and  C_13
REMARK                            x       y       z     vdW  Elec       q    Type
REMARK                         _______ _______ _______ _____ _____    ______ ____
ROOT
ATOM      1  C   UNL     1       1.922   6.977  19.358  0.00  0.00    +0.000 A 
ATOM      2  C   UNL     1       1.796   6.342  20.605  0.00  0.00    +0.000 A 
ATOM      3  C   UNL     1       2.249   5.022  20.789  0.00  0.00    +0.000 A 
ATOM      4  C   UNL     1       2.858   4.344  19.733  0.00  0.00    +0.000 A 
ATOM      5  C   UNL     1       2.884   4.924  18.471  0.00  0.00    +0.000 A 
ATOM      6  C   UNL     1       2.379   6.200  18.281  0.00  0.00    +0.000 A 
ATOM      7  O   UNL     1       3.464   4.336  17.380  0.00  0.00    +0.000 OA
ATOM      8  C   UNL     1       4.596   3.571  17.805  0.00  0.00    +0.000 C 
ATOM      9  C   UNL     1       4.207   2.595  18.915  0.00  0.00    +0.000 C 
ATOM     10  O   UNL     1       3.457   3.147  20.010  0.00  0.00    +0.000 OA
ENDROOT
BRANCH   1  14
ATOM     11  C   UNL     1       1.438  11.220  18.942  0.00  0.00    +0.000 A 
ATOM     12  C   UNL     1       0.902  10.554  20.033  0.00  0.00    +0.000 A 
ATOM     13  C   UNL     1       1.001   9.166  20.100  0.00  0.00    +0.000 A 
ATOM     14  C   UNL     1       1.681   8.415  19.113  0.00  0.00    +0.000 A 
ATOM     15  C   UNL     1       2.142   9.099  17.984  0.00  0.00    +0.000 A 
ATOM     16  C   UNL     1       2.025  10.495  17.905  0.00  0.00    +0.000 A 
ENDBRANCH   1  14
BRANCH   8  17
ATOM     17  C   UNL     1       5.758   4.534  18.086  0.00  0.00    +0.000 C 
ATOM     18  N   UNL     1       6.426   4.557  19.209  0.00  0.00    +0.000 NA
ATOM     19  C   UNL     1       7.287   5.771  19.104  0.00  0.00    +0.000 C 
ATOM     20  C   UNL     1       7.161   6.304  17.672  0.00  0.00    +0.000 C 
ATOM     21  N   UNL     1       6.134   5.452  17.125  0.00  0.00    +0.000 N 
ATOM     22  H   UNL     1       5.383   5.870  16.589  0.00  0.00    +0.000 HD
ENDBRANCH   8  17
TORSDOF 2
ENDMDL
MODEL 8
REMARK VINA RESULT:      -7.4      0.595      1.032
REMARK  Name = 
REMARK  2 active torsions:
REMARK  status: ('A' for Active; 'I' for Inactive)
REMARK    1  A    between atoms: C_4  and  C_5
REMARK    2  A    between atoms: C_12  and  C_13
REMARK                            x       y       z     vdW  Elec       q    Type
REMARK                         _______ _______ _______ _____ _____    ______ ____
ROOT
ATOM      1  C   UNL     1       2.518   6.865  18.660  0.00  0.00    +0.000 A 
ATOM      2  C   UNL     1       2.450   5.570  19.198  0.00  0.00    +0.000 A 
ATOM      3  C   UNL     1       3.230   4.527  18.663  0.00  0.00    +0.000 A 
ATOM      4  C   UNL     1       4.104   4.785  17.607  0.00  0.00    +0.000 A 
ATOM      5  C   UNL     1       4.092   6.035  16.999  0.00  0.00    +0.000 A 
ATOM      6  C   UNL     1       3.276   7.040  17.489  0.00  0.00    +0.000 A 
ATOM      7  O   UNL     1       4.916   6.378  15.962  0.00  0.00    +0.000 OA
ATOM      8  C   UNL     1       6.167   5.702  16.113  0.00  0.00    +0.000 C 
ATOM      9  C   UNL     1       5.957   4.198  16.277  0.00  0.00    +0.000 C 
ATOM     10  O   UNL     1       4.979   3.798  17.253  0.00  0.00    +0.000 OA
ENDROOT
BRANCH   1  14
ATOM     11  C   UNL     1       0.467  10.297  20.219  0.00  0.00    +0.000 A 
ATOM     12  C   UNL     1       0.895  10.271  18.902  0.00  0.00    +0.000 A 
ATOM     13  C   UNL     1       1.633   9.180  18.445  0.00  0.00    +0.000 A 
ATOM     14  C   UNL     1       1.914   8.068  19.272  0.00  0.00    +0.000 A 
ATOM     15  C   UNL     1       1.542   8.152  20.618  0.00  0.00    +0.000 A 
ATOM     16  C   UNL     1       0.817   9.259  21.084  0.00  0.00    +0.000 A 
ENDBRANCH   1  14
BRANCH   8  17
ATOM     17  C   UNL     1       6.985   6.423  17.193  0.00  0.00    +0.000 C 
ATOM     18  N   UNL     1       7.311   7.688  17.133  0.00  0.00    +0.000 NA
ATOM     19  C   UNL     1       8.267   7.879  18.263  0.00  0.00    +0.000 C 
ATOM     20  C   UNL     1       8.264   6.591  19.093  0.00  0.00    +0.000 C 
ATOM     21  N   UNL     1       7.433   5.723  18.295  0.00  0.00    +0.000 N 
ATOM     22  H   UNL     1       7.736   4.771  18.127  0.00  0.00    +0.000 HD
ENDBRANCH   8  17
TORSDOF 2
ENDMDL
MODEL 9
REMARK VINA RESULT:      -7.4      3.088      6.756
REMARK  Name = 
REMARK  2 active torsions:
REMARK  status: ('A' for Active; 'I' for Inactive)
REMARK    1  A    between atoms: C_4  and  C_5
REMARK    2  A    between atoms: C_12  and  C_13
REMARK                            x       y       z     vdW  Elec       q    Type
REMARK                         _______ _______ _______ _____ _____    ______ ____
ROOT
ATOM      1  C   UNL     1       6.266   5.014  15.503  0.00  0.00    +0.000 A 
ATOM      2  C   UNL     1       7.280   4.875  16.465  0.00  0.00    +0.000 A 
ATOM      3  C   UNL     1       7.014   5.112  17.828  0.00  0.00    +0.000 A 
ATOM      4  C   UNL     1       5.726   5.459  18.234  0.00  0.00    +0.000 A 
ATOM      5  C   UNL     1       4.750   5.708  17.277  0.00  0.00    +0.000 A 
ATOM      6  C   UNL     1       5.033   5.534  15.933  0.00  0.00    +0.000 A 
ATOM      7  O   UNL     1       3.460   6.048  17.583  0.00  0.00    +0.000 OA
ATOM      8  C   UNL     1       3.079   5.395  18.797  0.00  0.00    +0.000 C 
ATOM      9  C   UNL     1       4.086   5.682  19.909  0.00  0.00    +0.000 C 
ATOM     10  O   UNL     1       5.470   5.485  19.576  0.00  0.00    +0.000 OA
ENDROOT
BRANCH   1  14
ATOM     11  C   UNL     1       6.914   3.624  11.495  0.00  0.00    +0.000 A 
ATOM     12  C   UNL     1       7.712   4.622  12.032  0.00  0.00    +0.000 A 
ATOM     13  C   UNL     1       7.426   5.114  13.305  0.00  0.00    +0.000 A 
ATOM     14  C   UNL     1       6.376   4.587  14.092  0.00  0.00    +0.000 A 
ATOM     15  C   UNL     1       5.536   3.639  13.499  0.00  0.00    +0.000 A 
ATOM     16  C   UNL     1       5.811   3.158  12.210  0.00  0.00    +0.000 A 
ENDBRANCH   1  14
BRANCH   8  17
ATOM     17  C   UNL     1       2.770   3.925  18.485  0.00  0.00    +0.000 C 
ATOM     18  N   UNL     1       1.792   3.537  17.710  0.00  0.00    +0.000 NA
ATOM     19  C   UNL     1       1.748   2.055  17.880  0.00  0.00    +0.000 C 
ATOM     20  C   UNL     1       2.979   1.647  18.696  0.00  0.00    +0.000 C 
ATOM     21  N   UNL     1       3.539   2.928  19.052  0.00  0.00    +0.000 N 
ATOM     22  H   UNL     1       3.839   3.084  20.007  0.00  0.00    +0.000 HD
ENDBRANCH   8  17
TORSDOF 2
ENDMDL
