MODEL 1
REMARK VINA RESULT:      -7.5      0.000      0.000
REMARK  Name = 
REMARK  5 active torsions:
REMARK  status: ('A' for Active; 'I' for Inactive)
REMARK    1  A    between atoms: C_1  and  O_2
REMARK    2  A    between atoms: O_2  and  C_3
REMARK    3  A    between atoms: C_8  and  O_9
REMARK    4  A    between atoms: C_14  and  C_15
REMARK    5  A    between atoms: C_17  and  C_18
REMARK                            x       y       z     vdW  Elec       q    Type
REMARK                         _______ _______ _______ _____ _____    ______ ____
ROOT
ATOM      1  C   UNL     1       2.580   3.388  19.727  0.00  0.00    +0.000 A 
ATOM      2  C   UNL     1       2.698   4.242  18.631  0.00  0.00    +0.000 A 
ATOM      3  C   UNL     1       2.505   5.627  18.773  0.00  0.00    +0.000 A 
ATOM      4  C   UNL     1       2.134   6.173  20.017  0.00  0.00    +0.000 A 
ATOM      5  C   UNL     1       2.055   5.311  21.126  0.00  0.00    +0.000 A 
ATOM      6  C   UNL     1       2.259   3.936  20.972  0.00  0.00    +0.000 A 
ATOM      7  C   UNL     1       1.878   7.679  20.160  0.00  0.00    +0.000 C 
ATOM      8  C   UNL     1       0.569   7.960  20.931  0.00  0.00    +0.000 C 
ATOM      9  C   UNL     1       0.288   9.438  21.057  0.00  0.00    +0.000 A 
ATOM     10  C   UNL     1      -0.537   9.902  22.092  0.00  0.00    +0.000 A 
ATOM     11  C   UNL     1      -0.812  11.263  22.225  0.00  0.00    +0.000 A 
ATOM     12  C   UNL     1      -1.672  11.771  23.344  0.00  0.00    +0.000 C 
ATOM     13  C   UNL     1      -0.270  12.161  21.298  0.00  0.00    +0.000 A 
ATOM     14  C   UNL     1       0.542  11.716  20.243  0.00  0.00    +0.000 A 
ATOM     15  C   UNL     1       1.100  12.723  19.274  0.00  0.00    +0.000 C 
ATOM     16  C   UNL     1       0.821  10.338  20.115  0.00  0.00    +0.000 A 
ATOM     17  C   UNL     1       1.737   9.833  19.017  0.00  0.00    +0.000 C 
ATOM     18  N   UNL     1       1.767   8.373  18.856  0.00  0.00    +0.000 NA
ATOM     19  C   UNL     1       2.848   7.975  17.951  0.00  0.00    +0.000 C 
ATOM     20  C   UNL     1       2.646   6.512  17.562  0.00  0.00    +0.000 C 
ENDROOT
BRANCH   1  22
ATOM     21  C   UNL     1       3.469   1.526  18.565  0.00  0.00    +0.000 C 
ATOM     22  O   UNL     1       2.715   2.026  19.661  0.00  0.00    +0.000 OA
ENDBRANCH   1  22
BRANCH   6  23
ATOM     23  O   UNL     1       2.155   3.106  22.059  0.00  0.00    +0.000 OA
ATOM     24  H   UNL     1       1.637   3.550  22.747  0.00  0.00    +0.000 HD
ENDBRANCH   6  23
TORSDOF 2
ENDMDL
MODEL 2
REMARK VINA RESULT:      -7.0      3.048      7.239
REMARK  Name = 
REMARK  5 active torsions:
REMARK  status: ('A' for Active; 'I' for Inactive)
REMARK    1  A    between atoms: C_1  and  O_2
REMARK    2  A    between atoms: O_2  and  C_3
REMARK    3  A    between atoms: C_8  and  O_9
REMARK    4  A    between atoms: C_14  and  C_15
REMARK    5  A    between atoms: C_17  and  C_18
REMARK                            x       y       z     vdW  Elec       q    Type
REMARK                         _______ _______ _______ _____ _____    ______ ____
ROOT
ATOM      1  C   UNL     1      -0.162  12.280  21.396  0.00  0.00    +0.000 A 
ATOM      2  C   UNL     1       0.678  12.212  20.286  0.00  0.00    +0.000 A 
ATOM      3  C   UNL     1       1.052  10.972  19.740  0.00  0.00    +0.000 A 
ATOM      4  C   UNL     1       0.628   9.771  20.340  0.00  0.00    +0.000 A 
ATOM      5  C   UNL     1      -0.251   9.846  21.435  0.00  0.00    +0.000 A 
ATOM      6  C   UNL     1      -0.623  11.087  21.962  0.00  0.00    +0.000 A 
ATOM      7  C   UNL     1       1.074   8.417  19.771  0.00  0.00    +0.000 C 
ATOM      8  C   UNL     1       1.568   7.469  20.887  0.00  0.00    +0.000 C 
ATOM      9  C   UNL     1       2.038   6.142  20.341  0.00  0.00    +0.000 A 
ATOM     10  C   UNL     1       2.055   5.015  21.176  0.00  0.00    +0.000 A 
ATOM     11  C   UNL     1       2.488   3.780  20.693  0.00  0.00    +0.000 A 
ATOM     12  C   UNL     1       2.486   2.564  21.571  0.00  0.00    +0.000 C 
ATOM     13  C   UNL     1       2.926   3.683  19.367  0.00  0.00    +0.000 A 
ATOM     14  C   UNL     1       2.935   4.803  18.520  0.00  0.00    +0.000 A 
ATOM     15  C   UNL     1       3.415   4.645  17.103  0.00  0.00    +0.000 C 
ATOM     16  C   UNL     1       2.492   6.050  19.012  0.00  0.00    +0.000 A 
ATOM     17  C   UNL     1       2.441   7.265  18.106  0.00  0.00    +0.000 C 
ATOM     18  N   UNL     1       2.179   8.538  18.790  0.00  0.00    +0.000 NA
ATOM     19  C   UNL     1       1.908   9.601  17.819  0.00  0.00    +0.000 C 
ATOM     20  C   UNL     1       1.960  10.947  18.539  0.00  0.00    +0.000 C 
ENDROOT
BRANCH   1  22
ATOM     21  C   UNL     1       0.210  14.603  21.662  0.00  0.00    +0.000 C 
ATOM     22  O   UNL     1      -0.541  13.447  22.007  0.00  0.00    +0.000 OA
ENDBRANCH   1  22
BRANCH   6  23
ATOM     23  O   UNL     1      -1.463  11.144  23.045  0.00  0.00    +0.000 OA
ATOM     24  H   UNL     1      -1.157  11.840  23.646  0.00  0.00    +0.000 HD
ENDBRANCH   6  23
TORSDOF 2
ENDMDL
MODEL 3
REMARK VINA RESULT:      -6.8      5.119      8.565
REMARK  Name = 
REMARK  5 active torsions:
REMARK  status: ('A' for Active; 'I' for Inactive)
REMARK    1  A    between atoms: C_1  and  O_2
REMARK    2  A    between atoms: O_2  and  C_3
REMARK    3  A    between atoms: C_8  and  O_9
REMARK    4  A    between atoms: C_14  and  C_15
REMARK    5  A    between atoms: C_17  and  C_18
REMARK                            x       y       z     vdW  Elec       q    Type
REMARK                         _______ _______ _______ _____ _____    ______ ____
ROOT
ATOM      1  C   UNL     1       2.512   4.279  20.038  0.00  0.00    +0.000 A 
ATOM      2  C   UNL     1       3.772   4.872  20.102  0.00  0.00    +0.000 A 
ATOM      3  C   UNL     1       4.519   5.103  18.934  0.00  0.00    +0.000 A 
ATOM      4  C   UNL     1       4.031   4.688  17.680  0.00  0.00    +0.000 A 
ATOM      5  C   UNL     1       2.743   4.126  17.619  0.00  0.00    +0.000 A 
ATOM      6  C   UNL     1       2.006   3.911  18.788  0.00  0.00    +0.000 A 
ATOM      7  C   UNL     1       4.868   4.898  16.411  0.00  0.00    +0.000 C 
ATOM      8  C   UNL     1       4.910   3.621  15.542  0.00  0.00    +0.000 C 
ATOM      9  C   UNL     1       5.753   3.802  14.303  0.00  0.00    +0.000 A 
ATOM     10  C   UNL     1       5.533   2.981  13.188  0.00  0.00    +0.000 A 
ATOM     11  C   UNL     1       6.302   3.130  12.033  0.00  0.00    +0.000 A 
ATOM     12  C   UNL     1       6.056   2.274  10.826  0.00  0.00    +0.000 C 
ATOM     13  C   UNL     1       7.313   4.097  12.009  0.00  0.00    +0.000 A 
ATOM     14  C   UNL     1       7.564   4.916  13.122  0.00  0.00    +0.000 A 
ATOM     15  C   UNL     1       8.663   5.941  13.043  0.00  0.00    +0.000 C 
ATOM     16  C   UNL     1       6.780   4.765  14.285  0.00  0.00    +0.000 A 
ATOM     17  C   UNL     1       6.992   5.670  15.484  0.00  0.00    +0.000 C 
ATOM     18  N   UNL     1       6.274   5.268  16.700  0.00  0.00    +0.000 NA
ATOM     19  C   UNL     1       6.344   6.323  17.715  0.00  0.00    +0.000 C 
ATOM     20  C   UNL     1       5.875   5.749  19.050  0.00  0.00    +0.000 C 
ENDROOT
BRANCH   1  22
ATOM     21  C   UNL     1       1.985   2.732  21.752  0.00  0.00    +0.000 C 
ATOM     22  O   UNL     1       1.741   3.988  21.133  0.00  0.00    +0.000 OA
ENDBRANCH   1  22
BRANCH   6  23
ATOM     23  O   UNL     1       0.761   3.341  18.713  0.00  0.00    +0.000 OA
ATOM     24  H   UNL     1       0.753   2.693  17.993  0.00  0.00    +0.000 HD
ENDBRANCH   6  23
TORSDOF 2
ENDMDL
MODEL 4
REMARK VINA RESULT:      -6.7      3.554      7.868
REMARK  Name = 
REMARK  5 active torsions:
REMARK  status: ('A' for Active; 'I' for Inactive)
REMARK    1  A    between atoms: C_1  and  O_2
REMARK    2  A    between atoms: O_2  and  C_3
REMARK    3  A    between atoms: C_8  and  O_9
REMARK    4  A    between atoms: C_14  and  C_15
REMARK    5  A    between atoms: C_17  and  C_18
REMARK                            x       y       z     vdW  Elec       q    Type
REMARK                         _______ _______ _______ _____ _____    ______ ____
ROOT
ATOM      1  C   UNL     1       0.393  12.759  18.939  0.00  0.00    +0.000 A 
ATOM      2  C   UNL     1      -0.257  11.947  19.867  0.00  0.00    +0.000 A 
ATOM      3  C   UNL     1       0.220  10.656  20.152  0.00  0.00    +0.000 A 
ATOM      4  C   UNL     1       1.332  10.137  19.463  0.00  0.00    +0.000 A 
ATOM      5  C   UNL     1       2.005  10.975  18.556  0.00  0.00    +0.000 A 
ATOM      6  C   UNL     1       1.526  12.261  18.289  0.00  0.00    +0.000 A 
ATOM      7  C   UNL     1       1.823   8.709  19.741  0.00  0.00    +0.000 C 
ATOM      8  C   UNL     1       2.085   7.935  18.430  0.00  0.00    +0.000 C 
ATOM      9  C   UNL     1       2.542   6.519  18.686  0.00  0.00    +0.000 A 
ATOM     10  C   UNL     1       3.275   5.838  17.703  0.00  0.00    +0.000 A 
ATOM     11  C   UNL     1       3.705   4.528  17.918  0.00  0.00    +0.000 A 
ATOM     12  C   UNL     1       4.512   3.801  16.883  0.00  0.00    +0.000 C 
ATOM     13  C   UNL     1       3.377   3.893  19.121  0.00  0.00    +0.000 A 
ATOM     14  C   UNL     1       2.627   4.550  20.110  0.00  0.00    +0.000 A 
ATOM     15  C   UNL     1       2.302   3.821  21.386  0.00  0.00    +0.000 C 
ATOM     16  C   UNL     1       2.199   5.876  19.890  0.00  0.00    +0.000 A 
ATOM     17  C   UNL     1       1.433   6.629  20.961  0.00  0.00    +0.000 C 
ATOM     18  N   UNL     1       0.855   7.908  20.527  0.00  0.00    +0.000 NA
ATOM     19  C   UNL     1       0.353   8.665  21.677  0.00  0.00    +0.000 C 
ATOM     20  C   UNL     1      -0.513   9.815  21.165  0.00  0.00    +0.000 C 
ENDROOT
BRANCH   1  22
ATOM     21  C   UNL     1      -0.442  14.860  19.644  0.00  0.00    +0.000 C 
ATOM     22  O   UNL     1      -0.031  14.012  18.580  0.00  0.00    +0.000 OA
ENDBRANCH   1  22
BRANCH   6  23
ATOM     23  O   UNL     1       2.181  13.059  17.385  0.00  0.00    +0.000 OA
ATOM     24  H   UNL     1       1.825  12.890  16.500  0.00  0.00    +0.000 HD
ENDBRANCH   6  23
TORSDOF 2
ENDMDL
MODEL 5
REMARK VINA RESULT:      -6.6      3.598      7.814
REMARK  Name = 
REMARK  5 active torsions:
REMARK  status: ('A' for Active; 'I' for Inactive)
REMARK    1  A    between atoms: C_1  and  O_2
REMARK    2  A    between atoms: O_2  and  C_3
REMARK    3  A    between atoms: C_8  and  O_9
REMARK    4  A    between atoms: C_14  and  C_15
REMARK    5  A    between atoms: C_17  and  C_18
REMARK                            x       y       z     vdW  Elec       q    Type
REMARK                         _______ _______ _______ _____ _____    ______ ____
ROOT
ATOM      1  C   UNL     1      -0.567  11.859  19.671  0.00  0.00    +0.000 A 
ATOM      2  C   UNL     1      -0.769  10.702  20.423  0.00  0.00    +0.000 A 
ATOM      3  C   UNL     1       0.132   9.626  20.343  0.00  0.00    +0.000 A 
ATOM      4  C   UNL     1       1.226   9.674  19.458  0.00  0.00    +0.000 A 
ATOM      5  C   UNL     1       1.445  10.859  18.733  0.00  0.00    +0.000 A 
ATOM      6  C   UNL     1       0.547  11.926  18.829  0.00  0.00    +0.000 A 
ATOM      7  C   UNL     1       2.182   8.479  19.337  0.00  0.00    +0.000 C 
ATOM      8  C   UNL     1       2.464   8.127  17.860  0.00  0.00    +0.000 C 
ATOM      9  C   UNL     1       3.380   6.935  17.722  0.00  0.00    +0.000 A 
ATOM     10  C   UNL     1       4.125   6.764  16.546  0.00  0.00    +0.000 A 
ATOM     11  C   UNL     1       4.976   5.669  16.398  0.00  0.00    +0.000 A 
ATOM     12  C   UNL     1       5.795   5.492  15.154  0.00  0.00    +0.000 C 
ATOM     13  C   UNL     1       5.063   4.729  17.431  0.00  0.00    +0.000 A 
ATOM     14  C   UNL     1       4.311   4.871  18.609  0.00  0.00    +0.000 A 
ATOM     15  C   UNL     1       4.442   3.832  19.689  0.00  0.00    +0.000 C 
ATOM     16  C   UNL     1       3.455   5.983  18.756  0.00  0.00    +0.000 A 
ATOM     17  C   UNL     1       2.671   6.191  20.038  0.00  0.00    +0.000 C 
ATOM     18  N   UNL     1       1.656   7.251  19.980  0.00  0.00    +0.000 NA
ATOM     19  C   UNL     1       1.131   7.538  21.317  0.00  0.00    +0.000 C 
ATOM     20  C   UNL     1      -0.125   8.396  21.175  0.00  0.00    +0.000 C 
ENDROOT
BRANCH   1  22
ATOM     21  C   UNL     1      -2.741  12.683  20.120  0.00  0.00    +0.000 C 
ATOM     22  O   UNL     1      -1.418  12.934  19.667  0.00  0.00    +0.000 OA
ENDBRANCH   1  22
BRANCH   6  23
ATOM     23  O   UNL     1       0.762  13.067  18.098  0.00  0.00    +0.000 OA
ATOM     24  H   UNL     1       0.545  13.837  18.644  0.00  0.00    +0.000 HD
ENDBRANCH   6  23
TORSDOF 2
ENDMDL
MODEL 6
REMARK VINA RESULT:      -6.6      1.218      1.696
REMARK  Name = 
REMARK  5 active torsions:
REMARK  status: ('A' for Active; 'I' for Inactive)
REMARK    1  A    between atoms: C_1  and  O_2
REMARK    2  A    between atoms: O_2  and  C_3
REMARK    3  A    between atoms: C_8  and  O_9
REMARK    4  A    between atoms: C_14  and  C_15
REMARK    5  A    between atoms: C_17  and  C_18
REMARK                            x       y       z     vdW  Elec       q    Type
REMARK                         _______ _______ _______ _____ _____    ______ ____
ROOT
ATOM      1  C   UNL     1       2.558   5.108  19.212  0.00  0.00    +0.000 A 
ATOM      2  C   UNL     1       2.575   6.103  18.235  0.00  0.00    +0.000 A 
ATOM      3  C   UNL     1       2.217   7.426  18.548  0.00  0.00    +0.000 A 
ATOM      4  C   UNL     1       1.780   7.760  19.844  0.00  0.00    +0.000 A 
ATOM      5  C   UNL     1       1.803   6.761  20.834  0.00  0.00    +0.000 A 
ATOM      6  C   UNL     1       2.171   5.450  20.511  0.00  0.00    +0.000 A 
ATOM      7  C   UNL     1       1.346   9.194  20.173  0.00  0.00    +0.000 C 
ATOM      8  C   UNL     1       0.011   9.217  20.951  0.00  0.00    +0.000 C 
ATOM      9  C   UNL     1      -0.446  10.623  21.258  0.00  0.00    +0.000 A 
ATOM     10  C   UNL     1      -1.323  10.849  22.329  0.00  0.00    +0.000 A 
ATOM     11  C   UNL     1      -1.759  12.140  22.628  0.00  0.00    +0.000 A 
ATOM     12  C   UNL     1      -2.676  12.395  23.788  0.00  0.00    +0.000 C 
ATOM     13  C   UNL     1      -1.328  13.207  21.832  0.00  0.00    +0.000 A 
ATOM     14  C   UNL     1      -0.466  13.000  20.743  0.00  0.00    +0.000 A 
ATOM     15  C   UNL     1      -0.031  14.182  19.919  0.00  0.00    +0.000 C 
ATOM     16  C   UNL     1      -0.023  11.693  20.447  0.00  0.00    +0.000 A 
ATOM     17  C   UNL     1       0.949  11.445  19.309  0.00  0.00    +0.000 C 
ATOM     18  N   UNL     1       1.154  10.031  18.965  0.00  0.00    +0.000 NA
ATOM     19  C   UNL     1       2.277   9.883  18.036  0.00  0.00    +0.000 C 
ATOM     20  C   UNL     1       2.253   8.468  17.461  0.00  0.00    +0.000 C 
ENDROOT
BRANCH   1  22
ATOM     21  C   UNL     1       2.007   3.113  18.061  0.00  0.00    +0.000 C 
ATOM     22  O   UNL     1       2.856   3.791  18.977  0.00  0.00    +0.000 OA
ENDBRANCH   1  22
BRANCH   6  23
ATOM     23  O   UNL     1       2.166   4.482  21.482  0.00  0.00    +0.000 OA
ATOM     24  H   UNL     1       1.476   4.689  22.131  0.00  0.00    +0.000 HD
ENDBRANCH   6  23
TORSDOF 2
ENDMDL
MODEL 7
REMARK VINA RESULT:      -6.6      2.732      7.142
REMARK  Name = 
REMARK  5 active torsions:
REMARK  status: ('A' for Active; 'I' for Inactive)
REMARK    1  A    between atoms: C_1  and  O_2
REMARK    2  A    between atoms: O_2  and  C_3
REMARK    3  A    between atoms: C_8  and  O_9
REMARK    4  A    between atoms: C_14  and  C_15
REMARK    5  A    between atoms: C_17  and  C_18
REMARK                            x       y       z     vdW  Elec       q    Type
REMARK                         _______ _______ _______ _____ _____    ______ ____
ROOT
ATOM      1  C   UNL     1      -0.178  10.926  21.917  0.00  0.00    +0.000 A 
ATOM      2  C   UNL     1       0.557  11.265  20.781  0.00  0.00    +0.000 A 
ATOM      3  C   UNL     1       1.132  10.269  19.972  0.00  0.00    +0.000 A 
ATOM      4  C   UNL     1       1.022   8.910  20.326  0.00  0.00    +0.000 A 
ATOM      5  C   UNL     1       0.247   8.574  21.450  0.00  0.00    +0.000 A 
ATOM      6  C   UNL     1      -0.328   9.575  22.240  0.00  0.00    +0.000 A 
ATOM      7  C   UNL     1       1.689   7.827  19.467  0.00  0.00    +0.000 C 
ATOM      8  C   UNL     1       2.466   6.814  20.338  0.00  0.00    +0.000 C 
ATOM      9  C   UNL     1       3.153   5.757  19.507  0.00  0.00    +0.000 A 
ATOM     10  C   UNL     1       3.478   4.522  20.086  0.00  0.00    +0.000 A 
ATOM     11  C   UNL     1       4.115   3.532  19.336  0.00  0.00    +0.000 A 
ATOM     12  C   UNL     1       4.444   2.199  19.940  0.00  0.00    +0.000 C 
ATOM     13  C   UNL     1       4.445   3.795  18.002  0.00  0.00    +0.000 A 
ATOM     14  C   UNL     1       4.146   5.032  17.408  0.00  0.00    +0.000 A 
ATOM     15  C   UNL     1       4.521   5.262  15.970  0.00  0.00    +0.000 C 
ATOM     16  C   UNL     1       3.497   6.028  18.169  0.00  0.00    +0.000 A 
ATOM     17  C   UNL     1       3.114   7.354  17.540  0.00  0.00    +0.000 C 
ATOM     18  N   UNL     1       2.653   8.379  18.486  0.00  0.00    +0.000 NA
ATOM     19  C   UNL     1       2.082   9.523  17.771  0.00  0.00    +0.000 C 
ATOM     20  C   UNL     1       1.916  10.681  18.754  0.00  0.00    +0.000 C 
ENDROOT
BRANCH   1  22
ATOM     21  C   UNL     1      -0.730  13.191  22.337  0.00  0.00    +0.000 C 
ATOM     22  O   UNL     1      -0.736  11.838  22.774  0.00  0.00    +0.000 OA
ENDBRANCH   1  22
BRANCH   6  23
ATOM     23  O   UNL     1      -1.063   9.231  23.347  0.00  0.00    +0.000 OA
ATOM     24  H   UNL     1      -1.908   8.855  23.060  0.00  0.00    +0.000 HD
ENDBRANCH   6  23
TORSDOF 2
ENDMDL
MODEL 8
REMARK VINA RESULT:      -6.5      1.805      3.151
REMARK  Name = 
REMARK  5 active torsions:
REMARK  status: ('A' for Active; 'I' for Inactive)
REMARK    1  A    between atoms: C_1  and  O_2
REMARK    2  A    between atoms: O_2  and  C_3
REMARK    3  A    between atoms: C_8  and  O_9
REMARK    4  A    between atoms: C_14  and  C_15
REMARK    5  A    between atoms: C_17  and  C_18
REMARK                            x       y       z     vdW  Elec       q    Type
REMARK                         _______ _______ _______ _____ _____    ______ ____
ROOT
ATOM      1  C   UNL     1       2.424   6.663  19.068  0.00  0.00    +0.000 A 
ATOM      2  C   UNL     1       2.372   7.791  18.251  0.00  0.00    +0.000 A 
ATOM      3  C   UNL     1       1.876   9.012  18.741  0.00  0.00    +0.000 A 
ATOM      4  C   UNL     1       1.370   9.104  20.051  0.00  0.00    +0.000 A 
ATOM      5  C   UNL     1       1.462   7.972  20.882  0.00  0.00    +0.000 A 
ATOM      6  C   UNL     1       1.966   6.766  20.385  0.00  0.00    +0.000 A 
ATOM      7  C   UNL     1       0.786  10.425  20.569  0.00  0.00    +0.000 C 
ATOM      8  C   UNL     1      -0.567  10.205  21.282  0.00  0.00    +0.000 C 
ATOM      9  C   UNL     1      -1.170  11.499  21.774  0.00  0.00    +0.000 A 
ATOM     10  C   UNL     1      -2.095  11.478  22.826  0.00  0.00    +0.000 A 
ATOM     11  C   UNL     1      -2.666  12.662  23.294  0.00  0.00    +0.000 A 
ATOM     12  C   UNL     1      -3.638  12.652  24.437  0.00  0.00    +0.000 C 
ATOM     13  C   UNL     1      -2.318  13.873  22.684  0.00  0.00    +0.000 A 
ATOM     14  C   UNL     1      -1.408  13.914  21.616  0.00  0.00    +0.000 A 
ATOM     15  C   UNL     1      -1.068  15.243  20.996  0.00  0.00    +0.000 C 
ATOM     16  C   UNL     1      -0.830  12.715  21.150  0.00  0.00    +0.000 A 
ATOM     17  C   UNL     1       0.195  12.734  20.032  0.00  0.00    +0.000 C 
ATOM     18  N   UNL     1       0.549  11.414  19.491  0.00  0.00    +0.000 NA
ATOM     19  C   UNL     1       1.708  11.513  18.601  0.00  0.00    +0.000 C 
ATOM     20  C   UNL     1       1.841  10.206  17.823  0.00  0.00    +0.000 C 
ENDROOT
BRANCH   1  22
ATOM     21  C   UNL     1       1.948   4.684  17.856  0.00  0.00    +0.000 C 
ATOM     22  O   UNL     1       2.857   5.430  18.654  0.00  0.00    +0.000 OA
ENDBRANCH   1  22
BRANCH   6  23
ATOM     23  O   UNL     1       2.028   5.665  21.201  0.00  0.00    +0.000 OA
ATOM     24  H   UNL     1       2.736   5.793  21.850  0.00  0.00    +0.000 HD
ENDBRANCH   6  23
TORSDOF 2
ENDMDL
MODEL 9
REMARK VINA RESULT:      -6.4      3.896      8.115
REMARK  Name = 
REMARK  5 active torsions:
REMARK  status: ('A' for Active; 'I' for Inactive)
REMARK    1  A    between atoms: C_1  and  O_2
REMARK    2  A    between atoms: O_2  and  C_3
REMARK    3  A    between atoms: C_8  and  O_9
REMARK    4  A    between atoms: C_14  and  C_15
REMARK    5  A    between atoms: C_17  and  C_18
REMARK                            x       y       z     vdW  Elec       q    Type
REMARK                         _______ _______ _______ _____ _____    ______ ____
ROOT
ATOM      1  C   UNL     1       0.523  13.862  18.833  0.00  0.00    +0.000 A 
ATOM      2  C   UNL     1      -0.208  13.021  19.672  0.00  0.00    +0.000 A 
ATOM      3  C   UNL     1       0.228  11.710  19.934  0.00  0.00    +0.000 A 
ATOM      4  C   UNL     1       1.384  11.203  19.310  0.00  0.00    +0.000 A 
ATOM      5  C   UNL     1       2.137  12.069  18.497  0.00  0.00    +0.000 A 
ATOM      6  C   UNL     1       1.697  13.374  18.252  0.00  0.00    +0.000 A 
ATOM      7  C   UNL     1       1.833   9.757  19.561  0.00  0.00    +0.000 C 
ATOM      8  C   UNL     1       2.187   9.037  18.240  0.00  0.00    +0.000 C 
ATOM      9  C   UNL     1       2.604   7.604  18.466  0.00  0.00    +0.000 A 
ATOM     10  C   UNL     1       3.403   6.955  17.514  0.00  0.00    +0.000 A 
ATOM     11  C   UNL     1       3.797   5.630  17.702  0.00  0.00    +0.000 A 
ATOM     12  C   UNL     1       4.673   4.936  16.701  0.00  0.00    +0.000 C 
ATOM     13  C   UNL     1       3.369   4.948  18.847  0.00  0.00    +0.000 A 
ATOM     14  C   UNL     1       2.553   5.573  19.803  0.00  0.00    +0.000 A 
ATOM     15  C   UNL     1       2.120   4.794  21.016  0.00  0.00    +0.000 C 
ATOM     16  C   UNL     1       2.160   6.915  19.610  0.00  0.00    +0.000 A 
ATOM     17  C   UNL     1       1.322   7.632  20.652  0.00  0.00    +0.000 C 
ATOM     18  N   UNL     1       0.797   8.939  20.233  0.00  0.00    +0.000 NA
ATOM     19  C   UNL     1       0.217   9.653  21.373  0.00  0.00    +0.000 C 
ATOM     20  C   UNL     1      -0.591  10.837  20.849  0.00  0.00    +0.000 C 
ENDROOT
BRANCH   1  22
ATOM     21  C   UNL     1      -0.517  15.877  19.517  0.00  0.00    +0.000 C 
ATOM     22  O   UNL     1       0.144  15.136  18.500  0.00  0.00    +0.000 OA
ENDBRANCH   1  22
BRANCH   6  23
ATOM     23  O   UNL     1       2.430  14.199  17.438  0.00  0.00    +0.000 OA
ATOM     24  H   UNL     1       3.079  13.668  16.952  0.00  0.00    +0.000 HD
ENDBRANCH   6  23
TORSDOF 2
ENDMDL
