MODEL 1
REMARK VINA RESULT:      -6.6      0.000      0.000
REMARK  Name = 
REMARK  8 active torsions:
REMARK  status: ('A' for Active; 'I' for Inactive)
REMARK    1  A    between atoms: C_1  and  C_2
REMARK    2  A    between atoms: C_2  and  C_3
REMARK    3  A    between atoms: N_5  and  C_6
REMARK    4  A    between atoms: C_6  and  C_7
REMARK    5  A    between atoms: C_7  and  N_8
REMARK    6  A    between atoms: N_11  and  C_12
REMARK    7  A    between atoms: C_12  and  C_13
REMARK    8  A    between atoms: C_27  and  C_28
REMARK                            x       y       z     vdW  Elec       q    Type
REMARK                         _______ _______ _______ _____ _____    ______ ____
ROOT
ATOM      1  C   UNL     1       0.701  13.103  18.669  0.00  0.00    +0.000 C 
ENDROOT
BRANCH   1   4
ATOM      2  C   UNL     1      -1.255  11.530  18.264  0.00  0.00    +0.000 C 
ATOM      3  O   UNL     1      -2.093  12.419  18.103  0.00  0.00    +0.000 OA
ATOM      4  N   UNL     1       0.089  11.770  18.547  0.00  0.00    +0.000 N 
ATOM      5  C   UNL     1       0.950  10.678  18.784  0.00  0.00    +0.000 A 
ATOM      6  C   UNL     1       1.747  10.192  17.753  0.00  0.00    +0.000 A 
ATOM      7  C   UNL     1       2.300   8.920  17.891  0.00  0.00    +0.000 A 
ATOM      8  C   UNL     1       2.061   8.188  19.052  0.00  0.00    +0.000 A 
ATOM      9  C   UNL     1       1.288   8.756  20.063  0.00  0.00    +0.000 A 
ATOM     10  N   UNL     1       0.745   9.995  19.927  0.00  0.00    +0.000 NA
BRANCH   9  11
ATOM     11  C   UNL     1       0.962   7.982  21.329  0.00  0.00    +0.000 C 
ATOM     12  F   UNL     1      -0.378   7.868  21.563  0.00  0.00    +0.000 F 
ATOM     13  F   UNL     1       1.441   6.705  21.311  0.00  0.00    +0.000 F 
ATOM     14  F   UNL     1       1.478   8.563  22.451  0.00  0.00    +0.000 F 
ENDBRANCH   9  11
BRANCH   2  16
ATOM     15  C   UNL     1      -2.817   9.804  17.202  0.00  0.00    +0.000 C 
ATOM     16  C   UNL     1      -1.673  10.054  18.163  0.00  0.00    +0.000 C 
ENDBRANCH   2  16
ENDBRANCH   1   4
BRANCH   1  17
ATOM     17  C   UNL     1       0.839  13.737  20.082  0.00  0.00    +0.000 C 
ATOM     18  C   UNL     1       2.176  13.388  20.745  0.00  0.00    +0.000 C 
ATOM     19  C   UNL     1       1.938  14.777  20.251  0.00  0.00    +0.000 C 
BRANCH  17  20
ATOM     20  N   UNL     1      -0.349  13.742  21.001  0.00  0.00    +0.000 NA
ATOM     21  C   UNL     1      -1.522  14.595  20.773  0.00  0.00    +0.000 C 
ATOM     22  C   UNL     1      -2.912  13.901  20.851  0.00  0.00    +0.000 C 
ATOM     23  N   UNL     1      -3.088  12.852  21.876  0.00  0.00    +0.000 NA
ATOM     24  C   UNL     1      -1.914  11.963  21.816  0.00  0.00    +0.000 C 
ATOM     25  C   UNL     1      -0.563  12.686  21.979  0.00  0.00    +0.000 C 
BRANCH  23  26
ATOM     26  C   UNL     1      -3.284  13.392  23.230  0.00  0.00    +0.000 C 
BRANCH  26  27
ATOM     27  C   UNL     1      -4.722  13.773  23.526  0.00  0.00    +0.000 A 
ATOM     28  C   UNL     1      -5.681  12.788  23.816  0.00  0.00    +0.000 A 
ATOM     29  C   UNL     1      -7.001  13.146  24.104  0.00  0.00    +0.000 A 
ATOM     30  C   UNL     1      -7.373  14.488  24.091  0.00  0.00    +0.000 A 
ATOM     31  C   UNL     1      -6.430  15.475  23.814  0.00  0.00    +0.000 A 
ATOM     32  C   UNL     1      -5.110  15.121  23.528  0.00  0.00    +0.000 A 
ENDBRANCH  26  27
ENDBRANCH  23  26
ENDBRANCH  17  20
ENDBRANCH   1  17
TORSDOF 7
ENDMDL
MODEL 2
REMARK VINA RESULT:      -6.6      0.523      1.210
REMARK  Name = 
REMARK  8 active torsions:
REMARK  status: ('A' for Active; 'I' for Inactive)
REMARK    1  A    between atoms: C_1  and  C_2
REMARK    2  A    between atoms: C_2  and  C_3
REMARK    3  A    between atoms: N_5  and  C_6
REMARK    4  A    between atoms: C_6  and  C_7
REMARK    5  A    between atoms: C_7  and  N_8
REMARK    6  A    between atoms: N_11  and  C_12
REMARK    7  A    between atoms: C_12  and  C_13
REMARK    8  A    between atoms: C_27  and  C_28
REMARK                            x       y       z     vdW  Elec       q    Type
REMARK                         _______ _______ _______ _____ _____    ______ ____
ROOT
ATOM      1  C   UNL     1       0.011  13.290  18.781  0.00  0.00    +0.000 C 
ENDROOT
BRANCH   1   4
ATOM      2  C   UNL     1      -1.749  11.520  18.298  0.00  0.00    +0.000 C 
ATOM      3  O   UNL     1      -2.678  12.314  18.139  0.00  0.00    +0.000 OA
ATOM      4  N   UNL     1      -0.445  11.901  18.616  0.00  0.00    +0.000 N 
ATOM      5  C   UNL     1       0.527  10.906  18.847  0.00  0.00    +0.000 A 
ATOM      6  C   UNL     1       1.393  10.537  17.823  0.00  0.00    +0.000 A 
ATOM      7  C   UNL     1       2.082   9.331  17.944  0.00  0.00    +0.000 A 
ATOM      8  C   UNL     1       1.904   8.548  19.084  0.00  0.00    +0.000 A 
ATOM      9  C   UNL     1       1.053   9.003  20.090  0.00  0.00    +0.000 A 
ATOM     10  N   UNL     1       0.378  10.177  19.970  0.00  0.00    +0.000 NA
BRANCH   9  11
ATOM     11  C   UNL     1       0.792   8.166  21.332  0.00  0.00    +0.000 C 
ATOM     12  F   UNL     1       1.389   8.664  22.454  0.00  0.00    +0.000 F 
ATOM     13  F   UNL     1      -0.534   8.064  21.635  0.00  0.00    +0.000 F 
ATOM     14  F   UNL     1       1.252   6.887  21.213  0.00  0.00    +0.000 F 
ENDBRANCH   9  11
BRANCH   2  16
ATOM     15  C   UNL     1      -2.693   9.621  16.868  0.00  0.00    +0.000 C 
ATOM     16  C   UNL     1      -1.998  10.009  18.156  0.00  0.00    +0.000 C 
ENDBRANCH   2  16
ENDBRANCH   1   4
BRANCH   1  17
ATOM     17  C   UNL     1       0.258  13.832  20.217  0.00  0.00    +0.000 C 
ATOM     18  C   UNL     1       1.671  13.517  20.720  0.00  0.00    +0.000 C 
ATOM     19  C   UNL     1       1.313  14.921  20.356  0.00  0.00    +0.000 C 
BRANCH  17  20
ATOM     20  N   UNL     1      -0.830  13.704  21.244  0.00  0.00    +0.000 NA
ATOM     21  C   UNL     1      -2.217  14.107  20.982  0.00  0.00    +0.000 C 
ATOM     22  C   UNL     1      -3.323  13.079  21.356  0.00  0.00    +0.000 C 
ATOM     23  N   UNL     1      -3.122  12.286  22.586  0.00  0.00    +0.000 NA
ATOM     24  C   UNL     1      -1.736  11.783  22.575  0.00  0.00    +0.000 C 
ATOM     25  C   UNL     1      -0.665  12.882  22.434  0.00  0.00    +0.000 C 
BRANCH  23  26
ATOM     26  C   UNL     1      -3.410  13.040  23.815  0.00  0.00    +0.000 C 
BRANCH  26  27
ATOM     27  C   UNL     1      -4.836  13.551  23.889  0.00  0.00    +0.000 A 
ATOM     28  C   UNL     1      -5.115  14.923  23.771  0.00  0.00    +0.000 A 
ATOM     29  C   UNL     1      -6.432  15.387  23.823  0.00  0.00    +0.000 A 
ATOM     30  C   UNL     1      -7.477  14.485  24.006  0.00  0.00    +0.000 A 
ATOM     31  C   UNL     1      -7.216  13.122  24.116  0.00  0.00    +0.000 A 
ATOM     32  C   UNL     1      -5.901  12.654  24.062  0.00  0.00    +0.000 A 
ENDBRANCH  26  27
ENDBRANCH  23  26
ENDBRANCH  17  20
ENDBRANCH   1  17
TORSDOF 7
ENDMDL
MODEL 3
REMARK VINA RESULT:      -6.5      4.090      9.572
REMARK  Name = 
REMARK  8 active torsions:
REMARK  status: ('A' for Active; 'I' for Inactive)
REMARK    1  A    between atoms: C_1  and  C_2
REMARK    2  A    between atoms: C_2  and  C_3
REMARK    3  A    between atoms: N_5  and  C_6
REMARK    4  A    between atoms: C_6  and  C_7
REMARK    5  A    between atoms: C_7  and  N_8
REMARK    6  A    between atoms: N_11  and  C_12
REMARK    7  A    between atoms: C_12  and  C_13
REMARK    8  A    between atoms: C_27  and  C_28
REMARK                            x       y       z     vdW  Elec       q    Type
REMARK                         _______ _______ _______ _____ _____    ______ ____
ROOT
ATOM      1  C   UNL     1       1.439   9.816  19.621  0.00  0.00    +0.000 C 
ENDROOT
BRANCH   1   4
ATOM      2  C   UNL     1      -0.728  10.499  18.481  0.00  0.00    +0.000 C 
ATOM      3  O   UNL     1      -0.794   9.512  17.746  0.00  0.00    +0.000 OA
ATOM      4  N   UNL     1       0.304  10.723  19.392  0.00  0.00    +0.000 N 
ATOM      5  C   UNL     1       0.319  11.922  20.136  0.00  0.00    +0.000 A 
ATOM      6  C   UNL     1      -0.184  11.935  21.432  0.00  0.00    +0.000 A 
ATOM      7  C   UNL     1      -0.496  13.166  22.006  0.00  0.00    +0.000 A 
ATOM      8  C   UNL     1      -0.276  14.338  21.283  0.00  0.00    +0.000 A 
ATOM      9  C   UNL     1       0.273  14.251  20.005  0.00  0.00    +0.000 A 
ATOM     10  N   UNL     1       0.573  13.049  19.443  0.00  0.00    +0.000 NA
BRANCH   9  11
ATOM     11  C   UNL     1       0.490  15.495  19.159  0.00  0.00    +0.000 C 
ATOM     12  F   UNL     1       1.610  15.430  18.381  0.00  0.00    +0.000 F 
ATOM     13  F   UNL     1      -0.540  15.742  18.301  0.00  0.00    +0.000 F 
ATOM     14  F   UNL     1       0.636  16.624  19.910  0.00  0.00    +0.000 F 
ENDBRANCH   9  11
BRANCH   2  16
ATOM     15  C   UNL     1      -3.197  11.034  18.080  0.00  0.00    +0.000 C 
ATOM     16  C   UNL     1      -1.824  11.576  18.421  0.00  0.00    +0.000 C 
ENDBRANCH   2  16
ENDBRANCH   1   4
BRANCH   1  17
ATOM     17  C   UNL     1       1.221   8.549  20.496  0.00  0.00    +0.000 C 
ATOM     18  C   UNL     1       1.099   8.889  21.986  0.00  0.00    +0.000 C 
ATOM     19  C   UNL     1      -0.111   8.453  21.226  0.00  0.00    +0.000 C 
BRANCH  17  20
ATOM     20  N   UNL     1       2.000   7.303  20.186  0.00  0.00    +0.000 NA
ATOM     21  C   UNL     1       1.630   5.987  20.720  0.00  0.00    +0.000 C 
ATOM     22  C   UNL     1       1.559   4.816  19.697  0.00  0.00    +0.000 C 
ATOM     23  N   UNL     1       2.571   4.796  18.621  0.00  0.00    +0.000 NA
ATOM     24  C   UNL     1       2.655   6.155  18.056  0.00  0.00    +0.000 C 
ATOM     25  C   UNL     1       2.961   7.253  19.094  0.00  0.00    +0.000 C 
BRANCH  23  26
ATOM     26  C   UNL     1       3.887   4.320  19.071  0.00  0.00    +0.000 C 
BRANCH  26  27
ATOM     27  C   UNL     1       4.945   4.352  17.984  0.00  0.00    +0.000 A 
ATOM     28  C   UNL     1       4.663   3.876  16.692  0.00  0.00    +0.000 A 
ATOM     29  C   UNL     1       5.636   3.923  15.690  0.00  0.00    +0.000 A 
ATOM     30  C   UNL     1       6.899   4.434  15.976  0.00  0.00    +0.000 A 
ATOM     31  C   UNL     1       7.189   4.917  17.249  0.00  0.00    +0.000 A 
ATOM     32  C   UNL     1       6.219   4.873  18.252  0.00  0.00    +0.000 A 
ENDBRANCH  26  27
ENDBRANCH  23  26
ENDBRANCH  17  20
ENDBRANCH   1  17
TORSDOF 7
ENDMDL
MODEL 4
REMARK VINA RESULT:      -6.4      4.828      7.609
REMARK  Name = 
REMARK  8 active torsions:
REMARK  status: ('A' for Active; 'I' for Inactive)
REMARK    1  A    between atoms: C_1  and  C_2
REMARK    2  A    between atoms: C_2  and  C_3
REMARK    3  A    between atoms: N_5  and  C_6
REMARK    4  A    between atoms: C_6  and  C_7
REMARK    5  A    between atoms: C_7  and  N_8
REMARK    6  A    between atoms: N_11  and  C_12
REMARK    7  A    between atoms: C_12  and  C_13
REMARK    8  A    between atoms: C_27  and  C_28
REMARK                            x       y       z     vdW  Elec       q    Type
REMARK                         _______ _______ _______ _____ _____    ______ ____
ROOT
ATOM      1  C   UNL     1       2.173   5.439  18.145  0.00  0.00    +0.000 C 
ENDROOT
BRANCH   1   4
ATOM      2  C   UNL     1       3.644   3.668  17.066  0.00  0.00    +0.000 C 
ATOM      3  O   UNL     1       2.794   2.777  17.085  0.00  0.00    +0.000 OA
ATOM      4  N   UNL     1       3.434   4.956  17.560  0.00  0.00    +0.000 N 
ATOM      5  C   UNL     1       4.499   5.880  17.554  0.00  0.00    +0.000 A 
ATOM      6  C   UNL     1       4.602   6.807  16.523  0.00  0.00    +0.000 A 
ATOM      7  C   UNL     1       5.824   7.450  16.334  0.00  0.00    +0.000 A 
ATOM      8  C   UNL     1       6.890   7.167  17.187  0.00  0.00    +0.000 A 
ATOM      9  C   UNL     1       6.701   6.259  18.226  0.00  0.00    +0.000 A 
ATOM     10  N   UNL     1       5.510   5.628  18.408  0.00  0.00    +0.000 NA
BRANCH   9  11
ATOM     11  C   UNL     1       7.843   5.884  19.156  0.00  0.00    +0.000 C 
ATOM     12  F   UNL     1       7.435   5.612  20.431  0.00  0.00    +0.000 F 
ATOM     13  F   UNL     1       8.523   4.776  18.744  0.00  0.00    +0.000 F 
ATOM     14  F   UNL     1       8.773   6.875  19.277  0.00  0.00    +0.000 F 
ENDBRANCH   9  11
BRANCH   2  16
ATOM     15  C   UNL     1       5.191   3.810  15.034  0.00  0.00    +0.000 C 
ATOM     16  C   UNL     1       5.038   3.387  16.480  0.00  0.00    +0.000 C 
ENDBRANCH   2  16
ENDBRANCH   1   4
BRANCH   1  17
ATOM     17  C   UNL     1       2.183   5.982  19.602  0.00  0.00    +0.000 C 
ATOM     18  C   UNL     1       1.405   5.075  20.563  0.00  0.00    +0.000 C 
ATOM     19  C   UNL     1       2.897   5.125  20.638  0.00  0.00    +0.000 C 
BRANCH  17  20
ATOM     20  N   UNL     1       2.012   7.456  19.834  0.00  0.00    +0.000 NA
ATOM     21  C   UNL     1       2.051   8.438  18.744  0.00  0.00    +0.000 C 
ATOM     22  C   UNL     1       0.894   9.477  18.701  0.00  0.00    +0.000 C 
ATOM     23  N   UNL     1       0.400   9.993  19.994  0.00  0.00    +0.000 NA
ATOM     24  C   UNL     1       0.215   8.843  20.897  0.00  0.00    +0.000 C 
ATOM     25  C   UNL     1       1.475   7.976  21.083  0.00  0.00    +0.000 C 
BRANCH  23  26
ATOM     26  C   UNL     1       1.284  11.006  20.589  0.00  0.00    +0.000 C 
BRANCH  26  27
ATOM     27  C   UNL     1       1.117  12.386  19.981  0.00  0.00    +0.000 A 
ATOM     28  C   UNL     1      -0.147  12.843  19.572  0.00  0.00    +0.000 A 
ATOM     29  C   UNL     1      -0.297  14.121  19.028  0.00  0.00    +0.000 A 
ATOM     30  C   UNL     1       0.815  14.945  18.877  0.00  0.00    +0.000 A 
ATOM     31  C   UNL     1       2.072  14.508  19.286  0.00  0.00    +0.000 A 
ATOM     32  C   UNL     1       2.227  13.232  19.832  0.00  0.00    +0.000 A 
ENDBRANCH  26  27
ENDBRANCH  23  26
ENDBRANCH  17  20
ENDBRANCH   1  17
TORSDOF 7
ENDMDL
MODEL 5
REMARK VINA RESULT:      -6.3      3.573      9.263
REMARK  Name = 
REMARK  8 active torsions:
REMARK  status: ('A' for Active; 'I' for Inactive)
REMARK    1  A    between atoms: C_1  and  C_2
REMARK    2  A    between atoms: C_2  and  C_3
REMARK    3  A    between atoms: N_5  and  C_6
REMARK    4  A    between atoms: C_6  and  C_7
REMARK    5  A    between atoms: C_7  and  N_8
REMARK    6  A    between atoms: N_11  and  C_12
REMARK    7  A    between atoms: C_12  and  C_13
REMARK    8  A    between atoms: C_27  and  C_28
REMARK                            x       y       z     vdW  Elec       q    Type
REMARK                         _______ _______ _______ _____ _____    ______ ____
ROOT
ATOM      1  C   UNL     1      -0.209  10.594  20.993  0.00  0.00    +0.000 C 
ENDROOT
BRANCH   1   4
ATOM      2  C   UNL     1       0.265  13.041  21.495  0.00  0.00    +0.000 C 
ATOM      3  O   UNL     1       1.492  12.937  21.455  0.00  0.00    +0.000 OA
ATOM      4  N   UNL     1      -0.613  11.976  21.298  0.00  0.00    +0.000 N 
ATOM      5  C   UNL     1      -2.000  12.190  21.437  0.00  0.00    +0.000 A 
ATOM      6  C   UNL     1      -2.779  12.419  20.308  0.00  0.00    +0.000 A 
ATOM      7  C   UNL     1      -4.043  12.980  20.481  0.00  0.00    +0.000 A 
ATOM      8  C   UNL     1      -4.496  13.273  21.767  0.00  0.00    +0.000 A 
ATOM      9  C   UNL     1      -3.678  12.976  22.855  0.00  0.00    +0.000 A 
ATOM     10  N   UNL     1      -2.443  12.432  22.686  0.00  0.00    +0.000 NA
BRANCH   9  11
ATOM     11  C   UNL     1      -4.107  13.316  24.273  0.00  0.00    +0.000 C 
ATOM     12  F   UNL     1      -4.383  12.216  25.033  0.00  0.00    +0.000 F 
ATOM     13  F   UNL     1      -3.159  14.011  24.964  0.00  0.00    +0.000 F 
ATOM     14  F   UNL     1      -5.238  14.078  24.314  0.00  0.00    +0.000 F 
ENDBRANCH   9  11
BRANCH   2  16
ATOM     15  C   UNL     1      -0.346  15.363  20.612  0.00  0.00    +0.000 C 
ATOM     16  C   UNL     1      -0.381  14.406  21.785  0.00  0.00    +0.000 C 
ENDBRANCH   2  16
ENDBRANCH   1   4
BRANCH   1  17
ATOM     17  C   UNL     1       0.313  10.264  19.566  0.00  0.00    +0.000 C 
ATOM     18  C   UNL     1      -0.820  10.201  18.535  0.00  0.00    +0.000 C 
ATOM     19  C   UNL     1       0.135  11.350  18.513  0.00  0.00    +0.000 C 
BRANCH  17  20
ATOM     20  N   UNL     1       1.386   9.226  19.402  0.00  0.00    +0.000 NA
ATOM     21  C   UNL     1       1.736   8.276  20.464  0.00  0.00    +0.000 C 
ATOM     22  C   UNL     1       1.825   6.777  20.056  0.00  0.00    +0.000 C 
ATOM     23  N   UNL     1       2.393   6.470  18.728  0.00  0.00    +0.000 NA
ATOM     24  C   UNL     1       1.768   7.379  17.751  0.00  0.00    +0.000 C 
ATOM     25  C   UNL     1       1.916   8.875  18.092  0.00  0.00    +0.000 C 
BRANCH  23  26
ATOM     26  C   UNL     1       3.860   6.566  18.688  0.00  0.00    +0.000 C 
BRANCH  26  27
ATOM     27  C   UNL     1       4.482   5.823  17.521  0.00  0.00    +0.000 A 
ATOM     28  C   UNL     1       4.440   4.420  17.457  0.00  0.00    +0.000 A 
ATOM     29  C   UNL     1       5.000   3.742  16.372  0.00  0.00    +0.000 A 
ATOM     30  C   UNL     1       5.616   4.460  15.350  0.00  0.00    +0.000 A 
ATOM     31  C   UNL     1       5.658   5.851  15.396  0.00  0.00    +0.000 A 
ATOM     32  C   UNL     1       5.097   6.532  16.478  0.00  0.00    +0.000 A 
ENDBRANCH  26  27
ENDBRANCH  23  26
ENDBRANCH  17  20
ENDBRANCH   1  17
TORSDOF 7
ENDMDL
MODEL 6
REMARK VINA RESULT:      -6.3      3.597      9.416
REMARK  Name = 
REMARK  8 active torsions:
REMARK  status: ('A' for Active; 'I' for Inactive)
REMARK    1  A    between atoms: C_1  and  C_2
REMARK    2  A    between atoms: C_2  and  C_3
REMARK    3  A    between atoms: N_5  and  C_6
REMARK    4  A    between atoms: C_6  and  C_7
REMARK    5  A    between atoms: C_7  and  N_8
REMARK    6  A    between atoms: N_11  and  C_12
REMARK    7  A    between atoms: C_12  and  C_13
REMARK    8  A    between atoms: C_27  and  C_28
REMARK                            x       y       z     vdW  Elec       q    Type
REMARK                         _______ _______ _______ _____ _____    ______ ____
ROOT
ATOM      1  C   UNL     1      -0.506  10.178  19.442  0.00  0.00    +0.000 C 
ENDROOT
BRANCH   1   4
ATOM      2  C   UNL     1       0.225  12.603  19.663  0.00  0.00    +0.000 C 
ATOM      3  O   UNL     1       1.379  12.417  19.272  0.00  0.00    +0.000 OA
ATOM      4  N   UNL     1      -0.728  11.591  19.784  0.00  0.00    +0.000 N 
ATOM      5  C   UNL     1      -1.999  11.901  20.311  0.00  0.00    +0.000 A 
ATOM      6  C   UNL     1      -3.062  12.145  19.448  0.00  0.00    +0.000 A 
ATOM      7  C   UNL     1      -4.187  12.793  19.955  0.00  0.00    +0.000 A 
ATOM      8  C   UNL     1      -4.225  13.155  21.301  0.00  0.00    +0.000 A 
ATOM      9  C   UNL     1      -3.140  12.839  22.116  0.00  0.00    +0.000 A 
ATOM     10  N   UNL     1      -2.041  12.211  21.621  0.00  0.00    +0.000 NA
BRANCH   9  11
ATOM     11  C   UNL     1      -3.114  13.251  23.579  0.00  0.00    +0.000 C 
ATOM     12  F   UNL     1      -1.864  13.568  24.029  0.00  0.00    +0.000 F 
ATOM     13  F   UNL     1      -3.886  14.345  23.838  0.00  0.00    +0.000 F 
ATOM     14  F   UNL     1      -3.561  12.268  24.412  0.00  0.00    +0.000 F 
ENDBRANCH   9  11
BRANCH   2  16
ATOM     15  C   UNL     1      -0.213  15.011  18.920  0.00  0.00    +0.000 C 
ATOM     16  C   UNL     1      -0.232  14.015  20.062  0.00  0.00    +0.000 C 
ENDBRANCH   2  16
ENDBRANCH   1   4
BRANCH   1  17
ATOM     17  C   UNL     1       0.403   9.317  20.364  0.00  0.00    +0.000 C 
ATOM     18  C   UNL     1       0.611   9.964  21.738  0.00  0.00    +0.000 C 
ATOM     19  C   UNL     1      -0.249   8.748  21.616  0.00  0.00    +0.000 C 
BRANCH  17  20
ATOM     20  N   UNL     1       1.617   8.653  19.780  0.00  0.00    +0.000 NA
ATOM     21  C   UNL     1       2.086   7.334  20.222  0.00  0.00    +0.000 C 
ATOM     22  C   UNL     1       2.398   6.296  19.106  0.00  0.00    +0.000 C 
ATOM     23  N   UNL     1       3.024   6.802  17.867  0.00  0.00    +0.000 NA
ATOM     24  C   UNL     1       2.288   8.010  17.452  0.00  0.00    +0.000 C 
ATOM     25  C   UNL     1       2.212   9.107  18.532  0.00  0.00    +0.000 C 
BRANCH  23  26
ATOM     26  C   UNL     1       4.462   7.074  18.014  0.00  0.00    +0.000 C 
BRANCH  26  27
ATOM     27  C   UNL     1       5.337   6.161  17.174  0.00  0.00    +0.000 A 
ATOM     28  C   UNL     1       5.131   6.043  15.789  0.00  0.00    +0.000 A 
ATOM     29  C   UNL     1       5.951   5.214  15.019  0.00  0.00    +0.000 A 
ATOM     30  C   UNL     1       6.971   4.489  15.629  0.00  0.00    +0.000 A 
ATOM     31  C   UNL     1       7.192   4.604  16.999  0.00  0.00    +0.000 A 
ATOM     32  C   UNL     1       6.376   5.433  17.772  0.00  0.00    +0.000 A 
ENDBRANCH  26  27
ENDBRANCH  23  26
ENDBRANCH  17  20
ENDBRANCH   1  17
TORSDOF 7
ENDMDL
MODEL 7
REMARK VINA RESULT:      -6.3      4.040      9.573
REMARK  Name = 
REMARK  8 active torsions:
REMARK  status: ('A' for Active; 'I' for Inactive)
REMARK    1  A    between atoms: C_1  and  C_2
REMARK    2  A    between atoms: C_2  and  C_3
REMARK    3  A    between atoms: N_5  and  C_6
REMARK    4  A    between atoms: C_6  and  C_7
REMARK    5  A    between atoms: C_7  and  N_8
REMARK    6  A    between atoms: N_11  and  C_12
REMARK    7  A    between atoms: C_12  and  C_13
REMARK    8  A    between atoms: C_27  and  C_28
REMARK                            x       y       z     vdW  Elec       q    Type
REMARK                         _______ _______ _______ _____ _____    ______ ____
ROOT
ATOM      1  C   UNL     1       1.293   9.958  19.905  0.00  0.00    +0.000 C 
ENDROOT
BRANCH   1   4
ATOM      2  C   UNL     1      -0.800  10.549  18.588  0.00  0.00    +0.000 C 
ATOM      3  O   UNL     1      -0.719   9.604  17.802  0.00  0.00    +0.000 OA
ATOM      4  N   UNL     1       0.120  10.795  19.607  0.00  0.00    +0.000 N 
ATOM      5  C   UNL     1      -0.028  11.947  20.408  0.00  0.00    +0.000 A 
ATOM      6  C   UNL     1      -0.653  11.851  21.646  0.00  0.00    +0.000 A 
ATOM      7  C   UNL     1      -1.112  13.023  22.245  0.00  0.00    +0.000 A 
ATOM      8  C   UNL     1      -0.914  14.246  21.607  0.00  0.00    +0.000 A 
ATOM      9  C   UNL     1      -0.240  14.270  20.387  0.00  0.00    +0.000 A 
ATOM     10  N   UNL     1       0.204  13.127  19.800  0.00  0.00    +0.000 NA
BRANCH   9  11
ATOM     11  C   UNL     1      -0.037  15.573  19.630  0.00  0.00    +0.000 C 
ATOM     12  F   UNL     1       0.678  16.500  20.332  0.00  0.00    +0.000 F 
ATOM     13  F   UNL     1       0.633  15.406  18.454  0.00  0.00    +0.000 F 
ATOM     14  F   UNL     1      -1.213  16.186  19.312  0.00  0.00    +0.000 F 
ENDBRANCH   9  11
BRANCH   2  16
ATOM     15  C   UNL     1      -2.875  11.290  17.289  0.00  0.00    +0.000 C 
ATOM     16  C   UNL     1      -1.964  11.547  18.471  0.00  0.00    +0.000 C 
ENDBRANCH   2  16
ENDBRANCH   1   4
BRANCH   1  17
ATOM     17  C   UNL     1       1.086   8.619  20.665  0.00  0.00    +0.000 C 
ATOM     18  C   UNL     1       0.902   8.832  22.173  0.00  0.00    +0.000 C 
ATOM     19  C   UNL     1      -0.267   8.425  21.336  0.00  0.00    +0.000 C 
BRANCH  17  20
ATOM     20  N   UNL     1       1.915   7.426  20.286  0.00  0.00    +0.000 NA
ATOM     21  C   UNL     1       1.601   6.067  20.744  0.00  0.00    +0.000 C 
ATOM     22  C   UNL     1       1.576   4.954  19.656  0.00  0.00    +0.000 C 
ATOM     23  N   UNL     1       2.584   5.037  18.581  0.00  0.00    +0.000 NA
ATOM     24  C   UNL     1       2.611   6.428  18.094  0.00  0.00    +0.000 C 
ATOM     25  C   UNL     1       2.874   7.477  19.192  0.00  0.00    +0.000 C 
BRANCH  23  26
ATOM     26  C   UNL     1       3.920   4.590  19.003  0.00  0.00    +0.000 C 
BRANCH  26  27
ATOM     27  C   UNL     1       4.925   4.536  17.868  0.00  0.00    +0.000 A 
ATOM     28  C   UNL     1       6.251   4.961  18.060  0.00  0.00    +0.000 A 
ATOM     29  C   UNL     1       7.176   4.892  17.015  0.00  0.00    +0.000 A 
ATOM     30  C   UNL     1       6.780   4.412  15.770  0.00  0.00    +0.000 A 
ATOM     31  C   UNL     1       5.472   3.979  15.568  0.00  0.00    +0.000 A 
ATOM     32  C   UNL     1       4.545   4.044  16.610  0.00  0.00    +0.000 A 
ENDBRANCH  26  27
ENDBRANCH  23  26
ENDBRANCH  17  20
ENDBRANCH   1  17
TORSDOF 7
ENDMDL
MODEL 8
REMARK VINA RESULT:      -6.3      3.715      9.396
REMARK  Name = 
REMARK  8 active torsions:
REMARK  status: ('A' for Active; 'I' for Inactive)
REMARK    1  A    between atoms: C_1  and  C_2
REMARK    2  A    between atoms: C_2  and  C_3
REMARK    3  A    between atoms: N_5  and  C_6
REMARK    4  A    between atoms: C_6  and  C_7
REMARK    5  A    between atoms: C_7  and  N_8
REMARK    6  A    between atoms: N_11  and  C_12
REMARK    7  A    between atoms: C_12  and  C_13
REMARK    8  A    between atoms: C_27  and  C_28
REMARK                            x       y       z     vdW  Elec       q    Type
REMARK                         _______ _______ _______ _____ _____    ______ ____
ROOT
ATOM      1  C   UNL     1       0.247  10.178  20.722  0.00  0.00    +0.000 C 
ENDROOT
BRANCH   1   4
ATOM      2  C   UNL     1       0.711  12.664  20.985  0.00  0.00    +0.000 C 
ATOM      3  O   UNL     1       1.938  12.555  21.017  0.00  0.00    +0.000 OA
ATOM      4  N   UNL     1      -0.163  11.584  20.859  0.00  0.00    +0.000 N 
ATOM      5  C   UNL     1      -1.554  11.814  20.906  0.00  0.00    +0.000 A 
ATOM      6  C   UNL     1      -2.276  11.922  19.723  0.00  0.00    +0.000 A 
ATOM      7  C   UNL     1      -3.543  12.500  19.773  0.00  0.00    +0.000 A 
ATOM      8  C   UNL     1      -4.056  12.928  20.997  0.00  0.00    +0.000 A 
ATOM      9  C   UNL     1      -3.294  12.747  22.150  0.00  0.00    +0.000 A 
ATOM     10  N   UNL     1      -2.056  12.187  22.100  0.00  0.00    +0.000 NA
BRANCH   9  11
ATOM     11  C   UNL     1      -3.789  13.236  23.501  0.00  0.00    +0.000 C 
ATOM     12  F   UNL     1      -4.924  13.991  23.419  0.00  0.00    +0.000 F 
ATOM     13  F   UNL     1      -4.086  12.219  24.359  0.00  0.00    +0.000 F 
ATOM     14  F   UNL     1      -2.877  14.020  24.145  0.00  0.00    +0.000 F 
ENDBRANCH   9  11
BRANCH   2  16
ATOM     15  C   UNL     1       0.423  14.798  22.365  0.00  0.00    +0.000 C 
ATOM     16  C   UNL     1       0.060  14.052  21.098  0.00  0.00    +0.000 C 
ENDBRANCH   2  16
ENDBRANCH   1   4
BRANCH   1  17
ATOM     17  C   UNL     1       0.925   9.720  19.400  0.00  0.00    +0.000 C 
ATOM     18  C   UNL     1      -0.052   9.717  18.219  0.00  0.00    +0.000 C 
ATOM     19  C   UNL     1       1.015  10.760  18.292  0.00  0.00    +0.000 C 
BRANCH  17  20
ATOM     20  N   UNL     1       1.892   8.571  19.433  0.00  0.00    +0.000 NA
ATOM     21  C   UNL     1       1.879   7.558  20.496  0.00  0.00    +0.000 C 
ATOM     22  C   UNL     1       1.906   6.071  20.039  0.00  0.00    +0.000 C 
ATOM     23  N   UNL     1       2.737   5.739  18.864  0.00  0.00    +0.000 NA
ATOM     24  C   UNL     1       2.460   6.740  17.819  0.00  0.00    +0.000 C 
ATOM     25  C   UNL     1       2.678   8.199  18.266  0.00  0.00    +0.000 C 
BRANCH  23  26
ATOM     26  C   UNL     1       4.173   5.668  19.172  0.00  0.00    +0.000 C 
BRANCH  26  27
ATOM     27  C   UNL     1       5.032   5.318  17.970  0.00  0.00    +0.000 A 
ATOM     28  C   UNL     1       4.769   4.166  17.210  0.00  0.00    +0.000 A 
ATOM     29  C   UNL     1       5.552   3.858  16.095  0.00  0.00    +0.000 A 
ATOM     30  C   UNL     1       6.610   4.692  15.740  0.00  0.00    +0.000 A 
ATOM     31  C   UNL     1       6.875   5.842  16.479  0.00  0.00    +0.000 A 
ATOM     32  C   UNL     1       6.094   6.154  17.593  0.00  0.00    +0.000 A 
ENDBRANCH  26  27
ENDBRANCH  23  26
ENDBRANCH  17  20
ENDBRANCH   1  17
TORSDOF 7
ENDMDL
MODEL 9
REMARK VINA RESULT:      -6.3      3.611      9.399
REMARK  Name = 
REMARK  8 active torsions:
REMARK  status: ('A' for Active; 'I' for Inactive)
REMARK    1  A    between atoms: C_1  and  C_2
REMARK    2  A    between atoms: C_2  and  C_3
REMARK    3  A    between atoms: N_5  and  C_6
REMARK    4  A    between atoms: C_6  and  C_7
REMARK    5  A    between atoms: C_7  and  N_8
REMARK    6  A    between atoms: N_11  and  C_12
REMARK    7  A    between atoms: C_12  and  C_13
REMARK    8  A    between atoms: C_27  and  C_28
REMARK                            x       y       z     vdW  Elec       q    Type
REMARK                         _______ _______ _______ _____ _____    ______ ____
ROOT
ATOM      1  C   UNL     1       0.253   9.747  19.209  0.00  0.00    +0.000 C 
ENDROOT
BRANCH   1   4
ATOM      2  C   UNL     1       0.942  12.193  19.300  0.00  0.00    +0.000 C 
ATOM      3  O   UNL     1       2.110  12.002  18.957  0.00  0.00    +0.000 OA
ATOM      4  N   UNL     1       0.000  11.176  19.454  0.00  0.00    +0.000 N 
ATOM      5  C   UNL     1      -1.292  11.497  19.921  0.00  0.00    +0.000 A 
ATOM      6  C   UNL     1      -2.330  11.669  19.012  0.00  0.00    +0.000 A 
ATOM      7  C   UNL     1      -3.480  12.330  19.442  0.00  0.00    +0.000 A 
ATOM      8  C   UNL     1      -3.566  12.775  20.760  0.00  0.00    +0.000 A 
ATOM      9  C   UNL     1      -2.503  12.528  21.627  0.00  0.00    +0.000 A 
ATOM     10  N   UNL     1      -1.380  11.888  21.207  0.00  0.00    +0.000 NA
BRANCH   9  11
ATOM     11  C   UNL     1      -2.530  13.031  23.061  0.00  0.00    +0.000 C 
ATOM     12  F   UNL     1      -3.208  12.205  23.911  0.00  0.00    +0.000 F 
ATOM     13  F   UNL     1      -1.285  13.170  23.600  0.00  0.00    +0.000 F 
ATOM     14  F   UNL     1      -3.132  14.249  23.182  0.00  0.00    +0.000 F 
ENDBRANCH   9  11
BRANCH   2  16
ATOM     15  C   UNL     1       1.421  14.702  19.162  0.00  0.00    +0.000 C 
ATOM     16  C   UNL     1       0.452  13.620  19.594  0.00  0.00    +0.000 C 
ENDBRANCH   2  16
ENDBRANCH   1   4
BRANCH   1  17
ATOM     17  C   UNL     1       0.791   8.870  20.375  0.00  0.00    +0.000 C 
ATOM     18  C   UNL     1       1.053   9.691  21.643  0.00  0.00    +0.000 C 
ATOM     19  C   UNL     1      -0.106   8.749  21.599  0.00  0.00    +0.000 C 
BRANCH  17  20
ATOM     20  N   UNL     1       1.809   7.806  20.080  0.00  0.00    +0.000 NA
ATOM     21  C   UNL     1       1.820   6.511  20.771  0.00  0.00    +0.000 C 
ATOM     22  C   UNL     1       1.926   5.245  19.872  0.00  0.00    +0.000 C 
ATOM     23  N   UNL     1       2.798   5.330  18.683  0.00  0.00    +0.000 NA
ATOM     24  C   UNL     1       2.497   6.598  17.995  0.00  0.00    +0.000 C 
ATOM     25  C   UNL     1       2.637   7.849  18.884  0.00  0.00    +0.000 C 
BRANCH  23  26
ATOM     26  C   UNL     1       4.229   5.220  19.004  0.00  0.00    +0.000 C 
BRANCH  26  27
ATOM     27  C   UNL     1       5.111   5.059  17.780  0.00  0.00    +0.000 A 
ATOM     28  C   UNL     1       6.172   5.948  17.538  0.00  0.00    +0.000 A 
ATOM     29  C   UNL     1       6.992   5.784  16.418  0.00  0.00    +0.000 A 
ATOM     30  C   UNL     1       6.749   4.742  15.527  0.00  0.00    +0.000 A 
ATOM     31  C   UNL     1       5.706   3.849  15.760  0.00  0.00    +0.000 A 
ATOM     32  C   UNL     1       4.886   4.007  16.879  0.00  0.00    +0.000 A 
ENDBRANCH  26  27
ENDBRANCH  23  26
ENDBRANCH  17  20
ENDBRANCH   1  17
TORSDOF 7
ENDMDL
