MODEL 1
REMARK VINA RESULT:      -7.7      0.000      0.000
REMARK  Name = 
REMARK  8 active torsions:
REMARK  status: ('A' for Active; 'I' for Inactive)
REMARK    1  A    between atoms: C_1  and  C_2
REMARK    2  A    between atoms: C_2  and  O_3
REMARK    3  A    between atoms: O_3  and  C_4
REMARK    4  A    between atoms: C_9  and  C_10
REMARK    5  A    between atoms: N_12  and  C_13
REMARK    6  A    between atoms: N_16  and  C_17
REMARK    7  A    between atoms: C_17  and  C_18
REMARK    8  A    between atoms: C_26  and  C_27
REMARK                            x       y       z     vdW  Elec       q    Type
REMARK                         _______ _______ _______ _____ _____    ______ ____
ROOT
ATOM      1  C   UNL     1       2.014   6.601  20.417  0.00  0.00    +0.000 C 
ATOM      2  O   UNL     1       1.266   5.723  20.831  0.00  0.00    +0.000 OA
ATOM      3  N   UNL     1       1.924   7.919  20.824  0.00  0.00    +0.000 N 
ATOM      4  H   UNL     1       2.525   8.566  20.326  0.00  0.00    +0.000 HD
ENDROOT
BRANCH   1  10
ATOM      5  C   UNL     1       6.484   5.575  16.474  0.00  0.00    +0.000 A 
ATOM      6  C   UNL     1       6.817   4.677  17.495  0.00  0.00    +0.000 A 
ATOM      7  C   UNL     1       6.041   4.562  18.659  0.00  0.00    +0.000 A 
ATOM      8  C   UNL     1       4.926   5.392  18.739  0.00  0.00    +0.000 A 
ATOM      9  O   UNL     1       4.042   5.447  19.770  0.00  0.00    +0.000 OA
ATOM     10  C   UNL     1       3.084   6.385  19.456  0.00  0.00    +0.000 A 
ATOM     11  C   UNL     1       3.375   6.943  18.213  0.00  0.00    +0.000 A 
ATOM     12  C   UNL     1       2.648   7.992  17.453  0.00  0.00    +0.000 C 
ATOM     13  C   UNL     1       4.559   6.292  17.758  0.00  0.00    +0.000 A 
ATOM     14  C   UNL     1       5.351   6.391  16.599  0.00  0.00    +0.000 A 
BRANCH   5  15
ATOM     15  O   UNL     1       7.330   5.582  15.392  0.00  0.00    +0.000 OA
BRANCH  15  17
ATOM     16  C   UNL     1       6.209   3.770  14.282  0.00  0.00    +0.000 C 
ATOM     17  C   UNL     1       6.751   5.179  14.149  0.00  0.00    +0.000 C 
ENDBRANCH  15  17
ENDBRANCH   5  15
ENDBRANCH   1  10
BRANCH   3  18
ATOM     18  C   UNL     1       0.914   8.441  21.740  0.00  0.00    +0.000 C 
ATOM     19  C   UNL     1      -0.491   8.355  21.146  0.00  0.00    +0.000 C 
ATOM     20  C   UNL     1      -0.688   9.351  20.003  0.00  0.00    +0.000 C 
ATOM     21  N   UNL     1      -0.410  10.736  20.419  0.00  0.00    +0.000 NA
ATOM     22  C   UNL     1       0.954  10.864  20.964  0.00  0.00    +0.000 C 
ATOM     23  C   UNL     1       1.219   9.893  22.119  0.00  0.00    +0.000 C 
BRANCH  21  24
ATOM     24  C   UNL     1      -0.572  11.673  19.286  0.00  0.00    +0.000 C 
BRANCH  24  25
ATOM     25  C   UNL     1      -1.942  11.651  18.637  0.00  0.00    +0.000 A 
ATOM     26  C   UNL     1      -2.106  11.209  17.316  0.00  0.00    +0.000 A 
ATOM     27  C   UNL     1      -3.376  11.161  16.735  0.00  0.00    +0.000 A 
ATOM     28  C   UNL     1      -4.495  11.547  17.470  0.00  0.00    +0.000 A 
ATOM     29  C   UNL     1      -4.347  11.994  18.781  0.00  0.00    +0.000 A 
ATOM     30  C   UNL     1      -3.078  12.047  19.362  0.00  0.00    +0.000 A 
ENDBRANCH  24  25
ENDBRANCH  21  24
ENDBRANCH   3  18
TORSDOF 6
ENDMDL
MODEL 2
REMARK VINA RESULT:      -7.6      0.509      1.067
REMARK  Name = 
REMARK  8 active torsions:
REMARK  status: ('A' for Active; 'I' for Inactive)
REMARK    1  A    between atoms: C_1  and  C_2
REMARK    2  A    between atoms: C_2  and  O_3
REMARK    3  A    between atoms: O_3  and  C_4
REMARK    4  A    between atoms: C_9  and  C_10
REMARK    5  A    between atoms: N_12  and  C_13
REMARK    6  A    between atoms: N_16  and  C_17
REMARK    7  A    between atoms: C_17  and  C_18
REMARK    8  A    between atoms: C_26  and  C_27
REMARK                            x       y       z     vdW  Elec       q    Type
REMARK                         _______ _______ _______ _____ _____    ______ ____
ROOT
ATOM      1  C   UNL     1       2.050   6.563  20.403  0.00  0.00    +0.000 C 
ATOM      2  O   UNL     1       1.471   5.654  20.988  0.00  0.00    +0.000 OA
ATOM      3  N   UNL     1       1.868   7.896  20.718  0.00  0.00    +0.000 N 
ATOM      4  H   UNL     1       2.318   8.552  20.089  0.00  0.00    +0.000 HD
ENDROOT
BRANCH   1  10
ATOM      5  C   UNL     1       5.994   5.625  15.913  0.00  0.00    +0.000 A 
ATOM      6  C   UNL     1       6.348   4.600  16.799  0.00  0.00    +0.000 A 
ATOM      7  C   UNL     1       5.687   4.421  18.024  0.00  0.00    +0.000 A 
ATOM      8  C   UNL     1       4.661   5.321  18.307  0.00  0.00    +0.000 A 
ATOM      9  O   UNL     1       3.894   5.332  19.428  0.00  0.00    +0.000 OA
ATOM     10  C   UNL     1       2.995   6.369  19.314  0.00  0.00    +0.000 A 
ATOM     11  C   UNL     1       3.206   7.032  18.108  0.00  0.00    +0.000 A 
ATOM     12  C   UNL     1       2.500   8.209  17.538  0.00  0.00    +0.000 C 
ATOM     13  C   UNL     1       4.277   6.345  17.464  0.00  0.00    +0.000 A 
ATOM     14  C   UNL     1       4.954   6.506  16.241  0.00  0.00    +0.000 A 
BRANCH   5  15
ATOM     15  O   UNL     1       6.723   5.683  14.752  0.00  0.00    +0.000 OA
BRANCH  15  17
ATOM     16  C   UNL     1       7.486   4.751  12.673  0.00  0.00    +0.000 C 
ATOM     17  C   UNL     1       6.704   4.501  13.947  0.00  0.00    +0.000 C 
ENDBRANCH  15  17
ENDBRANCH   5  15
ENDBRANCH   1  10
BRANCH   3  18
ATOM     18  C   UNL     1       0.942   8.395  21.730  0.00  0.00    +0.000 C 
ATOM     19  C   UNL     1      -0.503   8.377  21.236  0.00  0.00    +0.000 C 
ATOM     20  C   UNL     1      -0.751   9.437  20.162  0.00  0.00    +0.000 C 
ATOM     21  N   UNL     1      -0.403  10.790  20.627  0.00  0.00    +0.000 NA
ATOM     22  C   UNL     1       0.998  10.853  21.078  0.00  0.00    +0.000 C 
ATOM     23  C   UNL     1       1.316   9.816  22.159  0.00  0.00    +0.000 C 
BRANCH  21  24
ATOM     24  C   UNL     1      -0.618  11.790  19.559  0.00  0.00    +0.000 C 
BRANCH  24  25
ATOM     25  C   UNL     1      -1.954  11.685  18.852  0.00  0.00    +0.000 A 
ATOM     26  C   UNL     1      -3.139  12.083  19.489  0.00  0.00    +0.000 A 
ATOM     27  C   UNL     1      -4.364  12.013  18.820  0.00  0.00    +0.000 A 
ATOM     28  C   UNL     1      -4.417  11.552  17.506  0.00  0.00    +0.000 A 
ATOM     29  C   UNL     1      -3.249  11.148  16.863  0.00  0.00    +0.000 A 
ATOM     30  C   UNL     1      -2.025  11.213  17.532  0.00  0.00    +0.000 A 
ENDBRANCH  24  25
ENDBRANCH  21  24
ENDBRANCH   3  18
TORSDOF 6
ENDMDL
MODEL 3
REMARK VINA RESULT:      -7.6      2.537      9.134
REMARK  Name = 
REMARK  8 active torsions:
REMARK  status: ('A' for Active; 'I' for Inactive)
REMARK    1  A    between atoms: C_1  and  C_2
REMARK    2  A    between atoms: C_2  and  O_3
REMARK    3  A    between atoms: O_3  and  C_4
REMARK    4  A    between atoms: C_9  and  C_10
REMARK    5  A    between atoms: N_12  and  C_13
REMARK    6  A    between atoms: N_16  and  C_17
REMARK    7  A    between atoms: C_17  and  C_18
REMARK    8  A    between atoms: C_26  and  C_27
REMARK                            x       y       z     vdW  Elec       q    Type
REMARK                         _______ _______ _______ _____ _____    ______ ____
ROOT
ATOM      1  C   UNL     1       2.357   5.428  20.261  0.00  0.00    +0.000 C 
ATOM      2  O   UNL     1       2.366   4.671  21.224  0.00  0.00    +0.000 OA
ATOM      3  N   UNL     1       2.832   5.067  19.014  0.00  0.00    +0.000 N 
ATOM      4  H   UNL     1       2.871   5.816  18.334  0.00  0.00    +0.000 HD
ENDROOT
BRANCH   1  10
ATOM      5  C   UNL     1       0.251  11.093  20.527  0.00  0.00    +0.000 A 
ATOM      6  C   UNL     1      -0.192  10.585  21.754  0.00  0.00    +0.000 A 
ATOM      7  C   UNL     1       0.067   9.261  22.142  0.00  0.00    +0.000 A 
ATOM      8  C   UNL     1       0.787   8.484  21.237  0.00  0.00    +0.000 A 
ATOM      9  O   UNL     1       1.146   7.185  21.407  0.00  0.00    +0.000 OA
ATOM     10  C   UNL     1       1.851   6.792  20.291  0.00  0.00    +0.000 A 
ATOM     11  C   UNL     1       1.926   7.856  19.395  0.00  0.00    +0.000 A 
ATOM     12  C   UNL     1       2.573   7.924  18.059  0.00  0.00    +0.000 C 
ATOM     13  C   UNL     1       1.244   8.942  20.017  0.00  0.00    +0.000 A 
ATOM     14  C   UNL     1       0.973  10.273  19.648  0.00  0.00    +0.000 A 
BRANCH   5  15
ATOM     15  O   UNL     1      -0.072  12.404  20.277  0.00  0.00    +0.000 OA
BRANCH  15  17
ATOM     16  C   UNL     1      -2.405  12.528  19.719  0.00  0.00    +0.000 C 
ATOM     17  C   UNL     1      -0.984  12.624  19.199  0.00  0.00    +0.000 C 
ENDBRANCH  15  17
ENDBRANCH   5  15
ENDBRANCH   1  10
BRANCH   3  18
ATOM     18  C   UNL     1       3.447   3.780  18.698  0.00  0.00    +0.000 C 
ATOM     19  C   UNL     1       4.900   3.716  19.162  0.00  0.00    +0.000 C 
ATOM     20  C   UNL     1       5.808   4.612  18.318  0.00  0.00    +0.000 C 
ATOM     21  N   UNL     1       5.730   4.288  16.884  0.00  0.00    +0.000 NA
ATOM     22  C   UNL     1       4.344   4.376  16.393  0.00  0.00    +0.000 C 
ATOM     23  C   UNL     1       3.378   3.498  17.195  0.00  0.00    +0.000 C 
BRANCH  21  24
ATOM     24  C   UNL     1       6.589   5.192  16.088  0.00  0.00    +0.000 C 
BRANCH  24  25
ATOM     25  C   UNL     1       6.756   4.791  14.636  0.00  0.00    +0.000 A 
ATOM     26  C   UNL     1       5.993   3.751  14.084  0.00  0.00    +0.000 A 
ATOM     27  C   UNL     1       6.130   3.407  12.737  0.00  0.00    +0.000 A 
ATOM     28  C   UNL     1       7.024   4.103  11.925  0.00  0.00    +0.000 A 
ATOM     29  C   UNL     1       7.792   5.134  12.461  0.00  0.00    +0.000 A 
ATOM     30  C   UNL     1       7.661   5.476  13.809  0.00  0.00    +0.000 A 
ENDBRANCH  24  25
ENDBRANCH  21  24
ENDBRANCH   3  18
TORSDOF 6
ENDMDL
MODEL 4
REMARK VINA RESULT:      -7.6      2.496      9.168
REMARK  Name = 
REMARK  8 active torsions:
REMARK  status: ('A' for Active; 'I' for Inactive)
REMARK    1  A    between atoms: C_1  and  C_2
REMARK    2  A    between atoms: C_2  and  O_3
REMARK    3  A    between atoms: O_3  and  C_4
REMARK    4  A    between atoms: C_9  and  C_10
REMARK    5  A    between atoms: N_12  and  C_13
REMARK    6  A    between atoms: N_16  and  C_17
REMARK    7  A    between atoms: C_17  and  C_18
REMARK    8  A    between atoms: C_26  and  C_27
REMARK                            x       y       z     vdW  Elec       q    Type
REMARK                         _______ _______ _______ _____ _____    ______ ____
ROOT
ATOM      1  C   UNL     1       2.325   5.762  20.144  0.00  0.00    +0.000 C 
ATOM      2  O   UNL     1       1.743   4.720  20.420  0.00  0.00    +0.000 OA
ATOM      3  N   UNL     1       3.603   5.794  19.617  0.00  0.00    +0.000 N 
ATOM      4  H   UNL     1       4.013   6.718  19.537  0.00  0.00    +0.000 HD
ENDROOT
BRANCH   1  10
ATOM      5  C   UNL     1      -0.003  11.273  21.037  0.00  0.00    +0.000 A 
ATOM      6  C   UNL     1      -0.290  10.660  22.262  0.00  0.00    +0.000 A 
ATOM      7  C   UNL     1       0.070   9.329  22.524  0.00  0.00    +0.000 A 
ATOM      8  C   UNL     1       0.726   8.656  21.496  0.00  0.00    +0.000 A 
ATOM      9  O   UNL     1       1.161   7.369  21.533  0.00  0.00    +0.000 OA
ATOM     10  C   UNL     1       1.762   7.091  20.325  0.00  0.00    +0.000 A 
ATOM     11  C   UNL     1       1.693   8.216  19.507  0.00  0.00    +0.000 A 
ATOM     12  C   UNL     1       2.192   8.410  18.120  0.00  0.00    +0.000 C 
ATOM     13  C   UNL     1       1.031   9.219  20.272  0.00  0.00    +0.000 A 
ATOM     14  C   UNL     1       0.660  10.555  20.031  0.00  0.00    +0.000 A 
BRANCH   5  15
ATOM     15  O   UNL     1      -0.411  12.579  20.918  0.00  0.00    +0.000 OA
BRANCH  15  17
ATOM     16  C   UNL     1      -2.547  12.460  19.825  0.00  0.00    +0.000 C 
ATOM     17  C   UNL     1      -1.810  12.812  21.101  0.00  0.00    +0.000 C 
ENDBRANCH  15  17
ENDBRANCH   5  15
ENDBRANCH   1  10
BRANCH   3  18
ATOM     18  C   UNL     1       4.434   4.619  19.376  0.00  0.00    +0.000 C 
ATOM     19  C   UNL     1       5.919   4.972  19.331  0.00  0.00    +0.000 C 
ATOM     20  C   UNL     1       6.278   5.763  18.072  0.00  0.00    +0.000 C 
ATOM     21  N   UNL     1       5.901   5.048  16.841  0.00  0.00    +0.000 NA
ATOM     22  C   UNL     1       4.464   4.723  16.834  0.00  0.00    +0.000 C 
ATOM     23  C   UNL     1       4.035   3.926  18.070  0.00  0.00    +0.000 C 
BRANCH  21  24
ATOM     24  C   UNL     1       6.226   5.850  15.641  0.00  0.00    +0.000 C 
BRANCH  24  25
ATOM     25  C   UNL     1       6.365   5.048  14.362  0.00  0.00    +0.000 A 
ATOM     26  C   UNL     1       7.467   5.233  13.513  0.00  0.00    +0.000 A 
ATOM     27  C   UNL     1       7.605   4.468  12.353  0.00  0.00    +0.000 A 
ATOM     28  C   UNL     1       6.650   3.505  12.032  0.00  0.00    +0.000 A 
ATOM     29  C   UNL     1       5.548   3.314  12.863  0.00  0.00    +0.000 A 
ATOM     30  C   UNL     1       5.406   4.081  14.021  0.00  0.00    +0.000 A 
ENDBRANCH  24  25
ENDBRANCH  21  24
ENDBRANCH   3  18
TORSDOF 6
ENDMDL
MODEL 5
REMARK VINA RESULT:      -7.5      2.632      8.556
REMARK  Name = 
REMARK  8 active torsions:
REMARK  status: ('A' for Active; 'I' for Inactive)
REMARK    1  A    between atoms: C_1  and  C_2
REMARK    2  A    between atoms: C_2  and  O_3
REMARK    3  A    between atoms: O_3  and  C_4
REMARK    4  A    between atoms: C_9  and  C_10
REMARK    5  A    between atoms: N_12  and  C_13
REMARK    6  A    between atoms: N_16  and  C_17
REMARK    7  A    between atoms: C_17  and  C_18
REMARK    8  A    between atoms: C_26  and  C_27
REMARK                            x       y       z     vdW  Elec       q    Type
REMARK                         _______ _______ _______ _____ _____    ______ ____
ROOT
ATOM      1  C   UNL     1       1.979   5.404  20.602  0.00  0.00    +0.000 C 
ATOM      2  O   UNL     1       2.383   4.894  21.641  0.00  0.00    +0.000 OA
ATOM      3  N   UNL     1       1.812   4.693  19.429  0.00  0.00    +0.000 N 
ATOM      4  H   UNL     1       1.580   5.251  18.616  0.00  0.00    +0.000 HD
ENDROOT
BRANCH   1  10
ATOM      5  C   UNL     1       0.475  11.246  20.150  0.00  0.00    +0.000 A 
ATOM      6  C   UNL     1      -0.148  10.901  21.355  0.00  0.00    +0.000 A 
ATOM      7  C   UNL     1      -0.075   9.602  21.880  0.00  0.00    +0.000 A 
ATOM      8  C   UNL     1       0.650   8.677  21.132  0.00  0.00    +0.000 A 
ATOM      9  O   UNL     1       0.848   7.371  21.450  0.00  0.00    +0.000 OA
ATOM     10  C   UNL     1       1.622   6.807  20.460  0.00  0.00    +0.000 A 
ATOM     11  C   UNL     1       1.906   7.769  19.494  0.00  0.00    +0.000 A 
ATOM     12  C   UNL     1       2.695   7.647  18.240  0.00  0.00    +0.000 C 
ATOM     13  C   UNL     1       1.281   8.970  19.940  0.00  0.00    +0.000 A 
ATOM     14  C   UNL     1       1.195  10.280  19.432  0.00  0.00    +0.000 A 
BRANCH   5  15
ATOM     15  O   UNL     1       0.323  12.552  19.756  0.00  0.00    +0.000 OA
BRANCH  15  17
ATOM     16  C   UNL     1      -1.414  12.303  18.115  0.00  0.00    +0.000 C 
ATOM     17  C   UNL     1      -1.010  12.950  19.425  0.00  0.00    +0.000 C 
ENDBRANCH  15  17
ENDBRANCH   5  15
ENDBRANCH   1  10
BRANCH   3  18
ATOM     18  C   UNL     1       2.141   3.280  19.257  0.00  0.00    +0.000 C 
ATOM     19  C   UNL     1       3.570   2.972  19.697  0.00  0.00    +0.000 C 
ATOM     20  C   UNL     1       4.602   3.561  18.735  0.00  0.00    +0.000 C 
ATOM     21  N   UNL     1       4.399   3.099  17.352  0.00  0.00    +0.000 NA
ATOM     22  C   UNL     1       3.039   3.414  16.880  0.00  0.00    +0.000 C 
ATOM     23  C   UNL     1       1.952   2.850  17.800  0.00  0.00    +0.000 C 
BRANCH  21  24
ATOM     24  C   UNL     1       5.387   3.712  16.437  0.00  0.00    +0.000 C 
BRANCH  24  25
ATOM     25  C   UNL     1       6.131   4.901  17.012  0.00  0.00    +0.000 A 
ATOM     26  C   UNL     1       7.235   4.718  17.858  0.00  0.00    +0.000 A 
ATOM     27  C   UNL     1       7.935   5.818  18.359  0.00  0.00    +0.000 A 
ATOM     28  C   UNL     1       7.545   7.111  18.015  0.00  0.00    +0.000 A 
ATOM     29  C   UNL     1       6.447   7.307  17.181  0.00  0.00    +0.000 A 
ATOM     30  C   UNL     1       5.743   6.209  16.682  0.00  0.00    +0.000 A 
ENDBRANCH  24  25
ENDBRANCH  21  24
ENDBRANCH   3  18
TORSDOF 6
ENDMDL
MODEL 6
REMARK VINA RESULT:      -7.5      2.971      9.095
REMARK  Name = 
REMARK  8 active torsions:
REMARK  status: ('A' for Active; 'I' for Inactive)
REMARK    1  A    between atoms: C_1  and  C_2
REMARK    2  A    between atoms: C_2  and  O_3
REMARK    3  A    between atoms: O_3  and  C_4
REMARK    4  A    between atoms: C_9  and  C_10
REMARK    5  A    between atoms: N_12  and  C_13
REMARK    6  A    between atoms: N_16  and  C_17
REMARK    7  A    between atoms: C_17  and  C_18
REMARK    8  A    between atoms: C_26  and  C_27
REMARK                            x       y       z     vdW  Elec       q    Type
REMARK                         _______ _______ _______ _____ _____    ______ ____
ROOT
ATOM      1  C   UNL     1       2.375   5.872  20.157  0.00  0.00    +0.000 C 
ATOM      2  O   UNL     1       1.839   4.864  20.604  0.00  0.00    +0.000 OA
ATOM      3  N   UNL     1       3.590   5.849  19.499  0.00  0.00    +0.000 N 
ATOM      4  H   UNL     1       3.977   6.759  19.278  0.00  0.00    +0.000 HD
ENDROOT
BRANCH   1  10
ATOM      5  C   UNL     1       0.068  11.438  20.688  0.00  0.00    +0.000 A 
ATOM      6  C   UNL     1      -0.173  10.926  21.969  0.00  0.00    +0.000 A 
ATOM      7  C   UNL     1       0.200   9.620  22.323  0.00  0.00    +0.000 A 
ATOM      8  C   UNL     1       0.819   8.866  21.330  0.00  0.00    +0.000 A 
ATOM      9  O   UNL     1       1.258   7.586  21.454  0.00  0.00    +0.000 OA
ATOM     10  C   UNL     1       1.816   7.212  20.252  0.00  0.00    +0.000 A 
ATOM     11  C   UNL     1       1.714   8.267  19.348  0.00  0.00    +0.000 A 
ATOM     12  C   UNL     1       2.161   8.348  17.933  0.00  0.00    +0.000 C 
ATOM     13  C   UNL     1       1.077   9.328  20.055  0.00  0.00    +0.000 A 
ATOM     14  C   UNL     1       0.695  10.641  19.720  0.00  0.00    +0.000 A 
BRANCH   5  15
ATOM     15  O   UNL     1      -0.347  12.730  20.480  0.00  0.00    +0.000 OA
BRANCH  15  17
ATOM     16  C   UNL     1       1.673  13.943  20.951  0.00  0.00    +0.000 C 
ATOM     17  C   UNL     1       0.625  13.610  19.909  0.00  0.00    +0.000 C 
ENDBRANCH  15  17
ENDBRANCH   5  15
ENDBRANCH   1  10
BRANCH   3  18
ATOM     18  C   UNL     1       4.408   4.656  19.302  0.00  0.00    +0.000 C 
ATOM     19  C   UNL     1       5.900   4.983  19.300  0.00  0.00    +0.000 C 
ATOM     20  C   UNL     1       6.314   5.750  18.044  0.00  0.00    +0.000 C 
ATOM     21  N   UNL     1       5.964   5.025  16.811  0.00  0.00    +0.000 NA
ATOM     22  C   UNL     1       4.522   4.724  16.761  0.00  0.00    +0.000 C 
ATOM     23  C   UNL     1       4.039   3.952  17.993  0.00  0.00    +0.000 C 
BRANCH  21  24
ATOM     24  C   UNL     1       6.342   5.804  15.611  0.00  0.00    +0.000 C 
BRANCH  24  25
ATOM     25  C   UNL     1       6.462   4.989  14.339  0.00  0.00    +0.000 A 
ATOM     26  C   UNL     1       5.503   4.018  14.013  0.00  0.00    +0.000 A 
ATOM     27  C   UNL     1       5.603   3.293  12.823  0.00  0.00    +0.000 A 
ATOM     28  C   UNL     1       6.656   3.535  11.943  0.00  0.00    +0.000 A 
ATOM     29  C   UNL     1       7.618   4.492  12.256  0.00  0.00    +0.000 A 
ATOM     30  C   UNL     1       7.523   5.215  13.448  0.00  0.00    +0.000 A 
ENDBRANCH  24  25
ENDBRANCH  21  24
ENDBRANCH   3  18
TORSDOF 6
ENDMDL
MODEL 7
REMARK VINA RESULT:      -7.5      1.265      1.437
REMARK  Name = 
REMARK  8 active torsions:
REMARK  status: ('A' for Active; 'I' for Inactive)
REMARK    1  A    between atoms: C_1  and  C_2
REMARK    2  A    between atoms: C_2  and  O_3
REMARK    3  A    between atoms: O_3  and  C_4
REMARK    4  A    between atoms: C_9  and  C_10
REMARK    5  A    between atoms: N_12  and  C_13
REMARK    6  A    between atoms: N_16  and  C_17
REMARK    7  A    between atoms: C_17  and  C_18
REMARK    8  A    between atoms: C_26  and  C_27
REMARK                            x       y       z     vdW  Elec       q    Type
REMARK                         _______ _______ _______ _____ _____    ______ ____
ROOT
ATOM      1  C   UNL     1       1.960   6.080  20.345  0.00  0.00    +0.000 C 
ATOM      2  O   UNL     1       1.289   5.300  21.011  0.00  0.00    +0.000 OA
ATOM      3  N   UNL     1       1.964   7.445  20.562  0.00  0.00    +0.000 N 
ATOM      4  H   UNL     1       2.472   7.989  19.875  0.00  0.00    +0.000 HD
ENDROOT
BRANCH   1  10
ATOM      5  C   UNL     1       5.704   4.482  15.871  0.00  0.00    +0.000 A 
ATOM      6  C   UNL     1       6.483   5.430  16.546  0.00  0.00    +0.000 A 
ATOM      7  C   UNL     1       6.010   6.097  17.686  0.00  0.00    +0.000 A 
ATOM      8  C   UNL     1       4.724   5.764  18.105  0.00  0.00    +0.000 A 
ATOM      9  O   UNL     1       4.072   6.285  19.178  0.00  0.00    +0.000 OA
ATOM     10  C   UNL     1       2.834   5.686  19.251  0.00  0.00    +0.000 A 
ATOM     11  C   UNL     1       2.695   4.783  18.200  0.00  0.00    +0.000 A 
ATOM     12  C   UNL     1       1.548   3.906  17.850  0.00  0.00    +0.000 C 
ATOM     13  C   UNL     1       3.921   4.836  17.473  0.00  0.00    +0.000 A 
ATOM     14  C   UNL     1       4.415   4.179  16.331  0.00  0.00    +0.000 A 
BRANCH   5  15
ATOM     15  O   UNL     1       6.292   3.906  14.772  0.00  0.00    +0.000 OA
BRANCH  15  17
ATOM     16  C   UNL     1       6.393   3.427  12.420  0.00  0.00    +0.000 C 
ATOM     17  C   UNL     1       5.626   4.123  13.526  0.00  0.00    +0.000 C 
ENDBRANCH  15  17
ENDBRANCH   5  15
ENDBRANCH   1  10
BRANCH   3  18
ATOM     18  C   UNL     1       1.145   8.132  21.557  0.00  0.00    +0.000 C 
ATOM     19  C   UNL     1      -0.328   8.167  21.154  0.00  0.00    +0.000 C 
ATOM     20  C   UNL     1      -0.573   9.106  19.973  0.00  0.00    +0.000 C 
ATOM     21  N   UNL     1      -0.101  10.474  20.243  0.00  0.00    +0.000 NA
ATOM     22  C   UNL     1       1.329  10.483  20.600  0.00  0.00    +0.000 C 
ATOM     23  C   UNL     1       1.646   9.562  21.782  0.00  0.00    +0.000 C 
BRANCH  21  24
ATOM     24  C   UNL     1      -0.317  11.352  19.072  0.00  0.00    +0.000 C 
BRANCH  24  25
ATOM     25  C   UNL     1      -1.619  11.113  18.334  0.00  0.00    +0.000 A 
ATOM     26  C   UNL     1      -1.684  10.210  17.263  0.00  0.00    +0.000 A 
ATOM     27  C   UNL     1      -2.894   9.971  16.607  0.00  0.00    +0.000 A 
ATOM     28  C   UNL     1      -4.053  10.626  17.018  0.00  0.00    +0.000 A 
ATOM     29  C   UNL     1      -4.003  11.530  18.077  0.00  0.00    +0.000 A 
ATOM     30  C   UNL     1      -2.793  11.773  18.731  0.00  0.00    +0.000 A 
ENDBRANCH  24  25
ENDBRANCH  21  24
ENDBRANCH   3  18
TORSDOF 6
ENDMDL
MODEL 8
REMARK VINA RESULT:      -7.4      1.351      1.962
REMARK  Name = 
REMARK  8 active torsions:
REMARK  status: ('A' for Active; 'I' for Inactive)
REMARK    1  A    between atoms: C_1  and  C_2
REMARK    2  A    between atoms: C_2  and  O_3
REMARK    3  A    between atoms: O_3  and  C_4
REMARK    4  A    between atoms: C_9  and  C_10
REMARK    5  A    between atoms: N_12  and  C_13
REMARK    6  A    between atoms: N_16  and  C_17
REMARK    7  A    between atoms: C_17  and  C_18
REMARK    8  A    between atoms: C_26  and  C_27
REMARK                            x       y       z     vdW  Elec       q    Type
REMARK                         _______ _______ _______ _____ _____    ______ ____
ROOT
ATOM      1  C   UNL     1       2.018   6.205  20.428  0.00  0.00    +0.000 C 
ATOM      2  O   UNL     1       1.536   5.469  21.282  0.00  0.00    +0.000 OA
ATOM      3  N   UNL     1       1.900   7.582  20.468  0.00  0.00    +0.000 N 
ATOM      4  H   UNL     1       2.245   8.068  19.649  0.00  0.00    +0.000 HD
ENDROOT
BRANCH   1  10
ATOM      5  C   UNL     1       5.231   4.395  15.634  0.00  0.00    +0.000 A 
ATOM      6  C   UNL     1       5.451   5.777  15.596  0.00  0.00    +0.000 A 
ATOM      7  C   UNL     1       4.881   6.641  16.544  0.00  0.00    +0.000 A 
ATOM      8  C   UNL     1       4.085   6.046  17.519  0.00  0.00    +0.000 A 
ATOM      9  O   UNL     1       3.438   6.689  18.527  0.00  0.00    +0.000 OA
ATOM     10  C   UNL     1       2.772   5.742  19.273  0.00  0.00    +0.000 A 
ATOM     11  C   UNL     1       2.988   4.483  18.720  0.00  0.00    +0.000 A 
ATOM     12  C   UNL     1       2.481   3.156  19.158  0.00  0.00    +0.000 C 
ATOM     13  C   UNL     1       3.840   4.688  17.596  0.00  0.00    +0.000 A 
ATOM     14  C   UNL     1       4.422   3.840  16.635  0.00  0.00    +0.000 A 
BRANCH   5  15
ATOM     15  O   UNL     1       5.851   3.670  14.646  0.00  0.00    +0.000 OA
BRANCH  15  17
ATOM     16  C   UNL     1       6.614   3.665  12.368  0.00  0.00    +0.000 C 
ATOM     17  C   UNL     1       6.571   4.432  13.674  0.00  0.00    +0.000 C 
ENDBRANCH  15  17
ENDBRANCH   5  15
ENDBRANCH   1  10
BRANCH   3  18
ATOM     18  C   UNL     1       1.154   8.325  21.480  0.00  0.00    +0.000 C 
ATOM     19  C   UNL     1      -0.340   8.365  21.170  0.00  0.00    +0.000 C 
ATOM     20  C   UNL     1      -0.649   9.254  19.965  0.00  0.00    +0.000 C 
ATOM     21  N   UNL     1      -0.143  10.626  20.144  0.00  0.00    +0.000 NA
ATOM     22  C   UNL     1       1.307  10.628  20.409  0.00  0.00    +0.000 C 
ATOM     23  C   UNL     1       1.687   9.755  21.609  0.00  0.00    +0.000 C 
BRANCH  21  24
ATOM     24  C   UNL     1      -0.422  11.454  18.950  0.00  0.00    +0.000 C 
BRANCH  24  25
ATOM     25  C   UNL     1      -1.724  11.131  18.245  0.00  0.00    +0.000 A 
ATOM     26  C   UNL     1      -2.920  11.760  18.619  0.00  0.00    +0.000 A 
ATOM     27  C   UNL     1      -4.111  11.481  17.944  0.00  0.00    +0.000 A 
ATOM     28  C   UNL     1      -4.118  10.577  16.884  0.00  0.00    +0.000 A 
ATOM     29  C   UNL     1      -2.938   9.940  16.505  0.00  0.00    +0.000 A 
ATOM     30  C   UNL     1      -1.748  10.214  17.182  0.00  0.00    +0.000 A 
ENDBRANCH  24  25
ENDBRANCH  21  24
ENDBRANCH   3  18
TORSDOF 6
ENDMDL
MODEL 9
REMARK VINA RESULT:      -7.4      3.120      8.517
REMARK  Name = 
REMARK  8 active torsions:
REMARK  status: ('A' for Active; 'I' for Inactive)
REMARK    1  A    between atoms: C_1  and  C_2
REMARK    2  A    between atoms: C_2  and  O_3
REMARK    3  A    between atoms: O_3  and  C_4
REMARK    4  A    between atoms: C_9  and  C_10
REMARK    5  A    between atoms: N_12  and  C_13
REMARK    6  A    between atoms: N_16  and  C_17
REMARK    7  A    between atoms: C_17  and  C_18
REMARK    8  A    between atoms: C_26  and  C_27
REMARK                            x       y       z     vdW  Elec       q    Type
REMARK                         _______ _______ _______ _____ _____    ______ ____
ROOT
ATOM      1  C   UNL     1       1.970   5.485  20.561  0.00  0.00    +0.000 C 
ATOM      2  O   UNL     1       2.347   4.975  21.610  0.00  0.00    +0.000 OA
ATOM      3  N   UNL     1       1.836   4.775  19.383  0.00  0.00    +0.000 N 
ATOM      4  H   UNL     1       1.624   5.333  18.565  0.00  0.00    +0.000 HD
ENDROOT
BRANCH   1  10
ATOM      5  C   UNL     1       0.470  11.325  20.074  0.00  0.00    +0.000 A 
ATOM      6  C   UNL     1      -0.151  10.989  21.284  0.00  0.00    +0.000 A 
ATOM      7  C   UNL     1      -0.077   9.693  21.816  0.00  0.00    +0.000 A 
ATOM      8  C   UNL     1       0.645   8.763  21.073  0.00  0.00    +0.000 A 
ATOM      9  O   UNL     1       0.842   7.459  21.399  0.00  0.00    +0.000 OA
ATOM     10  C   UNL     1       1.613   6.888  20.411  0.00  0.00    +0.000 A 
ATOM     11  C   UNL     1       1.896   7.843  19.437  0.00  0.00    +0.000 A 
ATOM     12  C   UNL     1       2.681   7.712  18.183  0.00  0.00    +0.000 C 
ATOM     13  C   UNL     1       1.273   9.048  19.877  0.00  0.00    +0.000 A 
ATOM     14  C   UNL     1       1.187  10.354  19.361  0.00  0.00    +0.000 A 
BRANCH   5  15
ATOM     15  O   UNL     1       0.318  12.629  19.672  0.00  0.00    +0.000 OA
BRANCH  15  17
ATOM     16  C   UNL     1       1.665  14.417  18.801  0.00  0.00    +0.000 C 
ATOM     17  C   UNL     1       1.109  13.030  18.551  0.00  0.00    +0.000 C 
ENDBRANCH  15  17
ENDBRANCH   5  15
ENDBRANCH   1  10
BRANCH   3  18
ATOM     18  C   UNL     1       2.172   3.363  19.220  0.00  0.00    +0.000 C 
ATOM     19  C   UNL     1       3.607   3.067  19.649  0.00  0.00    +0.000 C 
ATOM     20  C   UNL     1       4.627   3.656  18.673  0.00  0.00    +0.000 C 
ATOM     21  N   UNL     1       4.414   3.182  17.295  0.00  0.00    +0.000 NA
ATOM     22  C   UNL     1       3.047   3.485  16.834  0.00  0.00    +0.000 C 
ATOM     23  C   UNL     1       1.972   2.920  17.767  0.00  0.00    +0.000 C 
BRANCH  21  24
ATOM     24  C   UNL     1       5.389   3.794  16.367  0.00  0.00    +0.000 C 
BRANCH  24  25
ATOM     25  C   UNL     1       6.185   4.944  16.952  0.00  0.00    +0.000 A 
ATOM     26  C   UNL     1       5.836   6.274  16.677  0.00  0.00    +0.000 A 
ATOM     27  C   UNL     1       6.554   7.329  17.246  0.00  0.00    +0.000 A 
ATOM     28  C   UNL     1       7.624   7.066  18.099  0.00  0.00    +0.000 A 
ATOM     29  C   UNL     1       7.986   5.750  18.376  0.00  0.00    +0.000 A 
ATOM     30  C   UNL     1       7.272   4.694  17.805  0.00  0.00    +0.000 A 
ENDBRANCH  24  25
ENDBRANCH  21  24
ENDBRANCH   3  18
TORSDOF 6
ENDMDL
