MODEL 1
REMARK VINA RESULT:      -6.9      0.000      0.000
REMARK  Name = 
REMARK  3 active torsions:
REMARK  status: ('A' for Active; 'I' for Inactive)
REMARK    1  A    between atoms: C_3  and  C_4
REMARK    2  A    between atoms: N_7  and  C_8
REMARK    3  A    between atoms: C_8  and  N_9
REMARK                            x       y       z     vdW  Elec       q    Type
REMARK                         _______ _______ _______ _____ _____    ______ ____
ROOT
ATOM      1  C   UNL     1       6.543   4.696  16.276  0.00  0.00    +0.000 A 
ATOM      2  N   UNL     1       7.540   4.437  17.189  0.00  0.00    +0.000 NA
ATOM      3  N   UNL     1       7.027   4.654  18.392  0.00  0.00    +0.000 NA
ATOM      4  N   UNL     1       5.763   5.058  18.162  0.00  0.00    +0.000 N 
ATOM      5  N   UNL     1       5.393   5.080  16.862  0.00  0.00    +0.000 NA
ENDROOT
BRANCH   1   8
ATOM      6  C   UNL     1       6.173   3.543  12.743  0.00  0.00    +0.000 A 
ATOM      7  C   UNL     1       5.966   3.631  14.109  0.00  0.00    +0.000 A 
ATOM      8  C   UNL     1       6.721   4.554  14.838  0.00  0.00    +0.000 A 
ATOM      9  C   UNL     1       7.651   5.346  14.157  0.00  0.00    +0.000 A 
ATOM     10  C   UNL     1       7.786   5.181  12.790  0.00  0.00    +0.000 A 
ATOM     11  N   UNL     1       7.067   4.296  12.070  0.00  0.00    +0.000 NA
ENDBRANCH   1   8
BRANCH   4  12
ATOM     12  C   UNL     1       4.821   5.328  19.252  0.00  0.00    +0.000 C 
BRANCH  12  13
ATOM     13  N   UNL     1       3.606   4.478  19.212  0.00  0.00    +0.000 NA
ATOM     14  C   UNL     1       3.922   3.048  19.341  0.00  0.00    +0.000 C 
ATOM     15  C   UNL     1       2.672   2.169  19.261  0.00  0.00    +0.000 C 
ATOM     16  C   UNL     1       1.635   2.608  20.285  0.00  0.00    +0.000 C 
ATOM     17  C   UNL     1       1.306   4.080  20.077  0.00  0.00    +0.000 C 
ATOM     18  C   UNL     1       2.574   4.936  20.150  0.00  0.00    +0.000 C 
ENDBRANCH  12  13
ENDBRANCH   4  12
TORSDOF 3
ENDMDL
MODEL 2
REMARK VINA RESULT:      -6.7      0.933      1.197
REMARK  Name = 
REMARK  3 active torsions:
REMARK  status: ('A' for Active; 'I' for Inactive)
REMARK    1  A    between atoms: C_3  and  C_4
REMARK    2  A    between atoms: N_7  and  C_8
REMARK    3  A    between atoms: C_8  and  N_9
REMARK                            x       y       z     vdW  Elec       q    Type
REMARK                         _______ _______ _______ _____ _____    ______ ____
ROOT
ATOM      1  C   UNL     1       5.682   5.135  15.719  0.00  0.00    +0.000 A 
ATOM      2  N   UNL     1       5.321   6.429  16.016  0.00  0.00    +0.000 NA
ATOM      3  N   UNL     1       4.926   6.438  17.282  0.00  0.00    +0.000 NA
ATOM      4  N   UNL     1       5.035   5.158  17.688  0.00  0.00    +0.000 N 
ATOM      5  N   UNL     1       5.528   4.301  16.765  0.00  0.00    +0.000 NA
ENDROOT
BRANCH   1   8
ATOM      6  C   UNL     1       6.041   3.423  12.418  0.00  0.00    +0.000 A 
ATOM      7  C   UNL     1       5.517   3.768  13.652  0.00  0.00    +0.000 A 
ATOM      8  C   UNL     1       6.189   4.727  14.416  0.00  0.00    +0.000 A 
ATOM      9  C   UNL     1       7.359   5.294  13.901  0.00  0.00    +0.000 A 
ATOM     10  C   UNL     1       7.804   4.881  12.658  0.00  0.00    +0.000 A 
ATOM     11  N   UNL     1       7.169   3.957  11.907  0.00  0.00    +0.000 NA
ENDBRANCH   1   8
BRANCH   4  12
ATOM     12  C   UNL     1       4.764   4.754  19.070  0.00  0.00    +0.000 C 
BRANCH  12  13
ATOM     13  N   UNL     1       3.385   4.250  19.284  0.00  0.00    +0.000 NA
ATOM     14  C   UNL     1       3.347   2.790  19.454  0.00  0.00    +0.000 C 
ATOM     15  C   UNL     1       1.921   2.266  19.635  0.00  0.00    +0.000 C 
ATOM     16  C   UNL     1       1.222   2.982  20.782  0.00  0.00    +0.000 C 
ATOM     17  C   UNL     1       1.246   4.484  20.533  0.00  0.00    +0.000 C 
ATOM     18  C   UNL     1       2.682   4.981  20.343  0.00  0.00    +0.000 C 
ENDBRANCH  12  13
ENDBRANCH   4  12
TORSDOF 3
ENDMDL
MODEL 3
REMARK VINA RESULT:      -6.7      0.778      1.735
REMARK  Name = 
REMARK  3 active torsions:
REMARK  status: ('A' for Active; 'I' for Inactive)
REMARK    1  A    between atoms: C_3  and  C_4
REMARK    2  A    between atoms: N_7  and  C_8
REMARK    3  A    between atoms: C_8  and  N_9
REMARK                            x       y       z     vdW  Elec       q    Type
REMARK                         _______ _______ _______ _____ _____    ______ ____
ROOT
ATOM      1  C   UNL     1       6.637   4.713  16.093  0.00  0.00    +0.000 A 
ATOM      2  N   UNL     1       7.646   4.439  16.988  0.00  0.00    +0.000 NA
ATOM      3  N   UNL     1       7.158   4.663  18.200  0.00  0.00    +0.000 NA
ATOM      4  N   UNL     1       5.896   5.087  17.992  0.00  0.00    +0.000 N 
ATOM      5  N   UNL     1       5.503   5.114  16.699  0.00  0.00    +0.000 NA
ENDROOT
BRANCH   1   8
ATOM      6  C   UNL     1       7.800   5.174  12.573  0.00  0.00    +0.000 A 
ATOM      7  C   UNL     1       7.695   5.359  13.941  0.00  0.00    +0.000 A 
ATOM      8  C   UNL     1       6.787   4.569  14.652  0.00  0.00    +0.000 A 
ATOM      9  C   UNL     1       6.026   3.628  13.951  0.00  0.00    +0.000 A 
ATOM     10  C   UNL     1       6.202   3.520  12.583  0.00  0.00    +0.000 A 
ATOM     11  N   UNL     1       7.073   4.274  11.881  0.00  0.00    +0.000 NA
ENDBRANCH   1   8
BRANCH   4  12
ATOM     12  C   UNL     1       4.978   5.370  19.099  0.00  0.00    +0.000 C 
BRANCH  12  13
ATOM     13  N   UNL     1       3.826   4.438  19.171  0.00  0.00    +0.000 NA
ATOM     14  C   UNL     1       2.708   4.868  18.318  0.00  0.00    +0.000 C 
ATOM     15  C   UNL     1       1.506   3.927  18.422  0.00  0.00    +0.000 C 
ATOM     16  C   UNL     1       1.914   2.491  18.129  0.00  0.00    +0.000 C 
ATOM     17  C   UNL     1       3.038   2.080  19.070  0.00  0.00    +0.000 C 
ATOM     18  C   UNL     1       4.223   3.042  18.955  0.00  0.00    +0.000 C 
ENDBRANCH  12  13
ENDBRANCH   4  12
TORSDOF 3
ENDMDL
MODEL 4
REMARK VINA RESULT:      -6.7      0.836      1.482
REMARK  Name = 
REMARK  3 active torsions:
REMARK  status: ('A' for Active; 'I' for Inactive)
REMARK    1  A    between atoms: C_3  and  C_4
REMARK    2  A    between atoms: N_7  and  C_8
REMARK    3  A    between atoms: C_8  and  N_9
REMARK                            x       y       z     vdW  Elec       q    Type
REMARK                         _______ _______ _______ _____ _____    ______ ____
ROOT
ATOM      1  C   UNL     1       5.928   5.136  15.887  0.00  0.00    +0.000 A 
ATOM      2  N   UNL     1       6.000   6.434  16.338  0.00  0.00    +0.000 NA
ATOM      3  N   UNL     1       5.615   6.424  17.606  0.00  0.00    +0.000 NA
ATOM      4  N   UNL     1       5.302   5.139  17.862  0.00  0.00    +0.000 N 
ATOM      5  N   UNL     1       5.501   4.282  16.836  0.00  0.00    +0.000 NA
ENDROOT
BRANCH   1   8
ATOM      6  C   UNL     1       7.720   4.856  12.621  0.00  0.00    +0.000 A 
ATOM      7  C   UNL     1       7.420   5.273  13.907  0.00  0.00    +0.000 A 
ATOM      8  C   UNL     1       6.290   4.741  14.533  0.00  0.00    +0.000 A 
ATOM      9  C   UNL     1       5.512   3.812  13.834  0.00  0.00    +0.000 A 
ATOM     10  C   UNL     1       5.893   3.461  12.551  0.00  0.00    +0.000 A 
ATOM     11  N   UNL     1       6.980   3.964  11.931  0.00  0.00    +0.000 NA
ENDBRANCH   1   8
BRANCH   4  12
ATOM     12  C   UNL     1       4.900   4.687  19.197  0.00  0.00    +0.000 C 
BRANCH  12  13
ATOM     13  N   UNL     1       3.499   4.205  19.267  0.00  0.00    +0.000 NA
ATOM     14  C   UNL     1       3.419   2.741  19.376  0.00  0.00    +0.000 C 
ATOM     15  C   UNL     1       1.973   2.241  19.409  0.00  0.00    +0.000 C 
ATOM     16  C   UNL     1       1.186   2.930  20.514  0.00  0.00    +0.000 C 
ATOM     17  C   UNL     1       1.259   4.439  20.326  0.00  0.00    +0.000 C 
ATOM     18  C   UNL     1       2.715   4.912  20.286  0.00  0.00    +0.000 C 
ENDBRANCH  12  13
ENDBRANCH   4  12
TORSDOF 3
ENDMDL
MODEL 5
REMARK VINA RESULT:      -6.6      0.925      1.225
REMARK  Name = 
REMARK  3 active torsions:
REMARK  status: ('A' for Active; 'I' for Inactive)
REMARK    1  A    between atoms: C_3  and  C_4
REMARK    2  A    between atoms: N_7  and  C_8
REMARK    3  A    between atoms: C_8  and  N_9
REMARK                            x       y       z     vdW  Elec       q    Type
REMARK                         _______ _______ _______ _____ _____    ______ ____
ROOT
ATOM      1  C   UNL     1       6.073   4.782  15.899  0.00  0.00    +0.000 A 
ATOM      2  N   UNL     1       6.852   4.393  16.965  0.00  0.00    +0.000 NA
ATOM      3  N   UNL     1       6.182   4.704  18.066  0.00  0.00    +0.000 NA
ATOM      4  N   UNL     1       5.050   5.289  17.629  0.00  0.00    +0.000 N 
ATOM      5  N   UNL     1       4.911   5.343  16.285  0.00  0.00    +0.000 NA
ENDROOT
BRANCH   1   8
ATOM      6  C   UNL     1       6.220   3.526  12.384  0.00  0.00    +0.000 A 
ATOM      7  C   UNL     1       5.807   3.663  13.699  0.00  0.00    +0.000 A 
ATOM      8  C   UNL     1       6.467   4.590  14.511  0.00  0.00    +0.000 A 
ATOM      9  C   UNL     1       7.514   5.336  13.961  0.00  0.00    +0.000 A 
ATOM     10  C   UNL     1       7.854   5.126  12.637  0.00  0.00    +0.000 A 
ATOM     11  N   UNL     1       7.229   4.236  11.838  0.00  0.00    +0.000 NA
ENDBRANCH   1   8
BRANCH   4  12
ATOM     12  C   UNL     1       3.989   5.714  18.546  0.00  0.00    +0.000 C 
BRANCH  12  13
ATOM     13  N   UNL     1       3.188   4.591  19.092  0.00  0.00    +0.000 NA
ATOM     14  C   UNL     1       2.655   4.888  20.430  0.00  0.00    +0.000 C 
ATOM     15  C   UNL     1       1.861   3.715  21.009  0.00  0.00    +0.000 C 
ATOM     16  C   UNL     1       0.761   3.278  20.051  0.00  0.00    +0.000 C 
ATOM     17  C   UNL     1       1.372   2.936  18.699  0.00  0.00    +0.000 C 
ATOM     18  C   UNL     1       2.170   4.121  18.147  0.00  0.00    +0.000 C 
ENDBRANCH  12  13
ENDBRANCH   4  12
TORSDOF 3
ENDMDL
MODEL 6
REMARK VINA RESULT:      -6.6      0.825      1.527
REMARK  Name = 
REMARK  3 active torsions:
REMARK  status: ('A' for Active; 'I' for Inactive)
REMARK    1  A    between atoms: C_3  and  C_4
REMARK    2  A    between atoms: N_7  and  C_8
REMARK    3  A    between atoms: C_8  and  N_9
REMARK                            x       y       z     vdW  Elec       q    Type
REMARK                         _______ _______ _______ _____ _____    ______ ____
ROOT
ATOM      1  C   UNL     1       6.231   4.710  16.099  0.00  0.00    +0.000 A 
ATOM      2  N   UNL     1       7.096   4.362  17.112  0.00  0.00    +0.000 NA
ATOM      3  N   UNL     1       6.473   4.615  18.254  0.00  0.00    +0.000 NA
ATOM      4  N   UNL     1       5.280   5.126  17.893  0.00  0.00    +0.000 N 
ATOM      5  N   UNL     1       5.059   5.186  16.561  0.00  0.00    +0.000 NA
ENDROOT
BRANCH   1   8
ATOM      6  C   UNL     1       7.830   5.141  12.751  0.00  0.00    +0.000 A 
ATOM      7  C   UNL     1       7.561   5.329  14.096  0.00  0.00    +0.000 A 
ATOM      8  C   UNL     1       6.554   4.561  14.688  0.00  0.00    +0.000 A 
ATOM      9  C   UNL     1       5.863   3.638  13.896  0.00  0.00    +0.000 A 
ATOM     10  C   UNL     1       6.204   3.525  12.560  0.00  0.00    +0.000 A 
ATOM     11  N   UNL     1       7.172   4.258  11.972  0.00  0.00    +0.000 NA
ENDBRANCH   1   8
BRANCH   4  12
ATOM     12  C   UNL     1       4.250   5.468  18.877  0.00  0.00    +0.000 C 
BRANCH  12  13
ATOM     13  N   UNL     1       3.321   4.352  19.180  0.00  0.00    +0.000 NA
ATOM     14  C   UNL     1       2.847   4.384  20.572  0.00  0.00    +0.000 C 
ATOM     15  C   UNL     1       1.921   3.210  20.895  0.00  0.00    +0.000 C 
ATOM     16  C   UNL     1       0.762   3.147  19.910  0.00  0.00    +0.000 C 
ATOM     17  C   UNL     1       1.306   3.065  18.490  0.00  0.00    +0.000 C 
ATOM     18  C   UNL     1       2.239   4.244  18.196  0.00  0.00    +0.000 C 
ENDBRANCH  12  13
ENDBRANCH   4  12
TORSDOF 3
ENDMDL
MODEL 7
REMARK VINA RESULT:      -6.5      1.492      6.822
REMARK  Name = 
REMARK  3 active torsions:
REMARK  status: ('A' for Active; 'I' for Inactive)
REMARK    1  A    between atoms: C_3  and  C_4
REMARK    2  A    between atoms: N_7  and  C_8
REMARK    3  A    between atoms: C_8  and  N_9
REMARK                            x       y       z     vdW  Elec       q    Type
REMARK                         _______ _______ _______ _____ _____    ______ ____
ROOT
ATOM      1  C   UNL     1       3.866   5.126  17.896  0.00  0.00    +0.000 A 
ATOM      2  N   UNL     1       3.770   6.422  17.444  0.00  0.00    +0.000 NA
ATOM      3  N   UNL     1       4.841   6.651  16.698  0.00  0.00    +0.000 NA
ATOM      4  N   UNL     1       5.551   5.507  16.750  0.00  0.00    +0.000 N 
ATOM      5  N   UNL     1       4.981   4.508  17.461  0.00  0.00    +0.000 NA
ENDROOT
BRANCH   1   8
ATOM      6  C   UNL     1       0.986   3.044  19.050  0.00  0.00    +0.000 A 
ATOM      7  C   UNL     1       1.917   3.617  18.199  0.00  0.00    +0.000 A 
ATOM      8  C   UNL     1       2.859   4.498  18.739  0.00  0.00    +0.000 A 
ATOM      9  C   UNL     1       2.820   4.761  20.112  0.00  0.00    +0.000 A 
ATOM     10  C   UNL     1       1.850   4.141  20.878  0.00  0.00    +0.000 A 
ATOM     11  N   UNL     1       0.932   3.289  20.375  0.00  0.00    +0.000 NA
ENDBRANCH   1   8
BRANCH   4  12
ATOM     12  C   UNL     1       6.785   5.320  15.983  0.00  0.00    +0.000 C 
BRANCH  12  13
ATOM     13  N   UNL     1       6.557   5.080  14.537  0.00  0.00    +0.000 NA
ATOM     14  C   UNL     1       7.768   5.316  13.736  0.00  0.00    +0.000 C 
ATOM     15  C   UNL     1       7.522   5.105  12.241  0.00  0.00    +0.000 C 
ATOM     16  C   UNL     1       6.936   3.726  11.976  0.00  0.00    +0.000 C 
ATOM     17  C   UNL     1       5.660   3.553  12.790  0.00  0.00    +0.000 C 
ATOM     18  C   UNL     1       5.930   3.779  14.280  0.00  0.00    +0.000 C 
ENDBRANCH  12  13
ENDBRANCH   4  12
TORSDOF 3
ENDMDL
MODEL 8
REMARK VINA RESULT:      -6.5      1.522      6.868
REMARK  Name = 
REMARK  3 active torsions:
REMARK  status: ('A' for Active; 'I' for Inactive)
REMARK    1  A    between atoms: C_3  and  C_4
REMARK    2  A    between atoms: N_7  and  C_8
REMARK    3  A    between atoms: C_8  and  N_9
REMARK                            x       y       z     vdW  Elec       q    Type
REMARK                         _______ _______ _______ _____ _____    ______ ____
ROOT
ATOM      1  C   UNL     1       3.757   4.969  17.780  0.00  0.00    +0.000 A 
ATOM      2  N   UNL     1       3.768   6.309  17.472  0.00  0.00    +0.000 NA
ATOM      3  N   UNL     1       4.884   6.541  16.794  0.00  0.00    +0.000 NA
ATOM      4  N   UNL     1       5.511   5.350  16.744  0.00  0.00    +0.000 N 
ATOM      5  N   UNL     1       4.845   4.323  17.318  0.00  0.00    +0.000 NA
ENDROOT
BRANCH   1   8
ATOM      6  C   UNL     1       1.198   4.190  20.388  0.00  0.00    +0.000 A 
ATOM      7  C   UNL     1       2.235   4.838  19.737  0.00  0.00    +0.000 A 
ATOM      8  C   UNL     1       2.676   4.327  18.513  0.00  0.00    +0.000 A 
ATOM      9  C   UNL     1       2.051   3.186  18.000  0.00  0.00    +0.000 A 
ATOM     10  C   UNL     1       1.025   2.609  18.726  0.00  0.00    +0.000 A 
ATOM     11  N   UNL     1       0.587   3.087  19.909  0.00  0.00    +0.000 NA
ENDBRANCH   1   8
BRANCH   4  12
ATOM     12  C   UNL     1       6.762   5.160  16.004  0.00  0.00    +0.000 C 
BRANCH  12  13
ATOM     13  N   UNL     1       6.571   5.002  14.541  0.00  0.00    +0.000 NA
ATOM     14  C   UNL     1       7.784   5.341  13.782  0.00  0.00    +0.000 C 
ATOM     15  C   UNL     1       7.574   5.215  12.271  0.00  0.00    +0.000 C 
ATOM     16  C   UNL     1       7.054   3.832  11.909  0.00  0.00    +0.000 C 
ATOM     17  C   UNL     1       5.773   3.552  12.683  0.00  0.00    +0.000 C 
ATOM     18  C   UNL     1       6.006   3.694  14.190  0.00  0.00    +0.000 C 
ENDBRANCH  12  13
ENDBRANCH   4  12
TORSDOF 3
ENDMDL
MODEL 9
REMARK VINA RESULT:      -6.4      4.621      8.171
REMARK  Name = 
REMARK  3 active torsions:
REMARK  status: ('A' for Active; 'I' for Inactive)
REMARK    1  A    between atoms: C_3  and  C_4
REMARK    2  A    between atoms: N_7  and  C_8
REMARK    3  A    between atoms: C_8  and  N_9
REMARK                            x       y       z     vdW  Elec       q    Type
REMARK                         _______ _______ _______ _____ _____    ______ ____
ROOT
ATOM      1  C   UNL     1       1.356   8.924  19.902  0.00  0.00    +0.000 A 
ATOM      2  N   UNL     1       1.528   9.479  18.655  0.00  0.00    +0.000 NA
ATOM      3  N   UNL     1       2.144   8.572  17.911  0.00  0.00    +0.000 NA
ATOM      4  N   UNL     1       2.346   7.526  18.735  0.00  0.00    +0.000 N 
ATOM      5  N   UNL     1       1.852   7.675  19.985  0.00  0.00    +0.000 NA
ENDROOT
BRANCH   1   8
ATOM      6  C   UNL     1      -0.359  11.547  21.936  0.00  0.00    +0.000 A 
ATOM      7  C   UNL     1       0.269  10.940  20.861  0.00  0.00    +0.000 A 
ATOM      8  C   UNL     1       0.697   9.616  21.000  0.00  0.00    +0.000 A 
ATOM      9  C   UNL     1       0.473   8.965  22.217  0.00  0.00    +0.000 A 
ATOM     10  C   UNL     1      -0.160   9.658  23.233  0.00  0.00    +0.000 A 
ATOM     11  N   UNL     1      -0.580  10.935  23.117  0.00  0.00    +0.000 NA
ENDBRANCH   1   8
BRANCH   4  12
ATOM     12  C   UNL     1       2.939   6.270  18.269  0.00  0.00    +0.000 C 
BRANCH  12  13
ATOM     13  N   UNL     1       2.357   5.063  18.905  0.00  0.00    +0.000 NA
ATOM     14  C   UNL     1       1.690   4.187  17.930  0.00  0.00    +0.000 C 
ATOM     15  C   UNL     1       1.056   2.963  18.592  0.00  0.00    +0.000 C 
ATOM     16  C   UNL     1       2.082   2.201  19.420  0.00  0.00    +0.000 C 
ATOM     17  C   UNL     1       2.705   3.140  20.445  0.00  0.00    +0.000 C 
ATOM     18  C   UNL     1       3.322   4.362  19.758  0.00  0.00    +0.000 C 
ENDBRANCH  12  13
ENDBRANCH   4  12
TORSDOF 3
ENDMDL
