MODEL 1
REMARK VINA RESULT:      -7.0      0.000      0.000
REMARK  Name = 
REMARK  11 active torsions:
REMARK  status: ('A' for Active; 'I' for Inactive)
REMARK    1  A    between atoms: C_1  and  O_2
REMARK    2  A    between atoms: O_2  and  C_3
REMARK    3  A    between atoms: C_7  and  C_8
REMARK    4  A    between atoms: C_8  and  C_10
REMARK    5  A    between atoms: C_12  and  O_13
REMARK    6  A    between atoms: O_13  and  C_14
REMARK    7  A    between atoms: C_15  and  O_16
REMARK    8  A    between atoms: O_16  and  C_17
REMARK    9  A    between atoms: C_18  and  O_19
REMARK   10  A    between atoms: O_19  and  C_20
REMARK   11  A    between atoms: N_23  and  C_24
REMARK                            x       y       z     vdW  Elec       q    Type
REMARK                         _______ _______ _______ _____ _____    ______ ____
ROOT
ATOM      1  C   UNL     1       2.428   7.907  18.112  0.00  0.00    +0.000 C 
ATOM      2  O   UNL     1       2.761   8.498  17.086  0.00  0.00    +0.000 OA
ENDROOT
BRANCH   1   7
ATOM      3  C   UNL     1      -1.568  11.261  19.329  0.00  0.00    +0.000 A 
ATOM      4  C   UNL     1      -1.138  10.908  18.052  0.00  0.00    +0.000 A 
ATOM      5  C   UNL     1      -0.068  10.024  17.873  0.00  0.00    +0.000 A 
ATOM      6  C   UNL     1       0.574   9.468  18.999  0.00  0.00    +0.000 A 
ATOM      7  C   UNL     1       1.651   8.540  19.166  0.00  0.00    +0.000 A 
ATOM      8  C   UNL     1       1.828   8.382  20.534  0.00  0.00    +0.000 A 
ATOM      9  N   UNL     1       0.885   9.135  21.180  0.00  0.00    +0.000 N 
ATOM     10  C   UNL     1       0.728   9.200  22.618  0.00  0.00    +0.000 C 
ATOM     11  C   UNL     1       0.111   9.817  20.271  0.00  0.00    +0.000 A 
ATOM     12  C   UNL     1      -0.959  10.711  20.460  0.00  0.00    +0.000 A 
BRANCH   3  14
ATOM     13  C   UNL     1      -2.831  12.782  20.618  0.00  0.00    +0.000 C 
ATOM     14  O   UNL     1      -2.632  12.124  19.369  0.00  0.00    +0.000 OA
ENDBRANCH   3  14
ENDBRANCH   1   7
BRANCH   1  15
ATOM     15  C   UNL     1       2.839   6.481  18.265  0.00  0.00    +0.000 A 
ATOM     16  C   UNL     1       4.153   6.203  18.643  0.00  0.00    +0.000 A 
ATOM     17  C   UNL     1       4.567   4.880  18.811  0.00  0.00    +0.000 A 
ATOM     18  C   UNL     1       3.664   3.818  18.563  0.00  0.00    +0.000 A 
ATOM     19  C   UNL     1       2.347   4.099  18.140  0.00  0.00    +0.000 A 
ATOM     20  C   UNL     1       1.952   5.434  17.994  0.00  0.00    +0.000 A 
BRANCH  17  21
ATOM     21  O   UNL     1       5.842   4.540  19.197  0.00  0.00    +0.000 OA
ATOM     22  C   UNL     1       6.830   5.560  19.085  0.00  0.00    +0.000 C 
ENDBRANCH  17  21
BRANCH  18  23
ATOM     23  O   UNL     1       4.198   2.556  18.698  0.00  0.00    +0.000 OA
ATOM     24  C   UNL     1       4.236   2.005  20.008  0.00  0.00    +0.000 C 
ENDBRANCH  18  23
BRANCH  19  25
ATOM     25  O   UNL     1       1.519   3.048  17.851  0.00  0.00    +0.000 OA
ATOM     26  C   UNL     1       0.736   2.496  18.904  0.00  0.00    +0.000 C 
ENDBRANCH  19  25
ENDBRANCH   1  15
TORSDOF 6
ENDMDL
MODEL 2
REMARK VINA RESULT:      -7.0      1.103      1.121
REMARK  Name = 
REMARK  11 active torsions:
REMARK  status: ('A' for Active; 'I' for Inactive)
REMARK    1  A    between atoms: C_1  and  O_2
REMARK    2  A    between atoms: O_2  and  C_3
REMARK    3  A    between atoms: C_7  and  C_8
REMARK    4  A    between atoms: C_8  and  C_10
REMARK    5  A    between atoms: C_12  and  O_13
REMARK    6  A    between atoms: O_13  and  C_14
REMARK    7  A    between atoms: C_15  and  O_16
REMARK    8  A    between atoms: O_16  and  C_17
REMARK    9  A    between atoms: C_18  and  O_19
REMARK   10  A    between atoms: O_19  and  C_20
REMARK   11  A    between atoms: N_23  and  C_24
REMARK                            x       y       z     vdW  Elec       q    Type
REMARK                         _______ _______ _______ _____ _____    ______ ____
ROOT
ATOM      1  C   UNL     1       2.469   7.678  18.669  0.00  0.00    +0.000 C 
ATOM      2  O   UNL     1       2.873   8.168  17.616  0.00  0.00    +0.000 OA
ENDROOT
BRANCH   1   7
ATOM      3  C   UNL     1      -1.450  11.272  19.316  0.00  0.00    +0.000 A 
ATOM      4  C   UNL     1      -0.929  10.819  18.107  0.00  0.00    +0.000 A 
ATOM      5  C   UNL     1       0.109   9.879  18.078  0.00  0.00    +0.000 A 
ATOM      6  C   UNL     1       0.623   9.372  19.290  0.00  0.00    +0.000 A 
ATOM      7  C   UNL     1       1.635   8.411  19.609  0.00  0.00    +0.000 A 
ATOM      8  C   UNL     1       1.687   8.336  20.994  0.00  0.00    +0.000 A 
ATOM      9  N   UNL     1       0.729   9.170  21.506  0.00  0.00    +0.000 N 
ATOM     10  C   UNL     1       0.452   9.335  22.917  0.00  0.00    +0.000 C 
ATOM     11  C   UNL     1       0.070   9.823  20.491  0.00  0.00    +0.000 A 
ATOM     12  C   UNL     1      -0.967  10.773  20.529  0.00  0.00    +0.000 A 
BRANCH   3  14
ATOM     13  C   UNL     1      -3.636  11.707  18.540  0.00  0.00    +0.000 C 
ATOM     14  O   UNL     1      -2.470  12.181  19.208  0.00  0.00    +0.000 OA
ENDBRANCH   3  14
ENDBRANCH   1   7
BRANCH   1  15
ATOM     15  C   UNL     1       2.851   6.269  18.979  0.00  0.00    +0.000 A 
ATOM     16  C   UNL     1       4.172   5.875  18.767  0.00  0.00    +0.000 A 
ATOM     17  C   UNL     1       4.568   4.569  19.061  0.00  0.00    +0.000 A 
ATOM     18  C   UNL     1       3.621   3.633  19.541  0.00  0.00    +0.000 A 
ATOM     19  C   UNL     1       2.275   4.021  19.716  0.00  0.00    +0.000 A 
ATOM     20  C   UNL     1       1.907   5.340  19.428  0.00  0.00    +0.000 A 
BRANCH  17  21
ATOM     21  O   UNL     1       5.857   4.123  18.891  0.00  0.00    +0.000 OA
ATOM     22  C   UNL     1       6.599   4.722  17.833  0.00  0.00    +0.000 C 
ENDBRANCH  17  21
BRANCH  18  23
ATOM     23  O   UNL     1       4.107   2.359  19.737  0.00  0.00    +0.000 OA
ATOM     24  C   UNL     1       3.805   1.390  18.741  0.00  0.00    +0.000 C 
ENDBRANCH  18  23
BRANCH  19  25
ATOM     25  O   UNL     1       1.373   3.075  20.123  0.00  0.00    +0.000 OA
ATOM     26  C   UNL     1       1.313   2.752  21.508  0.00  0.00    +0.000 C 
ENDBRANCH  19  25
ENDBRANCH   1  15
TORSDOF 6
ENDMDL
MODEL 3
REMARK VINA RESULT:      -6.8      2.414      8.491
REMARK  Name = 
REMARK  11 active torsions:
REMARK  status: ('A' for Active; 'I' for Inactive)
REMARK    1  A    between atoms: C_1  and  O_2
REMARK    2  A    between atoms: O_2  and  C_3
REMARK    3  A    between atoms: C_7  and  C_8
REMARK    4  A    between atoms: C_8  and  C_10
REMARK    5  A    between atoms: C_12  and  O_13
REMARK    6  A    between atoms: O_13  and  C_14
REMARK    7  A    between atoms: C_15  and  O_16
REMARK    8  A    between atoms: O_16  and  C_17
REMARK    9  A    between atoms: C_18  and  O_19
REMARK   10  A    between atoms: O_19  and  C_20
REMARK   11  A    between atoms: N_23  and  C_24
REMARK                            x       y       z     vdW  Elec       q    Type
REMARK                         _______ _______ _______ _____ _____    ______ ____
ROOT
ATOM      1  C   UNL     1      -0.654  11.947  18.849  0.00  0.00    +0.000 C 
ATOM      2  O   UNL     1      -0.011  12.912  18.440  0.00  0.00    +0.000 OA
ENDROOT
BRANCH   1   7
ATOM      3  C   UNL     1       2.339   7.507  19.011  0.00  0.00    +0.000 A 
ATOM      4  C   UNL     1       2.015   8.251  17.879  0.00  0.00    +0.000 A 
ATOM      5  C   UNL     1       1.210   9.392  17.975  0.00  0.00    +0.000 A 
ATOM      6  C   UNL     1       0.733   9.805  19.236  0.00  0.00    +0.000 A 
ATOM      7  C   UNL     1      -0.068  10.906  19.679  0.00  0.00    +0.000 A 
ATOM      8  C   UNL     1      -0.199  10.772  21.055  0.00  0.00    +0.000 A 
ATOM      9  N   UNL     1       0.517   9.674  21.450  0.00  0.00    +0.000 N 
ATOM     10  C   UNL     1       0.651   9.231  22.821  0.00  0.00    +0.000 C 
ATOM     11  C   UNL     1       1.090   9.058  20.362  0.00  0.00    +0.000 A 
ATOM     12  C   UNL     1       1.892   7.905  20.274  0.00  0.00    +0.000 A 
BRANCH   3  14
ATOM     13  C   UNL     1       2.582   5.164  19.157  0.00  0.00    +0.000 C 
ATOM     14  O   UNL     1       3.143   6.421  18.785  0.00  0.00    +0.000 OA
ENDBRANCH   3  14
ENDBRANCH   1   7
BRANCH   1  15
ATOM     15  C   UNL     1      -2.096  11.855  18.475  0.00  0.00    +0.000 A 
ATOM     16  C   UNL     1      -3.051  12.292  19.393  0.00  0.00    +0.000 A 
ATOM     17  C   UNL     1      -4.408  12.236  19.070  0.00  0.00    +0.000 A 
ATOM     18  C   UNL     1      -4.818  11.702  17.825  0.00  0.00    +0.000 A 
ATOM     19  C   UNL     1      -3.853  11.222  16.914  0.00  0.00    +0.000 A 
ATOM     20  C   UNL     1      -2.498  11.303  17.255  0.00  0.00    +0.000 A 
BRANCH  17  21
ATOM     21  O   UNL     1      -5.398  12.666  19.922  0.00  0.00    +0.000 OA
ATOM     22  C   UNL     1      -5.112  12.582  21.316  0.00  0.00    +0.000 C 
ENDBRANCH  17  21
BRANCH  18  23
ATOM     23  O   UNL     1      -6.182  11.636  17.639  0.00  0.00    +0.000 OA
ATOM     24  C   UNL     1      -6.810  12.764  17.043  0.00  0.00    +0.000 C 
ENDBRANCH  18  23
BRANCH  19  25
ATOM     25  O   UNL     1      -4.287  10.656  15.744  0.00  0.00    +0.000 OA
ATOM     26  C   UNL     1      -3.329  10.395  14.725  0.00  0.00    +0.000 C 
ENDBRANCH  19  25
ENDBRANCH   1  15
TORSDOF 6
ENDMDL
MODEL 4
REMARK VINA RESULT:      -6.8      2.387      8.617
REMARK  Name = 
REMARK  11 active torsions:
REMARK  status: ('A' for Active; 'I' for Inactive)
REMARK    1  A    between atoms: C_1  and  O_2
REMARK    2  A    between atoms: O_2  and  C_3
REMARK    3  A    between atoms: C_7  and  C_8
REMARK    4  A    between atoms: C_8  and  C_10
REMARK    5  A    between atoms: C_12  and  O_13
REMARK    6  A    between atoms: O_13  and  C_14
REMARK    7  A    between atoms: C_15  and  O_16
REMARK    8  A    between atoms: O_16  and  C_17
REMARK    9  A    between atoms: C_18  and  O_19
REMARK   10  A    between atoms: O_19  and  C_20
REMARK   11  A    between atoms: N_23  and  C_24
REMARK                            x       y       z     vdW  Elec       q    Type
REMARK                         _______ _______ _______ _____ _____    ______ ____
ROOT
ATOM      1  C   UNL     1      -0.761  11.999  19.034  0.00  0.00    +0.000 C 
ATOM      2  O   UNL     1      -0.131  12.976  18.631  0.00  0.00    +0.000 OA
ENDROOT
BRANCH   1   7
ATOM      3  C   UNL     1       2.275   7.587  19.022  0.00  0.00    +0.000 A 
ATOM      4  C   UNL     1       1.925   8.358  17.917  0.00  0.00    +0.000 A 
ATOM      5  C   UNL     1       1.111   9.488  18.058  0.00  0.00    +0.000 A 
ATOM      6  C   UNL     1       0.652   9.861  19.338  0.00  0.00    +0.000 A 
ATOM      7  C   UNL     1      -0.151  10.942  19.825  0.00  0.00    +0.000 A 
ATOM      8  C   UNL     1      -0.258  10.768  21.198  0.00  0.00    +0.000 A 
ATOM      9  N   UNL     1       0.475   9.667  21.551  0.00  0.00    +0.000 N 
ATOM     10  C   UNL     1       0.636   9.187  22.907  0.00  0.00    +0.000 C 
ATOM     11  C   UNL     1       1.035   9.087  20.437  0.00  0.00    +0.000 A 
ATOM     12  C   UNL     1       1.846   7.945  20.303  0.00  0.00    +0.000 A 
BRANCH   3  14
ATOM     13  C   UNL     1       2.436   5.401  18.145  0.00  0.00    +0.000 C 
ATOM     14  O   UNL     1       3.086   6.514  18.753  0.00  0.00    +0.000 OA
ENDBRANCH   3  14
ENDBRANCH   1   7
BRANCH   1  15
ATOM     15  C   UNL     1      -2.212  11.912  18.696  0.00  0.00    +0.000 A 
ATOM     16  C   UNL     1      -2.575  11.439  17.435  0.00  0.00    +0.000 A 
ATOM     17  C   UNL     1      -3.924  11.330  17.091  0.00  0.00    +0.000 A 
ATOM     18  C   UNL     1      -4.924  11.733  18.008  0.00  0.00    +0.000 A 
ATOM     19  C   UNL     1      -4.554  12.250  19.268  0.00  0.00    +0.000 A 
ATOM     20  C   UNL     1      -3.196  12.335  19.595  0.00  0.00    +0.000 A 
BRANCH  17  21
ATOM     21  O   UNL     1      -4.348  10.856  15.871  0.00  0.00    +0.000 OA
ATOM     22  C   UNL     1      -3.328  10.486  14.948  0.00  0.00    +0.000 C 
ENDBRANCH  17  21
BRANCH  18  23
ATOM     23  O   UNL     1      -6.216  11.641  17.540  0.00  0.00    +0.000 OA
ATOM     24  C   UNL     1      -6.834  12.845  17.104  0.00  0.00    +0.000 C 
ENDBRANCH  18  23
BRANCH  19  25
ATOM     25  O   UNL     1      -5.544  12.686  20.108  0.00  0.00    +0.000 OA
ATOM     26  C   UNL     1      -5.403  13.969  20.708  0.00  0.00    +0.000 C 
ENDBRANCH  19  25
ENDBRANCH   1  15
TORSDOF 6
ENDMDL
MODEL 5
REMARK VINA RESULT:      -6.7      0.325      2.500
REMARK  Name = 
REMARK  11 active torsions:
REMARK  status: ('A' for Active; 'I' for Inactive)
REMARK    1  A    between atoms: C_1  and  O_2
REMARK    2  A    between atoms: O_2  and  C_3
REMARK    3  A    between atoms: C_7  and  C_8
REMARK    4  A    between atoms: C_8  and  C_10
REMARK    5  A    between atoms: C_12  and  O_13
REMARK    6  A    between atoms: O_13  and  C_14
REMARK    7  A    between atoms: C_15  and  O_16
REMARK    8  A    between atoms: O_16  and  C_17
REMARK    9  A    between atoms: C_18  and  O_19
REMARK   10  A    between atoms: O_19  and  C_20
REMARK   11  A    between atoms: N_23  and  C_24
REMARK                            x       y       z     vdW  Elec       q    Type
REMARK                         _______ _______ _______ _____ _____    ______ ____
ROOT
ATOM      1  C   UNL     1       2.378   7.985  18.077  0.00  0.00    +0.000 C 
ATOM      2  O   UNL     1       2.617   8.574  17.024  0.00  0.00    +0.000 OA
ENDROOT
BRANCH   1   7
ATOM      3  C   UNL     1      -1.538  11.364  19.471  0.00  0.00    +0.000 A 
ATOM      4  C   UNL     1      -1.131  11.052  18.176  0.00  0.00    +0.000 A 
ATOM      5  C   UNL     1      -0.080  10.155  17.950  0.00  0.00    +0.000 A 
ATOM      6  C   UNL     1       0.565   9.546  19.046  0.00  0.00    +0.000 A 
ATOM      7  C   UNL     1       1.626   8.592  19.164  0.00  0.00    +0.000 A 
ATOM      8  C   UNL     1       1.818   8.379  20.523  0.00  0.00    +0.000 A 
ATOM      9  N   UNL     1       0.897   9.125  21.209  0.00  0.00    +0.000 N 
ATOM     10  C   UNL     1       0.760   9.138  22.650  0.00  0.00    +0.000 C 
ATOM     11  C   UNL     1       0.125   9.854  20.336  0.00  0.00    +0.000 A 
ATOM     12  C   UNL     1      -0.925  10.761  20.573  0.00  0.00    +0.000 A 
BRANCH   3  14
ATOM     13  C   UNL     1      -2.450  13.248  20.561  0.00  0.00    +0.000 C 
ATOM     14  O   UNL     1      -2.584  12.245  19.557  0.00  0.00    +0.000 OA
ENDBRANCH   3  14
ENDBRANCH   1   7
BRANCH   1  15
ATOM     15  C   UNL     1       2.879   6.588  18.228  0.00  0.00    +0.000 A 
ATOM     16  C   UNL     1       1.951   5.547  18.275  0.00  0.00    +0.000 A 
ATOM     17  C   UNL     1       2.386   4.227  18.399  0.00  0.00    +0.000 A 
ATOM     18  C   UNL     1       3.769   3.945  18.515  0.00  0.00    +0.000 A 
ATOM     19  C   UNL     1       4.705   5.001  18.509  0.00  0.00    +0.000 A 
ATOM     20  C   UNL     1       4.244   6.315  18.368  0.00  0.00    +0.000 A 
BRANCH  17  21
ATOM     21  O   UNL     1       1.524   3.156  18.435  0.00  0.00    +0.000 OA
ATOM     22  C   UNL     1       0.730   3.023  19.610  0.00  0.00    +0.000 C 
ENDBRANCH  17  21
BRANCH  18  23
ATOM     23  O   UNL     1       4.079   2.615  18.697  0.00  0.00    +0.000 OA
ATOM     24  C   UNL     1       4.341   2.188  20.028  0.00  0.00    +0.000 C 
ENDBRANCH  18  23
BRANCH  19  25
ATOM     25  O   UNL     1       6.029   4.698  18.683  0.00  0.00    +0.000 OA
ATOM     26  C   UNL     1       6.968   5.767  18.710  0.00  0.00    +0.000 C 
ENDBRANCH  19  25
ENDBRANCH   1  15
TORSDOF 6
ENDMDL
MODEL 6
REMARK VINA RESULT:      -6.6      1.913      2.679
REMARK  Name = 
REMARK  11 active torsions:
REMARK  status: ('A' for Active; 'I' for Inactive)
REMARK    1  A    between atoms: C_1  and  O_2
REMARK    2  A    between atoms: O_2  and  C_3
REMARK    3  A    between atoms: C_7  and  C_8
REMARK    4  A    between atoms: C_8  and  C_10
REMARK    5  A    between atoms: C_12  and  O_13
REMARK    6  A    between atoms: O_13  and  C_14
REMARK    7  A    between atoms: C_15  and  O_16
REMARK    8  A    between atoms: O_16  and  C_17
REMARK    9  A    between atoms: C_18  and  O_19
REMARK   10  A    between atoms: O_19  and  C_20
REMARK   11  A    between atoms: N_23  and  C_24
REMARK                            x       y       z     vdW  Elec       q    Type
REMARK                         _______ _______ _______ _____ _____    ______ ____
ROOT
ATOM      1  C   UNL     1       2.978   7.818  18.133  0.00  0.00    +0.000 C 
ATOM      2  O   UNL     1       4.046   8.341  17.819  0.00  0.00    +0.000 OA
ENDROOT
BRANCH   1   7
ATOM      3  C   UNL     1       0.000   9.758  22.140  0.00  0.00    +0.000 A 
ATOM      4  C   UNL     1       1.164   9.004  22.260  0.00  0.00    +0.000 A 
ATOM      5  C   UNL     1       1.843   8.546  21.124  0.00  0.00    +0.000 A 
ATOM      6  C   UNL     1       1.353   8.868  19.842  0.00  0.00    +0.000 A 
ATOM      7  C   UNL     1       1.805   8.592  18.512  0.00  0.00    +0.000 A 
ATOM      8  C   UNL     1       0.890   9.183  17.651  0.00  0.00    +0.000 A 
ATOM      9  N   UNL     1      -0.053   9.829  18.405  0.00  0.00    +0.000 N 
ATOM     10  C   UNL     1      -1.155  10.594  17.862  0.00  0.00    +0.000 C 
ATOM     11  C   UNL     1       0.197   9.648  19.745  0.00  0.00    +0.000 A 
ATOM     12  C   UNL     1      -0.496  10.104  20.881  0.00  0.00    +0.000 A 
BRANCH   3  14
ATOM     13  C   UNL     1      -1.482  11.240  23.227  0.00  0.00    +0.000 C 
ATOM     14  O   UNL     1      -0.563  10.155  23.326  0.00  0.00    +0.000 OA
ENDBRANCH   3  14
ENDBRANCH   1   7
BRANCH   1  15
ATOM     15  C   UNL     1       2.893   6.328  18.113  0.00  0.00    +0.000 A 
ATOM     16  C   UNL     1       3.778   5.621  17.299  0.00  0.00    +0.000 A 
ATOM     17  C   UNL     1       3.737   4.226  17.269  0.00  0.00    +0.000 A 
ATOM     18  C   UNL     1       2.774   3.529  18.037  0.00  0.00    +0.000 A 
ATOM     19  C   UNL     1       1.852   4.247  18.829  0.00  0.00    +0.000 A 
ATOM     20  C   UNL     1       1.923   5.644  18.854  0.00  0.00    +0.000 A 
BRANCH  17  21
ATOM     21  O   UNL     1       4.591   3.470  16.501  0.00  0.00    +0.000 OA
ATOM     22  C   UNL     1       5.838   4.070  16.165  0.00  0.00    +0.000 C 
ENDBRANCH  17  21
BRANCH  18  23
ATOM     23  O   UNL     1       2.783   2.160  17.882  0.00  0.00    +0.000 OA
ATOM     24  C   UNL     1       3.610   1.413  18.765  0.00  0.00    +0.000 C 
ENDBRANCH  18  23
BRANCH  19  25
ATOM     25  O   UNL     1       0.896   3.544  19.512  0.00  0.00    +0.000 OA
ATOM     26  C   UNL     1       1.134   3.235  20.881  0.00  0.00    +0.000 C 
ENDBRANCH  19  25
ENDBRANCH   1  15
TORSDOF 6
ENDMDL
MODEL 7
REMARK VINA RESULT:      -6.6      1.592      2.441
REMARK  Name = 
REMARK  11 active torsions:
REMARK  status: ('A' for Active; 'I' for Inactive)
REMARK    1  A    between atoms: C_1  and  O_2
REMARK    2  A    between atoms: O_2  and  C_3
REMARK    3  A    between atoms: C_7  and  C_8
REMARK    4  A    between atoms: C_8  and  C_10
REMARK    5  A    between atoms: C_12  and  O_13
REMARK    6  A    between atoms: O_13  and  C_14
REMARK    7  A    between atoms: C_15  and  O_16
REMARK    8  A    between atoms: O_16  and  C_17
REMARK    9  A    between atoms: C_18  and  O_19
REMARK   10  A    between atoms: O_19  and  C_20
REMARK   11  A    between atoms: N_23  and  C_24
REMARK                            x       y       z     vdW  Elec       q    Type
REMARK                         _______ _______ _______ _____ _____    ______ ____
ROOT
ATOM      1  C   UNL     1       2.689   7.955  17.927  0.00  0.00    +0.000 C 
ATOM      2  O   UNL     1       3.463   8.353  17.058  0.00  0.00    +0.000 OA
ENDROOT
BRANCH   1   7
ATOM      3  C   UNL     1       0.007   9.884  22.144  0.00  0.00    +0.000 A 
ATOM      4  C   UNL     1       1.164   9.111  22.178  0.00  0.00    +0.000 A 
ATOM      5  C   UNL     1       1.762   8.659  20.995  0.00  0.00    +0.000 A 
ATOM      6  C   UNL     1       1.195   9.005  19.751  0.00  0.00    +0.000 A 
ATOM      7  C   UNL     1       1.556   8.740  18.391  0.00  0.00    +0.000 A 
ATOM      8  C   UNL     1       0.596   9.356  17.600  0.00  0.00    +0.000 A 
ATOM      9  N   UNL     1      -0.286  10.005  18.420  0.00  0.00    +0.000 N 
ATOM     10  C   UNL     1      -1.409  10.794  17.960  0.00  0.00    +0.000 C 
ATOM     11  C   UNL     1       0.047   9.803  19.739  0.00  0.00    +0.000 A 
ATOM     12  C   UNL     1      -0.565  10.254  20.923  0.00  0.00    +0.000 A 
BRANCH   3  14
ATOM     13  C   UNL     1      -1.540  11.215  23.329  0.00  0.00    +0.000 C 
ATOM     14  O   UNL     1      -0.472  10.272  23.368  0.00  0.00    +0.000 OA
ENDBRANCH   3  14
ENDBRANCH   1   7
BRANCH   1  15
ATOM     15  C   UNL     1       2.932   6.606  18.517  0.00  0.00    +0.000 A 
ATOM     16  C   UNL     1       4.247   6.157  18.636  0.00  0.00    +0.000 A 
ATOM     17  C   UNL     1       4.511   4.907  19.198  0.00  0.00    +0.000 A 
ATOM     18  C   UNL     1       3.442   4.077  19.615  0.00  0.00    +0.000 A 
ATOM     19  C   UNL     1       2.110   4.515  19.456  0.00  0.00    +0.000 A 
ATOM     20  C   UNL     1       1.872   5.779  18.904  0.00  0.00    +0.000 A 
BRANCH  17  21
ATOM     21  O   UNL     1       5.784   4.413  19.358  0.00  0.00    +0.000 OA
ATOM     22  C   UNL     1       6.674   4.590  18.259  0.00  0.00    +0.000 C 
ENDBRANCH  17  21
BRANCH  18  23
ATOM     23  O   UNL     1       3.816   2.841  20.095  0.00  0.00    +0.000 OA
ATOM     24  C   UNL     1       3.947   1.791  19.145  0.00  0.00    +0.000 C 
ENDBRANCH  18  23
BRANCH  19  25
ATOM     25  O   UNL     1       1.098   3.664  19.814  0.00  0.00    +0.000 OA
ATOM     26  C   UNL     1       0.573   2.786  18.825  0.00  0.00    +0.000 C 
ENDBRANCH  19  25
ENDBRANCH   1  15
TORSDOF 6
ENDMDL
MODEL 8
REMARK VINA RESULT:      -6.6      1.703      1.945
REMARK  Name = 
REMARK  11 active torsions:
REMARK  status: ('A' for Active; 'I' for Inactive)
REMARK    1  A    between atoms: C_1  and  O_2
REMARK    2  A    between atoms: O_2  and  C_3
REMARK    3  A    between atoms: C_7  and  C_8
REMARK    4  A    between atoms: C_8  and  C_10
REMARK    5  A    between atoms: C_12  and  O_13
REMARK    6  A    between atoms: O_13  and  C_14
REMARK    7  A    between atoms: C_15  and  O_16
REMARK    8  A    between atoms: O_16  and  C_17
REMARK    9  A    between atoms: C_18  and  O_19
REMARK   10  A    between atoms: O_19  and  C_20
REMARK   11  A    between atoms: N_23  and  C_24
REMARK                            x       y       z     vdW  Elec       q    Type
REMARK                         _______ _______ _______ _____ _____    ______ ____
ROOT
ATOM      1  C   UNL     1       2.042   8.900  18.152  0.00  0.00    +0.000 C 
ATOM      2  O   UNL     1       2.430   9.405  17.100  0.00  0.00    +0.000 OA
ENDROOT
BRANCH   1   7
ATOM      3  C   UNL     1      -2.821  11.125  18.463  0.00  0.00    +0.000 A 
ATOM      4  C   UNL     1      -2.222  10.594  17.324  0.00  0.00    +0.000 A 
ATOM      5  C   UNL     1      -0.933  10.049  17.378  0.00  0.00    +0.000 A 
ATOM      6  C   UNL     1      -0.238  10.022  18.605  0.00  0.00    +0.000 A 
ATOM      7  C   UNL     1       1.045   9.529  19.005  0.00  0.00    +0.000 A 
ATOM      8  C   UNL     1       1.166   9.794  20.362  0.00  0.00    +0.000 A 
ATOM      9  N   UNL     1       0.005  10.378  20.791  0.00  0.00    +0.000 N 
ATOM     10  C   UNL     1      -0.262  10.768  22.159  0.00  0.00    +0.000 C 
ATOM     11  C   UNL     1      -0.868  10.539  19.741  0.00  0.00    +0.000 A 
ATOM     12  C   UNL     1      -2.159  11.096  19.694  0.00  0.00    +0.000 A 
BRANCH   3  14
ATOM     13  C   UNL     1      -4.538  11.646  16.929  0.00  0.00    +0.000 C 
ATOM     14  O   UNL     1      -4.088  11.617  18.281  0.00  0.00    +0.000 OA
ENDBRANCH   3  14
ENDBRANCH   1   7
BRANCH   1  15
ATOM     15  C   UNL     1       2.619   7.584  18.553  0.00  0.00    +0.000 A 
ATOM     16  C   UNL     1       3.705   7.086  17.834  0.00  0.00    +0.000 A 
ATOM     17  C   UNL     1       4.281   5.866  18.193  0.00  0.00    +0.000 A 
ATOM     18  C   UNL     1       3.740   5.115  19.265  0.00  0.00    +0.000 A 
ATOM     19  C   UNL     1       2.615   5.601  19.965  0.00  0.00    +0.000 A 
ATOM     20  C   UNL     1       2.066   6.834  19.596  0.00  0.00    +0.000 A 
BRANCH  17  21
ATOM     21  O   UNL     1       5.362   5.327  17.536  0.00  0.00    +0.000 OA
ATOM     22  C   UNL     1       5.259   5.236  16.118  0.00  0.00    +0.000 C 
ENDBRANCH  17  21
BRANCH  18  23
ATOM     23  O   UNL     1       4.346   3.899  19.489  0.00  0.00    +0.000 OA
ATOM     24  C   UNL     1       3.837   2.780  18.775  0.00  0.00    +0.000 C 
ENDBRANCH  18  23
BRANCH  19  25
ATOM     25  O   UNL     1       2.080   4.822  20.957  0.00  0.00    +0.000 OA
ATOM     26  C   UNL     1       1.012   3.944  20.623  0.00  0.00    +0.000 C 
ENDBRANCH  19  25
ENDBRANCH   1  15
TORSDOF 6
ENDMDL
MODEL 9
REMARK VINA RESULT:      -6.6      2.062      7.971
REMARK  Name = 
REMARK  11 active torsions:
REMARK  status: ('A' for Active; 'I' for Inactive)
REMARK    1  A    between atoms: C_1  and  O_2
REMARK    2  A    between atoms: O_2  and  C_3
REMARK    3  A    between atoms: C_7  and  C_8
REMARK    4  A    between atoms: C_8  and  C_10
REMARK    5  A    between atoms: C_12  and  O_13
REMARK    6  A    between atoms: O_13  and  C_14
REMARK    7  A    between atoms: C_15  and  O_16
REMARK    8  A    between atoms: O_16  and  C_17
REMARK    9  A    between atoms: C_18  and  O_19
REMARK   10  A    between atoms: O_19  and  C_20
REMARK   11  A    between atoms: N_23  and  C_24
REMARK                            x       y       z     vdW  Elec       q    Type
REMARK                         _______ _______ _______ _____ _____    ______ ____
ROOT
ATOM      1  C   UNL     1       1.906   9.009  18.278  0.00  0.00    +0.000 C 
ATOM      2  O   UNL     1       2.272   9.566  17.244  0.00  0.00    +0.000 OA
ENDROOT
BRANCH   1   7
ATOM      3  C   UNL     1       5.277   4.976  17.248  0.00  0.00    +0.000 A 
ATOM      4  C   UNL     1       5.165   6.167  16.537  0.00  0.00    +0.000 A 
ATOM      5  C   UNL     1       4.229   7.140  16.908  0.00  0.00    +0.000 A 
ATOM      6  C   UNL     1       3.398   6.918  18.026  0.00  0.00    +0.000 A 
ATOM      7  C   UNL     1       2.383   7.693  18.673  0.00  0.00    +0.000 A 
ATOM      8  C   UNL     1       1.922   6.930  19.738  0.00  0.00    +0.000 A 
ATOM      9  N   UNL     1       2.642   5.766  19.777  0.00  0.00    +0.000 N 
ATOM     10  C   UNL     1       2.474   4.729  20.772  0.00  0.00    +0.000 C 
ATOM     11  C   UNL     1       3.544   5.726  18.740  0.00  0.00    +0.000 A 
ATOM     12  C   UNL     1       4.476   4.739  18.369  0.00  0.00    +0.000 A 
BRANCH   3  14
ATOM     13  C   UNL     1       6.153   3.786  15.407  0.00  0.00    +0.000 C 
ATOM     14  O   UNL     1       6.238   4.112  16.792  0.00  0.00    +0.000 OA
ENDBRANCH   3  14
ENDBRANCH   1   7
BRANCH   1  15
ATOM     15  C   UNL     1       0.937   9.727  19.156  0.00  0.00    +0.000 A 
ATOM     16  C   UNL     1      -0.141  10.384  18.562  0.00  0.00    +0.000 A 
ATOM     17  C   UNL     1      -1.076  11.052  19.355  0.00  0.00    +0.000 A 
ATOM     18  C   UNL     1      -0.911  11.095  20.761  0.00  0.00    +0.000 A 
ATOM     19  C   UNL     1       0.202  10.466  21.357  0.00  0.00    +0.000 A 
ATOM     20  C   UNL     1       1.117   9.789  20.542  0.00  0.00    +0.000 A 
BRANCH  17  21
ATOM     21  O   UNL     1      -2.168  11.704  18.834  0.00  0.00    +0.000 OA
ATOM     22  C   UNL     1      -2.468  11.441  17.466  0.00  0.00    +0.000 C 
ENDBRANCH  17  21
BRANCH  18  23
ATOM     23  O   UNL     1      -1.856  11.835  21.437  0.00  0.00    +0.000 OA
ATOM     24  C   UNL     1      -1.502  13.164  21.796  0.00  0.00    +0.000 C 
ENDBRANCH  18  23
BRANCH  19  25
ATOM     25  O   UNL     1       0.364  10.578  22.712  0.00  0.00    +0.000 OA
ATOM     26  C   UNL     1      -0.100   9.515  23.538  0.00  0.00    +0.000 C 
ENDBRANCH  19  25
ENDBRANCH   1  15
TORSDOF 6
ENDMDL
