MODEL 1
REMARK VINA RESULT:      -7.4      0.000      0.000
REMARK  Name = 
REMARK  9 active torsions:
REMARK  status: ('A' for Active; 'I' for Inactive)
REMARK    1  A    between atoms: C_1  and  C_2
REMARK    2  A    between atoms: C_2  and  C_3
REMARK    3  A    between atoms: C_3  and  C_4
REMARK    4  A    between atoms: C_4  and  C_5
REMARK    5  A    between atoms: C_5  and  C_6
REMARK    6  A    between atoms: C_6  and  C_7
REMARK    7  A    between atoms: C_7  and  C_8
REMARK    8  A    between atoms: C_12  and  C_13
REMARK    9  A    between atoms: N_17  and  C_18
REMARK                            x       y       z     vdW  Elec       q    Type
REMARK                         _______ _______ _______ _____ _____    ______ ____
ROOT
ATOM      1  C   UNL     1       6.064   5.048  16.863  0.00  0.00    +0.000 A 
ATOM      2  N   UNL     1       7.287   5.576  17.031  0.00  0.00    +0.000 NA
ATOM      3  S   UNL     1       7.616   5.491  18.654  0.00  0.00    +0.000 S 
ATOM      4  N   UNL     1       6.222   4.760  19.184  0.00  0.00    +0.000 NA
ATOM      5  C   UNL     1       5.453   4.589  18.100  0.00  0.00    +0.000 A 
ENDROOT
BRANCH   5   6
ATOM      6  C   UNL     1       4.131   4.045  18.248  0.00  0.00    +0.000 C 
ATOM      7  C   UNL     1       3.793   2.831  17.787  0.00  0.00    +0.000 C 
ATOM      8  C   UNL     1       2.369   2.388  17.708  0.00  0.00    +0.000 C 
ATOM      9  C   UNL     1       1.327   3.323  18.351  0.00  0.00    +0.000 C 
ATOM     10  N   UNL     1       1.789   4.485  19.116  0.00  0.00    +0.000 NA
ATOM     11  C   UNL     1       1.643   4.312  20.552  0.00  0.00    +0.000 C 
ATOM     12  C   UNL     1       3.092   5.034  18.714  0.00  0.00    +0.000 C 
ENDBRANCH   5   6
BRANCH   1  13
ATOM     13  C   UNL     1       5.495   5.002  15.464  0.00  0.00    +0.000 C 
BRANCH  13  14
ATOM     14  C   UNL     1       5.935   3.744  14.692  0.00  0.00    +0.000 C 
BRANCH  14  15
ATOM     15  C   UNL     1       6.656   4.029  13.379  0.00  0.00    +0.000 C 
BRANCH  15  16
ATOM     16  C   UNL     1       5.955   3.281  12.235  0.00  0.00    +0.000 C 
BRANCH  16  17
ATOM     17  C   UNL     1       4.566   3.822  11.903  0.00  0.00    +0.000 C 
BRANCH  17  19
ATOM     18  C   UNL     1       3.072   3.809   9.877  0.00  0.00    +0.000 C 
ATOM     19  C   UNL     1       3.820   2.959  10.888  0.00  0.00    +0.000 C 
ENDBRANCH  17  19
ENDBRANCH  16  17
ENDBRANCH  15  16
ENDBRANCH  14  15
ENDBRANCH  13  14
ENDBRANCH   1  13
TORSDOF 7
ENDMDL
MODEL 2
REMARK VINA RESULT:      -7.1      1.141      1.569
REMARK  Name = 
REMARK  9 active torsions:
REMARK  status: ('A' for Active; 'I' for Inactive)
REMARK    1  A    between atoms: C_1  and  C_2
REMARK    2  A    between atoms: C_2  and  C_3
REMARK    3  A    between atoms: C_3  and  C_4
REMARK    4  A    between atoms: C_4  and  C_5
REMARK    5  A    between atoms: C_5  and  C_6
REMARK    6  A    between atoms: C_6  and  C_7
REMARK    7  A    between atoms: C_7  and  C_8
REMARK    8  A    between atoms: C_12  and  C_13
REMARK    9  A    between atoms: N_17  and  C_18
REMARK                            x       y       z     vdW  Elec       q    Type
REMARK                         _______ _______ _______ _____ _____    ______ ____
ROOT
ATOM      1  C   UNL     1       6.170   5.677  16.448  0.00  0.00    +0.000 A 
ATOM      2  N   UNL     1       7.315   6.374  16.496  0.00  0.00    +0.000 NA
ATOM      3  S   UNL     1       7.678   6.572  18.102  0.00  0.00    +0.000 S 
ATOM      4  N   UNL     1       6.400   5.756  18.779  0.00  0.00    +0.000 NA
ATOM      5  C   UNL     1       5.643   5.330  17.758  0.00  0.00    +0.000 A 
ENDROOT
BRANCH   5   6
ATOM      6  C   UNL     1       4.407   4.650  18.029  0.00  0.00    +0.000 C 
ATOM      7  C   UNL     1       3.221   5.106  17.596  0.00  0.00    +0.000 C 
ATOM      8  C   UNL     1       1.931   4.548  18.100  0.00  0.00    +0.000 C 
ATOM      9  C   UNL     1       2.034   3.303  19.003  0.00  0.00    +0.000 C 
ATOM     10  N   UNL     1       3.340   2.663  19.187  0.00  0.00    +0.000 NA
ATOM     11  C   UNL     1       3.464   1.411  18.459  0.00  0.00    +0.000 C 
ATOM     12  C   UNL     1       4.506   3.546  19.051  0.00  0.00    +0.000 C 
ENDBRANCH   5   6
BRANCH   1  13
ATOM     13  C   UNL     1       5.589   5.353  15.091  0.00  0.00    +0.000 C 
BRANCH  13  14
ATOM     14  C   UNL     1       5.827   3.886  14.685  0.00  0.00    +0.000 C 
BRANCH  14  15
ATOM     15  C   UNL     1       6.216   3.691  13.223  0.00  0.00    +0.000 C 
BRANCH  15  16
ATOM     16  C   UNL     1       4.994   3.946  12.329  0.00  0.00    +0.000 C 
BRANCH  16  17
ATOM     17  C   UNL     1       4.697   2.812  11.350  0.00  0.00    +0.000 C 
BRANCH  17  19
ATOM     18  C   UNL     1       3.183   4.169   9.864  0.00  0.00    +0.000 C 
ATOM     19  C   UNL     1       3.310   2.921  10.719  0.00  0.00    +0.000 C 
ENDBRANCH  17  19
ENDBRANCH  16  17
ENDBRANCH  15  16
ENDBRANCH  14  15
ENDBRANCH  13  14
ENDBRANCH   1  13
TORSDOF 7
ENDMDL
MODEL 3
REMARK VINA RESULT:      -7.1      0.849      1.136
REMARK  Name = 
REMARK  9 active torsions:
REMARK  status: ('A' for Active; 'I' for Inactive)
REMARK    1  A    between atoms: C_1  and  C_2
REMARK    2  A    between atoms: C_2  and  C_3
REMARK    3  A    between atoms: C_3  and  C_4
REMARK    4  A    between atoms: C_4  and  C_5
REMARK    5  A    between atoms: C_5  and  C_6
REMARK    6  A    between atoms: C_6  and  C_7
REMARK    7  A    between atoms: C_7  and  C_8
REMARK    8  A    between atoms: C_12  and  C_13
REMARK    9  A    between atoms: N_17  and  C_18
REMARK                            x       y       z     vdW  Elec       q    Type
REMARK                         _______ _______ _______ _____ _____    ______ ____
ROOT
ATOM      1  C   UNL     1       6.093   6.056  17.540  0.00  0.00    +0.000 A 
ATOM      2  N   UNL     1       7.324   6.497  17.839  0.00  0.00    +0.000 NA
ATOM      3  S   UNL     1       7.740   5.791  19.280  0.00  0.00    +0.000 S 
ATOM      4  N   UNL     1       6.375   4.886  19.552  0.00  0.00    +0.000 NA
ATOM      5  C   UNL     1       5.547   5.139  18.528  0.00  0.00    +0.000 A 
ENDROOT
BRANCH   5   6
ATOM      6  C   UNL     1       4.234   4.556  18.519  0.00  0.00    +0.000 C 
ATOM      7  C   UNL     1       3.923   3.486  17.772  0.00  0.00    +0.000 C 
ATOM      8  C   UNL     1       2.509   3.054  17.564  0.00  0.00    +0.000 C 
ATOM      9  C   UNL     1       1.442   3.791  18.398  0.00  0.00    +0.000 C 
ATOM     10  N   UNL     1       1.874   4.739  19.429  0.00  0.00    +0.000 NA
ATOM     11  C   UNL     1       1.713   4.221  20.778  0.00  0.00    +0.000 C 
ATOM     12  C   UNL     1       3.172   5.388  19.193  0.00  0.00    +0.000 C 
ENDBRANCH   5   6
BRANCH   1  13
ATOM     13  C   UNL     1       5.448   6.550  16.266  0.00  0.00    +0.000 C 
BRANCH  13  14
ATOM     14  C   UNL     1       5.342   5.447  15.195  0.00  0.00    +0.000 C 
BRANCH  14  15
ATOM     15  C   UNL     1       6.651   4.722  14.903  0.00  0.00    +0.000 C 
BRANCH  15  16
ATOM     16  C   UNL     1       6.582   4.081  13.509  0.00  0.00    +0.000 C 
BRANCH  16  17
ATOM     17  C   UNL     1       5.168   3.703  13.072  0.00  0.00    +0.000 C 
BRANCH  17  19
ATOM     18  C   UNL     1       3.841   3.269  10.976  0.00  0.00    +0.000 C 
ATOM     19  C   UNL     1       5.135   2.992  11.721  0.00  0.00    +0.000 C 
ENDBRANCH  17  19
ENDBRANCH  16  17
ENDBRANCH  15  16
ENDBRANCH  14  15
ENDBRANCH  13  14
ENDBRANCH   1  13
TORSDOF 7
ENDMDL
MODEL 4
REMARK VINA RESULT:      -7.0      0.996      1.750
REMARK  Name = 
REMARK  9 active torsions:
REMARK  status: ('A' for Active; 'I' for Inactive)
REMARK    1  A    between atoms: C_1  and  C_2
REMARK    2  A    between atoms: C_2  and  C_3
REMARK    3  A    between atoms: C_3  and  C_4
REMARK    4  A    between atoms: C_4  and  C_5
REMARK    5  A    between atoms: C_5  and  C_6
REMARK    6  A    between atoms: C_6  and  C_7
REMARK    7  A    between atoms: C_7  and  C_8
REMARK    8  A    between atoms: C_12  and  C_13
REMARK    9  A    between atoms: N_17  and  C_18
REMARK                            x       y       z     vdW  Elec       q    Type
REMARK                         _______ _______ _______ _____ _____    ______ ____
ROOT
ATOM      1  C   UNL     1       6.063   4.943  17.451  0.00  0.00    +0.000 A 
ATOM      2  N   UNL     1       7.342   5.326  17.313  0.00  0.00    +0.000 NA
ATOM      3  S   UNL     1       7.900   5.662  18.838  0.00  0.00    +0.000 S 
ATOM      4  N   UNL     1       6.536   5.308  19.718  0.00  0.00    +0.000 NA
ATOM      5  C   UNL     1       5.601   4.942  18.830  0.00  0.00    +0.000 A 
ENDROOT
BRANCH   5   6
ATOM      6  C   UNL     1       4.270   4.647  19.285  0.00  0.00    +0.000 C 
ATOM      7  C   UNL     1       3.397   5.605  19.632  0.00  0.00    +0.000 C 
ATOM      8  C   UNL     1       2.125   5.288  20.348  0.00  0.00    +0.000 C 
ATOM      9  C   UNL     1       1.785   3.793  20.503  0.00  0.00    +0.000 C 
ATOM     10  N   UNL     1       2.622   2.798  19.827  0.00  0.00    +0.000 NA
ATOM     11  C   UNL     1       1.978   2.212  18.663  0.00  0.00    +0.000 C 
ATOM     12  C   UNL     1       4.019   3.193  19.597  0.00  0.00    +0.000 C 
ENDBRANCH   5   6
BRANCH   1  13
ATOM     13  C   UNL     1       5.290   4.579  16.205  0.00  0.00    +0.000 C 
BRANCH  13  14
ATOM     14  C   UNL     1       5.940   5.139  14.926  0.00  0.00    +0.000 C 
BRANCH  14  15
ATOM     15  C   UNL     1       6.291   4.084  13.883  0.00  0.00    +0.000 C 
BRANCH  15  16
ATOM     16  C   UNL     1       5.003   3.561  13.228  0.00  0.00    +0.000 C 
BRANCH  16  17
ATOM     17  C   UNL     1       5.109   3.382  11.715  0.00  0.00    +0.000 C 
BRANCH  17  19
ATOM     18  C   UNL     1       3.274   3.995  10.103  0.00  0.00    +0.000 C 
ATOM     19  C   UNL     1       3.790   2.950  11.076  0.00  0.00    +0.000 C 
ENDBRANCH  17  19
ENDBRANCH  16  17
ENDBRANCH  15  16
ENDBRANCH  14  15
ENDBRANCH  13  14
ENDBRANCH   1  13
TORSDOF 7
ENDMDL
MODEL 5
REMARK VINA RESULT:      -7.0      1.336      2.155
REMARK  Name = 
REMARK  9 active torsions:
REMARK  status: ('A' for Active; 'I' for Inactive)
REMARK    1  A    between atoms: C_1  and  C_2
REMARK    2  A    between atoms: C_2  and  C_3
REMARK    3  A    between atoms: C_3  and  C_4
REMARK    4  A    between atoms: C_4  and  C_5
REMARK    5  A    between atoms: C_5  and  C_6
REMARK    6  A    between atoms: C_6  and  C_7
REMARK    7  A    between atoms: C_7  and  C_8
REMARK    8  A    between atoms: C_12  and  C_13
REMARK    9  A    between atoms: N_17  and  C_18
REMARK                            x       y       z     vdW  Elec       q    Type
REMARK                         _______ _______ _______ _____ _____    ______ ____
ROOT
ATOM      1  C   UNL     1       5.741   4.866  17.486  0.00  0.00    +0.000 A 
ATOM      2  N   UNL     1       6.999   5.277  17.267  0.00  0.00    +0.000 NA
ATOM      3  S   UNL     1       7.639   5.647  18.751  0.00  0.00    +0.000 S 
ATOM      4  N   UNL     1       6.339   5.273  19.716  0.00  0.00    +0.000 NA
ATOM      5  C   UNL     1       5.362   4.873  18.890  0.00  0.00    +0.000 A 
ENDROOT
BRANCH   5   6
ATOM      6  C   UNL     1       4.068   4.553  19.427  0.00  0.00    +0.000 C 
ATOM      7  C   UNL     1       3.194   5.494  19.814  0.00  0.00    +0.000 C 
ATOM      8  C   UNL     1       1.975   5.157  20.609  0.00  0.00    +0.000 C 
ATOM      9  C   UNL     1       1.681   3.657  20.803  0.00  0.00    +0.000 C 
ATOM     10  N   UNL     1       2.502   2.672  20.091  0.00  0.00    +0.000 NA
ATOM     11  C   UNL     1       1.804   2.055  18.976  0.00  0.00    +0.000 C 
ATOM     12  C   UNL     1       3.872   3.098  19.772  0.00  0.00    +0.000 C 
ENDBRANCH   5   6
BRANCH   1  13
ATOM     13  C   UNL     1       4.904   4.467  16.293  0.00  0.00    +0.000 C 
BRANCH  13  14
ATOM     14  C   UNL     1       5.578   4.827  14.955  0.00  0.00    +0.000 C 
BRANCH  14  15
ATOM     15  C   UNL     1       6.309   3.669  14.286  0.00  0.00    +0.000 C 
BRANCH  15  16
ATOM     16  C   UNL     1       6.388   3.919  12.772  0.00  0.00    +0.000 C 
BRANCH  16  17
ATOM     17  C   UNL     1       5.277   3.239  11.975  0.00  0.00    +0.000 C 
BRANCH  17  19
ATOM     18  C   UNL     1       7.161   1.814  11.103  0.00  0.00    +0.000 C 
ATOM     19  C   UNL     1       5.683   1.866  11.444  0.00  0.00    +0.000 C 
ENDBRANCH  17  19
ENDBRANCH  16  17
ENDBRANCH  15  16
ENDBRANCH  14  15
ENDBRANCH  13  14
ENDBRANCH   1  13
TORSDOF 7
ENDMDL
MODEL 6
REMARK VINA RESULT:      -6.9      1.699      2.618
REMARK  Name = 
REMARK  9 active torsions:
REMARK  status: ('A' for Active; 'I' for Inactive)
REMARK    1  A    between atoms: C_1  and  C_2
REMARK    2  A    between atoms: C_2  and  C_3
REMARK    3  A    between atoms: C_3  and  C_4
REMARK    4  A    between atoms: C_4  and  C_5
REMARK    5  A    between atoms: C_5  and  C_6
REMARK    6  A    between atoms: C_6  and  C_7
REMARK    7  A    between atoms: C_7  and  C_8
REMARK    8  A    between atoms: C_12  and  C_13
REMARK    9  A    between atoms: N_17  and  C_18
REMARK                            x       y       z     vdW  Elec       q    Type
REMARK                         _______ _______ _______ _____ _____    ______ ____
ROOT
ATOM      1  C   UNL     1       5.855   6.173  17.818  0.00  0.00    +0.000 A 
ATOM      2  N   UNL     1       7.134   6.576  17.784  0.00  0.00    +0.000 NA
ATOM      3  S   UNL     1       7.872   5.913  19.112  0.00  0.00    +0.000 S 
ATOM      4  N   UNL     1       6.590   5.076  19.756  0.00  0.00    +0.000 NA
ATOM      5  C   UNL     1       5.543   5.321  18.954  0.00  0.00    +0.000 A 
ENDROOT
BRANCH   5   6
ATOM      6  C   UNL     1       4.251   4.793  19.297  0.00  0.00    +0.000 C 
ATOM      7  C   UNL     1       3.290   5.543  19.858  0.00  0.00    +0.000 C 
ATOM      8  C   UNL     1       2.062   4.933  20.449  0.00  0.00    +0.000 C 
ATOM      9  C   UNL     1       1.871   3.421  20.218  0.00  0.00    +0.000 C 
ATOM     10  N   UNL     1       2.798   2.715  19.328  0.00  0.00    +0.000 NA
ATOM     11  C   UNL     1       2.206   2.381  18.043  0.00  0.00    +0.000 C 
ATOM     12  C   UNL     1       4.147   3.290  19.229  0.00  0.00    +0.000 C 
ENDBRANCH   5   6
BRANCH   1  13
ATOM     13  C   UNL     1       4.931   6.641  16.718  0.00  0.00    +0.000 C 
BRANCH  13  14
ATOM     14  C   UNL     1       5.281   6.018  15.353  0.00  0.00    +0.000 C 
BRANCH  14  15
ATOM     15  C   UNL     1       5.267   4.494  15.332  0.00  0.00    +0.000 C 
BRANCH  15  16
ATOM     16  C   UNL     1       6.473   3.982  14.530  0.00  0.00    +0.000 C 
BRANCH  16  17
ATOM     17  C   UNL     1       6.133   3.568  13.099  0.00  0.00    +0.000 C 
BRANCH  17  19
ATOM     18  C   UNL     1       7.951   5.260  12.688  0.00  0.00    +0.000 C 
ATOM     19  C   UNL     1       7.052   4.210  12.062  0.00  0.00    +0.000 C 
ENDBRANCH  17  19
ENDBRANCH  16  17
ENDBRANCH  15  16
ENDBRANCH  14  15
ENDBRANCH  13  14
ENDBRANCH   1  13
TORSDOF 7
ENDMDL
MODEL 7
REMARK VINA RESULT:      -6.8      3.995      6.427
REMARK  Name = 
REMARK  9 active torsions:
REMARK  status: ('A' for Active; 'I' for Inactive)
REMARK    1  A    between atoms: C_1  and  C_2
REMARK    2  A    between atoms: C_2  and  C_3
REMARK    3  A    between atoms: C_3  and  C_4
REMARK    4  A    between atoms: C_4  and  C_5
REMARK    5  A    between atoms: C_5  and  C_6
REMARK    6  A    between atoms: C_6  and  C_7
REMARK    7  A    between atoms: C_7  and  C_8
REMARK    8  A    between atoms: C_12  and  C_13
REMARK    9  A    between atoms: N_17  and  C_18
REMARK                            x       y       z     vdW  Elec       q    Type
REMARK                         _______ _______ _______ _____ _____    ______ ____
ROOT
ATOM      1  C   UNL     1       6.643   5.589  16.546  0.00  0.00    +0.000 A 
ATOM      2  N   UNL     1       7.477   5.510  15.497  0.00  0.00    +0.000 NA
ATOM      3  S   UNL     1       6.673   4.661  14.321  0.00  0.00    +0.000 S 
ATOM      4  N   UNL     1       5.234   4.392  15.104  0.00  0.00    +0.000 NA
ATOM      5  C   UNL     1       5.361   4.940  16.321  0.00  0.00    +0.000 A 
ENDROOT
BRANCH   5   6
ATOM      6  C   UNL     1       4.296   4.801  17.275  0.00  0.00    +0.000 C 
ATOM      7  C   UNL     1       3.494   5.821  17.617  0.00  0.00    +0.000 C 
ATOM      8  C   UNL     1       2.574   5.739  18.791  0.00  0.00    +0.000 C 
ATOM      9  C   UNL     1       2.461   4.362  19.474  0.00  0.00    +0.000 C 
ATOM     10  N   UNL     1       3.124   3.207  18.862  0.00  0.00    +0.000 NA
ATOM     11  C   UNL     1       2.194   2.297  18.215  0.00  0.00    +0.000 C 
ATOM     12  C   UNL     1       4.315   3.511  18.056  0.00  0.00    +0.000 C 
ENDBRANCH   5   6
BRANCH   1  13
ATOM     13  C   UNL     1       7.122   6.311  17.784  0.00  0.00    +0.000 C 
BRANCH  13  14
ATOM     14  C   UNL     1       7.535   7.766  17.492  0.00  0.00    +0.000 C 
BRANCH  14  15
ATOM     15  C   UNL     1       8.470   8.377  18.531  0.00  0.00    +0.000 C 
BRANCH  15  16
ATOM     16  C   UNL     1       8.722   9.853  18.188  0.00  0.00    +0.000 C 
BRANCH  16  17
ATOM     17  C   UNL     1       9.485  10.617  19.269  0.00  0.00    +0.000 C 
BRANCH  17  19
ATOM     18  C   UNL     1      11.809  11.544  18.990  0.00  0.00    +0.000 C 
ATOM     19  C   UNL     1      10.333  11.754  18.705  0.00  0.00    +0.000 C 
ENDBRANCH  17  19
ENDBRANCH  16  17
ENDBRANCH  15  16
ENDBRANCH  14  15
ENDBRANCH  13  14
ENDBRANCH   1  13
TORSDOF 7
ENDMDL
MODEL 8
REMARK VINA RESULT:      -6.7      4.212      6.579
REMARK  Name = 
REMARK  9 active torsions:
REMARK  status: ('A' for Active; 'I' for Inactive)
REMARK    1  A    between atoms: C_1  and  C_2
REMARK    2  A    between atoms: C_2  and  C_3
REMARK    3  A    between atoms: C_3  and  C_4
REMARK    4  A    between atoms: C_4  and  C_5
REMARK    5  A    between atoms: C_5  and  C_6
REMARK    6  A    between atoms: C_6  and  C_7
REMARK    7  A    between atoms: C_7  and  C_8
REMARK    8  A    between atoms: C_12  and  C_13
REMARK    9  A    between atoms: N_17  and  C_18
REMARK                            x       y       z     vdW  Elec       q    Type
REMARK                         _______ _______ _______ _____ _____    ______ ____
ROOT
ATOM      1  C   UNL     1       6.789   5.943  16.772  0.00  0.00    +0.000 A 
ATOM      2  N   UNL     1       7.571   5.467  15.791  0.00  0.00    +0.000 NA
ATOM      3  S   UNL     1       6.561   4.742  14.694  0.00  0.00    +0.000 S 
ATOM      4  N   UNL     1       5.099   5.033  15.426  0.00  0.00    +0.000 NA
ATOM      5  C   UNL     1       5.373   5.686  16.565  0.00  0.00    +0.000 A 
ENDROOT
BRANCH   5   6
ATOM      6  C   UNL     1       4.304   6.011  17.468  0.00  0.00    +0.000 C 
ATOM      7  C   UNL     1       3.650   7.182  17.422  0.00  0.00    +0.000 C 
ATOM      8  C   UNL     1       2.734   7.615  18.519  0.00  0.00    +0.000 C 
ATOM      9  C   UNL     1       2.440   6.571  19.614  0.00  0.00    +0.000 C 
ATOM     10  N   UNL     1       2.936   5.203  19.445  0.00  0.00    +0.000 NA
ATOM     11  C   UNL     1       1.887   4.259  19.098  0.00  0.00    +0.000 C 
ATOM     12  C   UNL     1       4.153   5.063  18.632  0.00  0.00    +0.000 C 
ENDBRANCH   5   6
BRANCH   1  13
ATOM     13  C   UNL     1       7.450   6.656  17.928  0.00  0.00    +0.000 C 
BRANCH  13  14
ATOM     14  C   UNL     1       7.730   8.140  17.621  0.00  0.00    +0.000 C 
BRANCH  14  15
ATOM     15  C   UNL     1       8.668   8.823  18.610  0.00  0.00    +0.000 C 
BRANCH  15  16
ATOM     16  C   UNL     1       8.891  10.282  18.181  0.00  0.00    +0.000 C 
BRANCH  16  17
ATOM     17  C   UNL     1       9.485  11.164  19.277  0.00  0.00    +0.000 C 
BRANCH  17  19
ATOM     18  C   UNL     1      11.253  12.150  17.779  0.00  0.00    +0.000 C 
ATOM     19  C   UNL     1      10.977  11.425  19.084  0.00  0.00    +0.000 C 
ENDBRANCH  17  19
ENDBRANCH  16  17
ENDBRANCH  15  16
ENDBRANCH  14  15
ENDBRANCH  13  14
ENDBRANCH   1  13
TORSDOF 7
ENDMDL
MODEL 9
REMARK VINA RESULT:      -6.7      0.796      1.067
REMARK  Name = 
REMARK  9 active torsions:
REMARK  status: ('A' for Active; 'I' for Inactive)
REMARK    1  A    between atoms: C_1  and  C_2
REMARK    2  A    between atoms: C_2  and  C_3
REMARK    3  A    between atoms: C_3  and  C_4
REMARK    4  A    between atoms: C_4  and  C_5
REMARK    5  A    between atoms: C_5  and  C_6
REMARK    6  A    between atoms: C_6  and  C_7
REMARK    7  A    between atoms: C_7  and  C_8
REMARK    8  A    between atoms: C_12  and  C_13
REMARK    9  A    between atoms: N_17  and  C_18
REMARK                            x       y       z     vdW  Elec       q    Type
REMARK                         _______ _______ _______ _____ _____    ______ ____
ROOT
ATOM      1  C   UNL     1       6.291   4.383  17.018  0.00  0.00    +0.000 A 
ATOM      2  N   UNL     1       7.496   4.969  17.084  0.00  0.00    +0.000 NA
ATOM      3  S   UNL     1       7.657   5.539  18.633  0.00  0.00    +0.000 S 
ATOM      4  N   UNL     1       6.208   5.035  19.268  0.00  0.00    +0.000 NA
ATOM      5  C   UNL     1       5.551   4.429  18.268  0.00  0.00    +0.000 A 
ENDROOT
BRANCH   5   6
ATOM      6  C   UNL     1       4.214   3.949  18.488  0.00  0.00    +0.000 C 
ATOM      7  C   UNL     1       3.743   2.834  17.910  0.00  0.00    +0.000 C 
ATOM      8  C   UNL     1       2.289   2.491  17.930  0.00  0.00    +0.000 C 
ATOM      9  C   UNL     1       1.390   3.388  18.804  0.00  0.00    +0.000 C 
ATOM     10  N   UNL     1       2.012   4.401  19.661  0.00  0.00    +0.000 NA
ATOM     11  C   UNL     1       1.999   4.038  21.068  0.00  0.00    +0.000 C 
ATOM     12  C   UNL     1       3.304   4.923  19.194  0.00  0.00    +0.000 C 
ENDBRANCH   5   6
BRANCH   1  13
ATOM     13  C   UNL     1       5.866   3.774  15.701  0.00  0.00    +0.000 C 
BRANCH  13  14
ATOM     14  C   UNL     1       5.946   4.779  14.536  0.00  0.00    +0.000 C 
BRANCH  14  15
ATOM     15  C   UNL     1       7.162   4.604  13.634  0.00  0.00    +0.000 C 
BRANCH  15  16
ATOM     16  C   UNL     1       6.698   4.292  12.203  0.00  0.00    +0.000 C 
BRANCH  16  17
ATOM     17  C   UNL     1       6.806   2.815  11.827  0.00  0.00    +0.000 C 
BRANCH  17  19
ATOM     18  C   UNL     1       4.359   3.214  11.390  0.00  0.00    +0.000 C 
ATOM     19  C   UNL     1       5.448   2.170  11.560  0.00  0.00    +0.000 C 
ENDBRANCH  17  19
ENDBRANCH  16  17
ENDBRANCH  15  16
ENDBRANCH  14  15
ENDBRANCH  13  14
ENDBRANCH   1  13
TORSDOF 7
ENDMDL
