MODEL 1
REMARK VINA RESULT:      -6.3      0.000      0.000
REMARK  Name = 
REMARK  9 active torsions:
REMARK  status: ('A' for Active; 'I' for Inactive)
REMARK    1  A    between atoms: C_1  and  C_2
REMARK    2  A    between atoms: C_2  and  N_3
REMARK    3  A    between atoms: N_3  and  C_4
REMARK    4  A    between atoms: N_3  and  S_6
REMARK    5  A    between atoms: C_4  and  C_5
REMARK    6  A    between atoms: S_6  and  N_9
REMARK    7  A    between atoms: N_11  and  C_12
REMARK    8  A    between atoms: C_15  and  C_16
REMARK    9  A    between atoms: C_22  and  C_23
REMARK                            x       y       z     vdW  Elec       q    Type
REMARK                         _______ _______ _______ _____ _____    ______ ____
ROOT
ATOM      1  N   UNL     1       1.463  15.471  19.859  0.00  0.00    +0.000 N 
ATOM      2  C   UNL     1       0.137  14.952  19.749  0.00  0.00    +0.000 C 
ATOM      3  N   UNL     1      -0.892  15.683  19.459  0.00  0.00    +0.000 NA
ATOM      4  C   UNL     1      -0.898  17.069  19.104  0.00  0.00    +0.000 C 
ATOM      5  N   UNL     1      -0.059  13.596  19.935  0.00  0.00    +0.000 N 
ATOM      6  C   UNL     1      -1.400  13.034  20.120  0.00  0.00    +0.000 C 
ATOM      7  C   UNL     1      -1.250  11.549  19.776  0.00  0.00    +0.000 C 
ATOM      8  C   UNL     1       0.242  11.481  19.584  0.00  0.00    +0.000 C 
ATOM      9  N   UNL     1       0.849  12.621  19.651  0.00  0.00    +0.000 NA
ATOM     10  H   UNL     1       1.518  16.475  19.940  0.00  0.00    +0.000 HD
ENDROOT
BRANCH   8  11
ATOM     11  C   UNL     1       0.973  10.219  19.304  0.00  0.00    +0.000 A 
ATOM     12  C   UNL     1       1.654  10.011  18.100  0.00  0.00    +0.000 A 
ATOM     13  C   UNL     1       2.330   8.808  17.875  0.00  0.00    +0.000 A 
ATOM     14  C   UNL     1       2.319   7.809  18.846  0.00  0.00    +0.000 A 
ATOM     15 CL   UNL     1       3.122   6.319  18.546  0.00  0.00    +0.000 Cl
ATOM     16  C   UNL     1       1.653   8.009  20.053  0.00  0.00    +0.000 A 
ATOM     17  C   UNL     1       0.986   9.214  20.283  0.00  0.00    +0.000 A 
ENDBRANCH   8  11
BRANCH   7  18
ATOM     18  C   UNL     1      -2.067  11.178  18.563  0.00  0.00    +0.000 A 
ATOM     19  C   UNL     1      -1.655  10.137  17.724  0.00  0.00    +0.000 A 
ATOM     20  C   UNL     1      -2.429   9.787  16.623  0.00  0.00    +0.000 A 
ATOM     21  C   UNL     1      -3.598  10.491  16.392  0.00  0.00    +0.000 A 
ATOM     22  N   UNL     1      -4.029  11.501  17.175  0.00  0.00    +0.000 NA
ATOM     23  C   UNL     1      -3.268  11.814  18.245  0.00  0.00    +0.000 A 
ENDBRANCH   7  18
BRANCH   1  24
ATOM     24  S   UNL     1       2.624  14.685  20.782  0.00  0.00    +0.000 S 
ATOM     25  O   UNL     1       3.325  13.711  19.979  0.00  0.00    +0.000 OA
ATOM     26  O   UNL     1       2.029  14.324  22.052  0.00  0.00    +0.000 OA
BRANCH  24  27
ATOM     27  N   UNL     1       3.814  15.872  21.150  0.00  0.00    +0.000 NA
BRANCH  27  29
ATOM     28  C   UNL     1       5.310  16.673  19.199  0.00  0.00    +0.000 C 
ATOM     29  C   UNL     1       5.014  15.609  20.244  0.00  0.00    +0.000 C 
ENDBRANCH  27  29
BRANCH  27  30
ATOM     30  C   UNL     1       3.390  17.305  21.163  0.00  0.00    +0.000 C 
ATOM     31  C   UNL     1       2.778  17.784  22.466  0.00  0.00    +0.000 C 
ENDBRANCH  27  30
ENDBRANCH  24  27
ENDBRANCH   1  24
TORSDOF 6
ENDMDL
MODEL 2
REMARK VINA RESULT:      -6.3      0.986      1.697
REMARK  Name = 
REMARK  9 active torsions:
REMARK  status: ('A' for Active; 'I' for Inactive)
REMARK    1  A    between atoms: C_1  and  C_2
REMARK    2  A    between atoms: C_2  and  N_3
REMARK    3  A    between atoms: N_3  and  C_4
REMARK    4  A    between atoms: N_3  and  S_6
REMARK    5  A    between atoms: C_4  and  C_5
REMARK    6  A    between atoms: S_6  and  N_9
REMARK    7  A    between atoms: N_11  and  C_12
REMARK    8  A    between atoms: C_15  and  C_16
REMARK    9  A    between atoms: C_22  and  C_23
REMARK                            x       y       z     vdW  Elec       q    Type
REMARK                         _______ _______ _______ _____ _____    ______ ____
ROOT
ATOM      1  N   UNL     1       1.599  15.256  19.606  0.00  0.00    +0.000 N 
ATOM      2  C   UNL     1       0.270  14.785  19.377  0.00  0.00    +0.000 C 
ATOM      3  N   UNL     1      -0.672  15.523  18.881  0.00  0.00    +0.000 NA
ATOM      4  C   UNL     1      -0.555  16.862  18.389  0.00  0.00    +0.000 C 
ATOM      5  N   UNL     1      -0.023  13.467  19.673  0.00  0.00    +0.000 N 
ATOM      6  C   UNL     1      -1.407  12.986  19.738  0.00  0.00    +0.000 C 
ATOM      7  C   UNL     1      -1.299  11.468  19.571  0.00  0.00    +0.000 C 
ATOM      8  C   UNL     1       0.200  11.315  19.583  0.00  0.00    +0.000 C 
ATOM      9  N   UNL     1       0.857  12.429  19.611  0.00  0.00    +0.000 NA
ATOM     10  H   UNL     1       1.700  16.259  19.590  0.00  0.00    +0.000 HD
ENDROOT
BRANCH   8  11
ATOM     11  C   UNL     1       0.888  10.000  19.531  0.00  0.00    +0.000 A 
ATOM     12  C   UNL     1       0.933   9.146  20.638  0.00  0.00    +0.000 A 
ATOM     13  C   UNL     1       1.591   7.916  20.548  0.00  0.00    +0.000 A 
ATOM     14  C   UNL     1       2.212   7.542  19.358  0.00  0.00    +0.000 A 
ATOM     15 CL   UNL     1       3.050   6.044  19.268  0.00  0.00    +0.000 Cl
ATOM     16  C   UNL     1       2.163   8.379  18.246  0.00  0.00    +0.000 A 
ATOM     17  C   UNL     1       1.497   9.603  18.332  0.00  0.00    +0.000 A 
ENDBRANCH   8  11
BRANCH   7  18
ATOM     18  C   UNL     1      -1.976  11.002  18.305  0.00  0.00    +0.000 A 
ATOM     19  C   UNL     1      -2.691   9.799  18.287  0.00  0.00    +0.000 A 
ATOM     20  C   UNL     1      -3.333   9.393  17.122  0.00  0.00    +0.000 A 
ATOM     21  C   UNL     1      -3.240  10.204  16.004  0.00  0.00    +0.000 A 
ATOM     22  N   UNL     1      -2.561  11.369  15.980  0.00  0.00    +0.000 NA
ATOM     23  C   UNL     1      -1.957  11.749  17.126  0.00  0.00    +0.000 A 
ENDBRANCH   7  18
BRANCH   1  24
ATOM     24  S   UNL     1       2.589  14.526  20.748  0.00  0.00    +0.000 S 
ATOM     25  O   UNL     1       3.373  13.481  20.134  0.00  0.00    +0.000 OA
ATOM     26  O   UNL     1       1.803  14.277  21.938  0.00  0.00    +0.000 OA
BRANCH  24  27
ATOM     27  N   UNL     1       3.744  15.719  21.198  0.00  0.00    +0.000 NA
BRANCH  27  29
ATOM     28  C   UNL     1       4.924  15.137  23.423  0.00  0.00    +0.000 C 
ATOM     29  C   UNL     1       3.748  15.797  22.723  0.00  0.00    +0.000 C 
ENDBRANCH  27  29
BRANCH  27  30
ATOM     30  C   UNL     1       5.115  15.621  20.611  0.00  0.00    +0.000 C 
ATOM     31  C   UNL     1       5.616  16.881  19.930  0.00  0.00    +0.000 C 
ENDBRANCH  27  30
ENDBRANCH  24  27
ENDBRANCH   1  24
TORSDOF 6
ENDMDL
MODEL 3
REMARK VINA RESULT:      -6.2      0.701      1.148
REMARK  Name = 
REMARK  9 active torsions:
REMARK  status: ('A' for Active; 'I' for Inactive)
REMARK    1  A    between atoms: C_1  and  C_2
REMARK    2  A    between atoms: C_2  and  N_3
REMARK    3  A    between atoms: N_3  and  C_4
REMARK    4  A    between atoms: N_3  and  S_6
REMARK    5  A    between atoms: C_4  and  C_5
REMARK    6  A    between atoms: S_6  and  N_9
REMARK    7  A    between atoms: N_11  and  C_12
REMARK    8  A    between atoms: C_15  and  C_16
REMARK    9  A    between atoms: C_22  and  C_23
REMARK                            x       y       z     vdW  Elec       q    Type
REMARK                         _______ _______ _______ _____ _____    ______ ____
ROOT
ATOM      1  N   UNL     1       1.893  15.439  19.027  0.00  0.00    +0.000 N 
ATOM      2  C   UNL     1       0.535  14.999  19.035  0.00  0.00    +0.000 C 
ATOM      3  N   UNL     1      -0.460  15.752  18.684  0.00  0.00    +0.000 NA
ATOM      4  C   UNL     1      -0.396  17.076  18.146  0.00  0.00    +0.000 C 
ATOM      5  N   UNL     1       0.264  13.696  19.409  0.00  0.00    +0.000 N 
ATOM      6  C   UNL     1      -1.100  13.254  19.715  0.00  0.00    +0.000 C 
ATOM      7  C   UNL     1      -1.056  11.730  19.571  0.00  0.00    +0.000 C 
ATOM      8  C   UNL     1       0.419  11.537  19.337  0.00  0.00    +0.000 C 
ATOM      9  N   UNL     1       1.098  12.633  19.228  0.00  0.00    +0.000 NA
ATOM     10  H   UNL     1       2.014  16.439  18.970  0.00  0.00    +0.000 HD
ENDROOT
BRANCH   8  11
ATOM     11  C   UNL     1       1.058  10.204  19.205  0.00  0.00    +0.000 A 
ATOM     12  C   UNL     1       0.999   9.251  20.227  0.00  0.00    +0.000 A 
ATOM     13  C   UNL     1       1.614   8.006  20.063  0.00  0.00    +0.000 A 
ATOM     14  C   UNL     1       2.296   7.716  18.883  0.00  0.00    +0.000 A 
ATOM     15 CL   UNL     1       3.080   6.196  18.705  0.00  0.00    +0.000 Cl
ATOM     16  C   UNL     1       2.352   8.652  17.854  0.00  0.00    +0.000 A 
ATOM     17  C   UNL     1       1.729   9.892  18.013  0.00  0.00    +0.000 A 
ENDBRANCH   8  11
BRANCH   7  18
ATOM     18  C   UNL     1      -1.946  11.256  18.448  0.00  0.00    +0.000 A 
ATOM     19  C   UNL     1      -1.559  10.179  17.645  0.00  0.00    +0.000 A 
ATOM     20  C   UNL     1      -2.399   9.734  16.630  0.00  0.00    +0.000 A 
ATOM     21  C   UNL     1      -3.607  10.384  16.446  0.00  0.00    +0.000 A 
ATOM     22  N   UNL     1      -4.017  11.427  17.197  0.00  0.00    +0.000 NA
ATOM     23  C   UNL     1      -3.191  11.831  18.185  0.00  0.00    +0.000 A 
ENDBRANCH   7  18
BRANCH   1  24
ATOM     24  S   UNL     1       3.043  14.707  20.007  0.00  0.00    +0.000 S 
ATOM     25  O   UNL     1       3.700  13.638  19.292  0.00  0.00    +0.000 OA
ATOM     26  O   UNL     1       2.457  14.489  21.313  0.00  0.00    +0.000 OA
BRANCH  24  27
ATOM     27  N   UNL     1       4.276  15.884  20.243  0.00  0.00    +0.000 NA
BRANCH  27  29
ATOM     28  C   UNL     1       6.847  15.929  19.977  0.00  0.00    +0.000 C 
ATOM     29  C   UNL     1       5.508  15.414  19.474  0.00  0.00    +0.000 C 
ENDBRANCH  27  29
BRANCH  27  30
ATOM     30  C   UNL     1       3.933  17.315  19.986  0.00  0.00    +0.000 C 
ATOM     31  C   UNL     1       3.402  18.076  21.188  0.00  0.00    +0.000 C 
ENDBRANCH  27  30
ENDBRANCH  24  27
ENDBRANCH   1  24
TORSDOF 6
ENDMDL
MODEL 4
REMARK VINA RESULT:      -6.1      0.627      1.176
REMARK  Name = 
REMARK  9 active torsions:
REMARK  status: ('A' for Active; 'I' for Inactive)
REMARK    1  A    between atoms: C_1  and  C_2
REMARK    2  A    between atoms: C_2  and  N_3
REMARK    3  A    between atoms: N_3  and  C_4
REMARK    4  A    between atoms: N_3  and  S_6
REMARK    5  A    between atoms: C_4  and  C_5
REMARK    6  A    between atoms: S_6  and  N_9
REMARK    7  A    between atoms: N_11  and  C_12
REMARK    8  A    between atoms: C_15  and  C_16
REMARK    9  A    between atoms: C_22  and  C_23
REMARK                            x       y       z     vdW  Elec       q    Type
REMARK                         _______ _______ _______ _____ _____    ______ ____
ROOT
ATOM      1  N   UNL     1       1.602  15.463  19.570  0.00  0.00    +0.000 N 
ATOM      2  C   UNL     1       0.264  14.969  19.506  0.00  0.00    +0.000 C 
ATOM      3  N   UNL     1      -0.754  15.709  19.197  0.00  0.00    +0.000 NA
ATOM      4  C   UNL     1      -0.735  17.077  18.779  0.00  0.00    +0.000 C 
ATOM      5  N   UNL     1       0.042  13.628  19.757  0.00  0.00    +0.000 N 
ATOM      6  C   UNL     1      -1.308  13.105  19.989  0.00  0.00    +0.000 C 
ATOM      7  C   UNL     1      -1.197  11.603  19.712  0.00  0.00    +0.000 C 
ATOM      8  C   UNL     1       0.290  11.493  19.499  0.00  0.00    +0.000 C 
ATOM      9  N   UNL     1       0.923  12.620  19.504  0.00  0.00    +0.000 NA
ATOM     10  H   UNL     1       1.681  16.468  19.603  0.00  0.00    +0.000 HD
ENDROOT
BRANCH   8  11
ATOM     11  C   UNL     1       0.988  10.203  19.266  0.00  0.00    +0.000 A 
ATOM     12  C   UNL     1       1.686   9.943  18.082  0.00  0.00    +0.000 A 
ATOM     13  C   UNL     1       2.330   8.716  17.901  0.00  0.00    +0.000 A 
ATOM     14  C   UNL     1       2.271   7.744  18.898  0.00  0.00    +0.000 A 
ATOM     15 CL   UNL     1       3.036   6.224  18.653  0.00  0.00    +0.000 Cl
ATOM     16  C   UNL     1       1.589   7.996  20.086  0.00  0.00    +0.000 A 
ATOM     17  C   UNL     1       0.954   9.225  20.271  0.00  0.00    +0.000 A 
ENDBRANCH   8  11
BRANCH   7  18
ATOM     18  C   UNL     1      -2.042  11.195  18.530  0.00  0.00    +0.000 A 
ATOM     19  C   UNL     1      -1.604  10.191  17.661  0.00  0.00    +0.000 A 
ATOM     20  C   UNL     1      -2.403   9.805  16.590  0.00  0.00    +0.000 A 
ATOM     21  C   UNL     1      -3.621  10.438  16.419  0.00  0.00    +0.000 A 
ATOM     22  N   UNL     1      -4.079  11.411  17.232  0.00  0.00    +0.000 NA
ATOM     23  C   UNL     1      -3.292  11.759  18.273  0.00  0.00    +0.000 A 
ENDBRANCH   7  18
BRANCH   1  24
ATOM     24  S   UNL     1       2.761  14.694  20.510  0.00  0.00    +0.000 S 
ATOM     25  O   UNL     1       3.464  13.705  19.727  0.00  0.00    +0.000 OA
ATOM     26  O   UNL     1       2.164  14.358  21.785  0.00  0.00    +0.000 OA
BRANCH  24  27
ATOM     27  N   UNL     1       3.951  15.888  20.857  0.00  0.00    +0.000 NA
BRANCH  27  29
ATOM     28  C   UNL     1       2.726  17.825  22.054  0.00  0.00    +0.000 C 
ATOM     29  C   UNL     1       3.271  17.251  20.755  0.00  0.00    +0.000 C 
ENDBRANCH  27  29
BRANCH  27  30
ATOM     30  C   UNL     1       4.760  15.726  22.102  0.00  0.00    +0.000 C 
ATOM     31  C   UNL     1       6.108  16.424  22.089  0.00  0.00    +0.000 C 
ENDBRANCH  27  30
ENDBRANCH  24  27
ENDBRANCH   1  24
TORSDOF 6
ENDMDL
MODEL 5
REMARK VINA RESULT:      -6.1      0.941      1.466
REMARK  Name = 
REMARK  9 active torsions:
REMARK  status: ('A' for Active; 'I' for Inactive)
REMARK    1  A    between atoms: C_1  and  C_2
REMARK    2  A    between atoms: C_2  and  N_3
REMARK    3  A    between atoms: N_3  and  C_4
REMARK    4  A    between atoms: N_3  and  S_6
REMARK    5  A    between atoms: C_4  and  C_5
REMARK    6  A    between atoms: S_6  and  N_9
REMARK    7  A    between atoms: N_11  and  C_12
REMARK    8  A    between atoms: C_15  and  C_16
REMARK    9  A    between atoms: C_22  and  C_23
REMARK                            x       y       z     vdW  Elec       q    Type
REMARK                         _______ _______ _______ _____ _____    ______ ____
ROOT
ATOM      1  N   UNL     1       1.647  15.275  19.360  0.00  0.00    +0.000 N 
ATOM      2  C   UNL     1       0.314  14.777  19.252  0.00  0.00    +0.000 C 
ATOM      3  N   UNL     1      -0.691  15.505  18.878  0.00  0.00    +0.000 NA
ATOM      4  C   UNL     1      -0.655  16.860  18.420  0.00  0.00    +0.000 C 
ATOM      5  N   UNL     1       0.082  13.443  19.533  0.00  0.00    +0.000 N 
ATOM      6  C   UNL     1      -1.277  12.925  19.721  0.00  0.00    +0.000 C 
ATOM      7  C   UNL     1      -1.152  11.415  19.495  0.00  0.00    +0.000 C 
ATOM      8  C   UNL     1       0.343  11.301  19.350  0.00  0.00    +0.000 C 
ATOM      9  N   UNL     1       0.975  12.430  19.348  0.00  0.00    +0.000 NA
ATOM     10  H   UNL     1       1.724  16.280  19.367  0.00  0.00    +0.000 HD
ENDROOT
BRANCH   8  11
ATOM     11  C   UNL     1       1.052  10.007  19.186  0.00  0.00    +0.000 A 
ATOM     12  C   UNL     1       1.698   9.664  17.994  0.00  0.00    +0.000 A 
ATOM     13  C   UNL     1       2.355   8.435  17.880  0.00  0.00    +0.000 A 
ATOM     14  C   UNL     1       2.358   7.544  18.952  0.00  0.00    +0.000 A 
ATOM     15 CL   UNL     1       3.137   6.020  18.791  0.00  0.00    +0.000 Cl
ATOM     16  C   UNL     1       1.728   7.880  20.147  0.00  0.00    +0.000 A 
ATOM     17  C   UNL     1       1.081   9.111  20.266  0.00  0.00    +0.000 A 
ENDBRANCH   8  11
BRANCH   7  18
ATOM     18  C   UNL     1      -1.944  10.970  18.290  0.00  0.00    +0.000 A 
ATOM     19  C   UNL     1      -1.931  11.730  17.115  0.00  0.00    +0.000 A 
ATOM     20  C   UNL     1      -2.644  11.296  16.002  0.00  0.00    +0.000 A 
ATOM     21  C   UNL     1      -3.353  10.111  16.098  0.00  0.00    +0.000 A 
ATOM     22  N   UNL     1      -3.393   9.351  17.211  0.00  0.00    +0.000 NA
ATOM     23  C   UNL     1      -2.682   9.785  18.274  0.00  0.00    +0.000 A 
ENDBRANCH   7  18
BRANCH   1  24
ATOM     24  S   UNL     1       2.765  14.537  20.371  0.00  0.00    +0.000 S 
ATOM     25  O   UNL     1       3.575  13.604  19.625  0.00  0.00    +0.000 OA
ATOM     26  O   UNL     1       2.086  14.138  21.587  0.00  0.00    +0.000 OA
BRANCH  24  27
ATOM     27  N   UNL     1       3.863  15.776  20.841  0.00  0.00    +0.000 NA
BRANCH  27  29
ATOM     28  C   UNL     1       5.500  15.577  22.831  0.00  0.00    +0.000 C 
ATOM     29  C   UNL     1       4.061  15.661  22.350  0.00  0.00    +0.000 C 
ENDBRANCH  27  29
BRANCH  27  30
ATOM     30  C   UNL     1       5.148  15.893  20.087  0.00  0.00    +0.000 C 
ATOM     31  C   UNL     1       5.109  16.825  18.889  0.00  0.00    +0.000 C 
ENDBRANCH  27  30
ENDBRANCH  24  27
ENDBRANCH   1  24
TORSDOF 6
ENDMDL
MODEL 6
REMARK VINA RESULT:      -6.1      0.902      1.555
REMARK  Name = 
REMARK  9 active torsions:
REMARK  status: ('A' for Active; 'I' for Inactive)
REMARK    1  A    between atoms: C_1  and  C_2
REMARK    2  A    between atoms: C_2  and  N_3
REMARK    3  A    between atoms: N_3  and  C_4
REMARK    4  A    between atoms: N_3  and  S_6
REMARK    5  A    between atoms: C_4  and  C_5
REMARK    6  A    between atoms: S_6  and  N_9
REMARK    7  A    between atoms: N_11  and  C_12
REMARK    8  A    between atoms: C_15  and  C_16
REMARK    9  A    between atoms: C_22  and  C_23
REMARK                            x       y       z     vdW  Elec       q    Type
REMARK                         _______ _______ _______ _____ _____    ______ ____
ROOT
ATOM      1  N   UNL     1       1.611  15.287  19.482  0.00  0.00    +0.000 N 
ATOM      2  C   UNL     1       0.276  14.801  19.336  0.00  0.00    +0.000 C 
ATOM      3  N   UNL     1      -0.708  15.534  18.922  0.00  0.00    +0.000 NA
ATOM      4  C   UNL     1      -0.643  16.884  18.451  0.00  0.00    +0.000 C 
ATOM      5  N   UNL     1       0.022  13.473  19.624  0.00  0.00    +0.000 N 
ATOM      6  C   UNL     1      -1.347  12.970  19.774  0.00  0.00    +0.000 C 
ATOM      7  C   UNL     1      -1.230  11.457  19.568  0.00  0.00    +0.000 C 
ATOM      8  C   UNL     1       0.267  11.327  19.473  0.00  0.00    +0.000 C 
ATOM      9  N   UNL     1       0.910  12.449  19.479  0.00  0.00    +0.000 NA
ATOM     10  H   UNL     1       1.698  16.292  19.480  0.00  0.00    +0.000 HD
ENDROOT
BRANCH   8  11
ATOM     11  C   UNL     1       0.968  10.024  19.346  0.00  0.00    +0.000 A 
ATOM     12  C   UNL     1       1.034   9.114  20.407  0.00  0.00    +0.000 A 
ATOM     13  C   UNL     1       1.703   7.897  20.247  0.00  0.00    +0.000 A 
ATOM     14  C   UNL     1       2.315   7.591  19.033  0.00  0.00    +0.000 A 
ATOM     15 CL   UNL     1       3.166   6.109  18.856  0.00  0.00    +0.000 Cl
ATOM     16  C   UNL     1       2.245   8.485  17.966  0.00  0.00    +0.000 A 
ATOM     17  C   UNL     1       1.568   9.696  18.122  0.00  0.00    +0.000 A 
ENDBRANCH   8  11
BRANCH   7  18
ATOM     18  C   UNL     1      -1.988  11.006  18.343  0.00  0.00    +0.000 A 
ATOM     19  C   UNL     1      -1.931  11.753  17.162  0.00  0.00    +0.000 A 
ATOM     20  C   UNL     1      -2.612  11.314  16.031  0.00  0.00    +0.000 A 
ATOM     21  C   UNL     1      -3.334  10.137  16.116  0.00  0.00    +0.000 A 
ATOM     22  N   UNL     1      -3.416   9.389  17.235  0.00  0.00    +0.000 NA
ATOM     23  C   UNL     1      -2.735   9.828  18.316  0.00  0.00    +0.000 A 
ENDBRANCH   7  18
BRANCH   1  24
ATOM     24  S   UNL     1       2.688  14.549  20.537  0.00  0.00    +0.000 S 
ATOM     25  O   UNL     1       3.473  13.559  19.838  0.00  0.00    +0.000 OA
ATOM     26  O   UNL     1       1.979  14.224  21.757  0.00  0.00    +0.000 OA
BRANCH  24  27
ATOM     27  N   UNL     1       3.825  15.765  20.973  0.00  0.00    +0.000 NA
BRANCH  27  29
ATOM     28  C   UNL     1       6.186  15.911  22.015  0.00  0.00    +0.000 C 
ATOM     29  C   UNL     1       5.133  15.061  21.324  0.00  0.00    +0.000 C 
ENDBRANCH  27  29
BRANCH  27  30
ATOM     30  C   UNL     1       4.010  16.916  20.038  0.00  0.00    +0.000 C 
ATOM     31  C   UNL     1       4.765  16.593  18.761  0.00  0.00    +0.000 C 
ENDBRANCH  27  30
ENDBRANCH  24  27
ENDBRANCH   1  24
TORSDOF 6
ENDMDL
MODEL 7
REMARK VINA RESULT:      -6.0      3.071      4.209
REMARK  Name = 
REMARK  9 active torsions:
REMARK  status: ('A' for Active; 'I' for Inactive)
REMARK    1  A    between atoms: C_1  and  C_2
REMARK    2  A    between atoms: C_2  and  N_3
REMARK    3  A    between atoms: N_3  and  C_4
REMARK    4  A    between atoms: N_3  and  S_6
REMARK    5  A    between atoms: C_4  and  C_5
REMARK    6  A    between atoms: S_6  and  N_9
REMARK    7  A    between atoms: N_11  and  C_12
REMARK    8  A    between atoms: C_15  and  C_16
REMARK    9  A    between atoms: C_22  and  C_23
REMARK                            x       y       z     vdW  Elec       q    Type
REMARK                         _______ _______ _______ _____ _____    ______ ____
ROOT
ATOM      1  N   UNL     1      -1.104  17.029  19.246  0.00  0.00    +0.000 N 
ATOM      2  C   UNL     1      -2.254  16.756  20.046  0.00  0.00    +0.000 C 
ATOM      3  N   UNL     1      -3.343  17.455  19.989  0.00  0.00    +0.000 NA
ATOM      4  C   UNL     1      -3.640  18.524  19.086  0.00  0.00    +0.000 C 
ATOM      5  N   UNL     1      -2.219  15.676  20.908  0.00  0.00    +0.000 N 
ATOM      6  C   UNL     1      -3.229  15.497  21.954  0.00  0.00    +0.000 C 
ATOM      7  C   UNL     1      -3.156  14.010  22.316  0.00  0.00    +0.000 C 
ATOM      8  C   UNL     1      -1.969  13.603  21.483  0.00  0.00    +0.000 C 
ATOM      9  N   UNL     1      -1.506  14.531  20.710  0.00  0.00    +0.000 NA
ATOM     10  H   UNL     1      -1.096  17.940  18.813  0.00  0.00    +0.000 HD
ENDROOT
BRANCH   8  11
ATOM     11  C   UNL     1      -1.384  12.239  21.507  0.00  0.00    +0.000 A 
ATOM     12  C   UNL     1      -1.166  11.548  22.704  0.00  0.00    +0.000 A 
ATOM     13  C   UNL     1      -0.612  10.265  22.684  0.00  0.00    +0.000 A 
ATOM     14  C   UNL     1      -0.267   9.674  21.470  0.00  0.00    +0.000 A 
ATOM     15 CL   UNL     1       0.447   8.110  21.457  0.00  0.00    +0.000 Cl
ATOM     16  C   UNL     1      -0.489  10.347  20.271  0.00  0.00    +0.000 A 
ATOM     17  C   UNL     1      -1.052  11.624  20.290  0.00  0.00    +0.000 A 
ENDBRANCH   8  11
BRANCH   7  18
ATOM     18  C   UNL     1      -4.443  13.297  21.983  0.00  0.00    +0.000 A 
ATOM     19  C   UNL     1      -4.720  12.914  20.666  0.00  0.00    +0.000 A 
ATOM     20  C   UNL     1      -5.897  12.234  20.375  0.00  0.00    +0.000 A 
ATOM     21  C   UNL     1      -6.768  11.956  21.414  0.00  0.00    +0.000 A 
ATOM     22  N   UNL     1      -6.540  12.308  22.695  0.00  0.00    +0.000 NA
ATOM     23  C   UNL     1      -5.384  12.955  22.955  0.00  0.00    +0.000 A 
ENDBRANCH   7  18
BRANCH   1  24
ATOM     24  S   UNL     1       0.424  16.533  19.733  0.00  0.00    +0.000 S 
ATOM     25  O   UNL     1       0.678  15.184  19.288  0.00  0.00    +0.000 OA
ATOM     26  O   UNL     1       0.606  16.915  21.118  0.00  0.00    +0.000 OA
BRANCH  24  27
ATOM     27  N   UNL     1       1.536  17.495  18.839  0.00  0.00    +0.000 NA
BRANCH  27  29
ATOM     28  C   UNL     1       3.898  16.595  18.295  0.00  0.00    +0.000 C 
ATOM     29  C   UNL     1       2.404  16.543  18.019  0.00  0.00    +0.000 C 
ENDBRANCH  27  29
BRANCH  27  30
ATOM     30  C   UNL     1       0.990  18.631  18.037  0.00  0.00    +0.000 C 
ATOM     31  C   UNL     1       0.957  18.402  16.536  0.00  0.00    +0.000 C 
ENDBRANCH  27  30
ENDBRANCH  24  27
ENDBRANCH   1  24
TORSDOF 6
ENDMDL
MODEL 8
REMARK VINA RESULT:      -6.0      1.154      1.442
REMARK  Name = 
REMARK  9 active torsions:
REMARK  status: ('A' for Active; 'I' for Inactive)
REMARK    1  A    between atoms: C_1  and  C_2
REMARK    2  A    between atoms: C_2  and  N_3
REMARK    3  A    between atoms: N_3  and  C_4
REMARK    4  A    between atoms: N_3  and  S_6
REMARK    5  A    between atoms: C_4  and  C_5
REMARK    6  A    between atoms: S_6  and  N_9
REMARK    7  A    between atoms: N_11  and  C_12
REMARK    8  A    between atoms: C_15  and  C_16
REMARK    9  A    between atoms: C_22  and  C_23
REMARK                            x       y       z     vdW  Elec       q    Type
REMARK                         _______ _______ _______ _____ _____    ______ ____
ROOT
ATOM      1  N   UNL     1       1.875  15.800  18.942  0.00  0.00    +0.000 N 
ATOM      2  C   UNL     1       0.489  15.453  18.951  0.00  0.00    +0.000 C 
ATOM      3  N   UNL     1      -0.442  16.231  18.500  0.00  0.00    +0.000 NA
ATOM      4  C   UNL     1      -0.275  17.490  17.840  0.00  0.00    +0.000 C 
ATOM      5  N   UNL     1       0.122  14.212  19.439  0.00  0.00    +0.000 N 
ATOM      6  C   UNL     1      -1.276  13.893  19.744  0.00  0.00    +0.000 C 
ATOM      7  C   UNL     1      -1.333  12.362  19.747  0.00  0.00    +0.000 C 
ATOM      8  C   UNL     1       0.131  12.051  19.577  0.00  0.00    +0.000 C 
ATOM      9  N   UNL     1       0.885  13.084  19.385  0.00  0.00    +0.000 NA
ATOM     10  H   UNL     1       2.065  16.778  18.793  0.00  0.00    +0.000 HD
ENDROOT
BRANCH   8  11
ATOM     11  C   UNL     1       0.680  10.672  19.592  0.00  0.00    +0.000 A 
ATOM     12  C   UNL     1       1.303  10.112  18.471  0.00  0.00    +0.000 A 
ATOM     13  C   UNL     1       1.807   8.810  18.526  0.00  0.00    +0.000 A 
ATOM     14  C   UNL     1       1.682   8.062  19.695  0.00  0.00    +0.000 A 
ATOM     15 CL   UNL     1       2.273   6.448  19.742  0.00  0.00    +0.000 Cl
ATOM     16  C   UNL     1       1.074   8.613  20.820  0.00  0.00    +0.000 A 
ATOM     17  C   UNL     1       0.579   9.918  20.770  0.00  0.00    +0.000 A 
ENDBRANCH   8  11
BRANCH   7  18
ATOM     18  C   UNL     1      -2.227  11.841  18.647  0.00  0.00    +0.000 A 
ATOM     19  C   UNL     1      -3.591  11.637  18.881  0.00  0.00    +0.000 A 
ATOM     20  C   UNL     1      -4.409  11.182  17.853  0.00  0.00    +0.000 A 
ATOM     21  C   UNL     1      -3.837  10.941  16.616  0.00  0.00    +0.000 A 
ATOM     22  N   UNL     1      -2.527  11.124  16.350  0.00  0.00    +0.000 NA
ATOM     23  C   UNL     1      -1.755  11.580  17.360  0.00  0.00    +0.000 A 
ENDBRANCH   7  18
BRANCH   1  24
ATOM     24  S   UNL     1       2.948  15.091  20.021  0.00  0.00    +0.000 S 
ATOM     25  O   UNL     1       3.353  13.791  19.543  0.00  0.00    +0.000 OA
ATOM     26  O   UNL     1       2.431  15.272  21.362  0.00  0.00    +0.000 OA
BRANCH  24  27
ATOM     27  N   UNL     1       4.382  16.040  19.947  0.00  0.00    +0.000 NA
BRANCH  27  29
ATOM     28  C   UNL     1       5.904  15.181  18.042  0.00  0.00    +0.000 C 
ATOM     29  C   UNL     1       4.795  16.125  18.480  0.00  0.00    +0.000 C 
ENDBRANCH  27  29
BRANCH  27  30
ATOM     30  C   UNL     1       4.378  17.367  20.634  0.00  0.00    +0.000 C 
ATOM     31  C   UNL     1       5.688  18.130  20.568  0.00  0.00    +0.000 C 
ENDBRANCH  27  30
ENDBRANCH  24  27
ENDBRANCH   1  24
TORSDOF 6
ENDMDL
MODEL 9
REMARK VINA RESULT:      -6.0      1.194      1.954
REMARK  Name = 
REMARK  9 active torsions:
REMARK  status: ('A' for Active; 'I' for Inactive)
REMARK    1  A    between atoms: C_1  and  C_2
REMARK    2  A    between atoms: C_2  and  N_3
REMARK    3  A    between atoms: N_3  and  C_4
REMARK    4  A    between atoms: N_3  and  S_6
REMARK    5  A    between atoms: C_4  and  C_5
REMARK    6  A    between atoms: S_6  and  N_9
REMARK    7  A    between atoms: N_11  and  C_12
REMARK    8  A    between atoms: C_15  and  C_16
REMARK    9  A    between atoms: C_22  and  C_23
REMARK                            x       y       z     vdW  Elec       q    Type
REMARK                         _______ _______ _______ _____ _____    ______ ____
ROOT
ATOM      1  N   UNL     1       2.236  15.834  18.656  0.00  0.00    +0.000 N 
ATOM      2  C   UNL     1       0.857  15.522  18.856  0.00  0.00    +0.000 C 
ATOM      3  N   UNL     1      -0.106  16.345  18.585  0.00  0.00    +0.000 NA
ATOM      4  C   UNL     1       0.002  17.629  17.963  0.00  0.00    +0.000 C 
ATOM      5  N   UNL     1       0.527  14.269  19.339  0.00  0.00    +0.000 N 
ATOM      6  C   UNL     1      -0.820  13.970  19.836  0.00  0.00    +0.000 C 
ATOM      7  C   UNL     1      -0.925  12.444  19.780  0.00  0.00    +0.000 C 
ATOM      8  C   UNL     1       0.487  12.105  19.380  0.00  0.00    +0.000 C 
ATOM      9  N   UNL     1       1.237  13.127  19.122  0.00  0.00    +0.000 NA
ATOM     10  H   UNL     1       2.433  16.814  18.523  0.00  0.00    +0.000 HD
ENDROOT
BRANCH   8  11
ATOM     11  C   UNL     1       0.988  10.713  19.251  0.00  0.00    +0.000 A 
ATOM     12  C   UNL     1       0.819   9.770  20.270  0.00  0.00    +0.000 A 
ATOM     13  C   UNL     1       1.306   8.469  20.111  0.00  0.00    +0.000 A 
ATOM     14  C   UNL     1       1.969   8.112  18.939  0.00  0.00    +0.000 A 
ATOM     15 CL   UNL     1       2.596   6.520  18.765  0.00  0.00    +0.000 Cl
ATOM     16  C   UNL     1       2.133   9.039  17.913  0.00  0.00    +0.000 A 
ATOM     17  C   UNL     1       1.638  10.335  18.067  0.00  0.00    +0.000 A 
ENDBRANCH   8  11
BRANCH   7  18
ATOM     18  C   UNL     1      -1.988  11.999  18.805  0.00  0.00    +0.000 A 
ATOM     19  C   UNL     1      -1.634  11.556  17.526  0.00  0.00    +0.000 A 
ATOM     20  C   UNL     1      -2.620  11.123  16.646  0.00  0.00    +0.000 A 
ATOM     21  C   UNL     1      -3.936  11.148  17.071  0.00  0.00    +0.000 A 
ATOM     22  N   UNL     1      -4.319  11.568  18.294  0.00  0.00    +0.000 NA
ATOM     23  C   UNL     1      -3.344  11.970  19.136  0.00  0.00    +0.000 A 
ENDBRANCH   7  18
BRANCH   1  24
ATOM     24  S   UNL     1       3.434  15.048  19.530  0.00  0.00    +0.000 S 
ATOM     25  O   UNL     1       3.956  13.934  18.774  0.00  0.00    +0.000 OA
ATOM     26  O   UNL     1       2.970  14.881  20.891  0.00  0.00    +0.000 OA
BRANCH  24  27
ATOM     27  N   UNL     1       4.749  16.155  19.622  0.00  0.00    +0.000 NA
BRANCH  27  29
ATOM     28  C   UNL     1       5.074  18.475  20.715  0.00  0.00    +0.000 C 
ATOM     29  C   UNL     1       4.486  17.076  20.810  0.00  0.00    +0.000 C 
ENDBRANCH  27  29
BRANCH  27  30
ATOM     30  C   UNL     1       6.135  15.596  19.607  0.00  0.00    +0.000 C 
ATOM     31  C   UNL     1       6.924  15.864  18.339  0.00  0.00    +0.000 C 
ENDBRANCH  27  30
ENDBRANCH  24  27
ENDBRANCH   1  24
TORSDOF 6
ENDMDL
