MODEL 1
REMARK VINA RESULT:      -7.4      0.000      0.000
REMARK  Name = 
REMARK  4 active torsions:
REMARK  status: ('A' for Active; 'I' for Inactive)
REMARK    1  A    between atoms: N_1  and  C_2
REMARK    2  A    between atoms: C_2  and  C_3
REMARK    3  A    between atoms: C_11  and  N_12
REMARK    4  A    between atoms: C_15  and  C_16
REMARK                            x       y       z     vdW  Elec       q    Type
REMARK                         _______ _______ _______ _____ _____    ______ ____
ROOT
ATOM      1  C   UNL     1       6.438   5.301  17.969  0.00  0.00    +0.000 C 
ATOM      2  C   UNL     1       6.243   6.461  16.980  0.00  0.00    +0.000 C 
ATOM      3  C   UNL     1       4.778   6.749  16.703  0.00  0.00    +0.000 C 
ATOM      4  C   UNL     1       4.047   7.000  18.020  0.00  0.00    +0.000 C 
ATOM      5  C   UNL     1       2.602   7.492  17.741  0.00  0.00    +0.000 C 
ATOM      6  N   UNL     1       1.901   7.724  19.009  0.00  0.00    +0.000 N 
ATOM      7  C   UNL     1       1.180   8.863  19.305  0.00  0.00    +0.000 A 
ATOM      8  C   UNL     1       0.499   9.616  18.191  0.00  0.00    +0.000 A 
ATOM      9  C   UNL     1      -0.261  10.675  18.500  0.00  0.00    +0.000 A 
ATOM     10  N   UNL     1      -0.337  11.052  19.858  0.00  0.00    +0.000 N 
ATOM     11  N   UNL     1      -1.008  12.095  20.407  0.00  0.00    +0.000 NA
ATOM     12  C   UNL     1      -0.649  12.012  21.692  0.00  0.00    +0.000 A 
ATOM     13  N   UNL     1       0.204  10.979  21.993  0.00  0.00    +0.000 NA
ATOM     14  C   UNL     1       0.365  10.358  20.847  0.00  0.00    +0.000 A 
ATOM     15  N   UNL     1       1.085   9.241  20.563  0.00  0.00    +0.000 NA
ATOM     16  C   UNL     1       1.907   6.558  19.904  0.00  0.00    +0.000 C 
ATOM     17  C   UNL     1       3.339   6.032  20.108  0.00  0.00    +0.000 C 
ATOM     18  N   UNL     1       4.046   5.762  18.826  0.00  0.00    +0.000 NA
ATOM     19  C   UNL     1       5.389   5.245  19.106  0.00  0.00    +0.000 C 
ENDROOT
BRANCH  12  20
ATOM     20  C   UNL     1      -1.133  12.977  22.725  0.00  0.00    +0.000 A 
ATOM     21  C   UNL     1      -2.391  12.976  23.303  0.00  0.00    +0.000 A 
ATOM     22  C   UNL     1      -2.420  14.052  24.224  0.00  0.00    +0.000 A 
ATOM     23  C   UNL     1      -1.189  14.657  24.142  0.00  0.00    +0.000 A 
ATOM     24  O   UNL     1      -0.397  14.005  23.253  0.00  0.00    +0.000 OA
ENDBRANCH  12  20
BRANCH   9  25
ATOM     25  N   UNL     1      -0.966  11.411  17.560  0.00  0.00    +0.000 N 
ATOM     26  H   UNL     1      -1.703  10.900  17.085  0.00  0.00    +0.000 HD
ATOM     27  H   UNL     1      -0.346  11.923  16.925  0.00  0.00    +0.000 HD
ENDBRANCH   9  25
BRANCH   1  28
ATOM     28  C   UNL     1       7.836   5.362  18.627  0.00  0.00    +0.000 C 
BRANCH  28  29
ATOM     29  N   UNL     1       7.792   5.550  20.072  0.00  0.00    +0.000 NA
ATOM     30  H   UNL     1       8.319   6.391  20.311  0.00  0.00    +0.000 HD
ATOM     31  H   UNL     1       8.267   4.781  20.542  0.00  0.00    +0.000 HD
ENDBRANCH  28  29
ENDBRANCH   1  28
TORSDOF 4
ENDMDL
MODEL 2
REMARK VINA RESULT:      -7.1      3.269      9.716
REMARK  Name = 
REMARK  4 active torsions:
REMARK  status: ('A' for Active; 'I' for Inactive)
REMARK    1  A    between atoms: N_1  and  C_2
REMARK    2  A    between atoms: C_2  and  C_3
REMARK    3  A    between atoms: C_11  and  N_12
REMARK    4  A    between atoms: C_15  and  C_16
REMARK                            x       y       z     vdW  Elec       q    Type
REMARK                         _______ _______ _______ _____ _____    ______ ____
ROOT
ATOM      1  C   UNL     1      -5.996  13.566  22.654  0.00  0.00    +0.000 C 
ATOM      2  C   UNL     1      -5.818  13.554  21.128  0.00  0.00    +0.000 C 
ATOM      3  C   UNL     1      -4.372  13.751  20.708  0.00  0.00    +0.000 C 
ATOM      4  C   UNL     1      -3.494  12.702  21.387  0.00  0.00    +0.000 C 
ATOM      5  C   UNL     1      -2.053  12.763  20.815  0.00  0.00    +0.000 C 
ATOM      6  N   UNL     1      -1.211  11.759  21.476  0.00  0.00    +0.000 N 
ATOM      7  C   UNL     1      -0.383  10.876  20.814  0.00  0.00    +0.000 A 
ATOM      8  C   UNL     1       0.234  11.287  19.501  0.00  0.00    +0.000 A 
ATOM      9  C   UNL     1       1.097  10.453  18.906  0.00  0.00    +0.000 A 
ATOM     10  N   UNL     1       1.338   9.208  19.528  0.00  0.00    +0.000 N 
ATOM     11  N   UNL     1       2.136   8.196  19.106  0.00  0.00    +0.000 NA
ATOM     12  C   UNL     1       1.905   7.257  20.029  0.00  0.00    +0.000 A 
ATOM     13  N   UNL     1       1.014   7.611  21.011  0.00  0.00    +0.000 NA
ATOM     14  C   UNL     1       0.692   8.849  20.713  0.00  0.00    +0.000 A 
ATOM     15  N   UNL     1      -0.132   9.709  21.368  0.00  0.00    +0.000 NA
ATOM     16  C   UNL     1      -1.211  11.869  22.943  0.00  0.00    +0.000 C 
ATOM     17  C   UNL     1      -2.650  11.887  23.491  0.00  0.00    +0.000 C 
ATOM     18  N   UNL     1      -3.502  12.925  22.848  0.00  0.00    +0.000 NA
ATOM     19  C   UNL     1      -4.843  12.893  23.438  0.00  0.00    +0.000 C 
ENDROOT
BRANCH  12  20
ATOM     20  C   UNL     1       2.561   5.914  19.990  0.00  0.00    +0.000 A 
ATOM     21  C   UNL     1       3.688   5.589  19.256  0.00  0.00    +0.000 A 
ATOM     22  C   UNL     1       3.965   4.223  19.512  0.00  0.00    +0.000 A 
ATOM     23  C   UNL     1       2.982   3.790  20.369  0.00  0.00    +0.000 A 
ATOM     24  O   UNL     1       2.139   4.808  20.678  0.00  0.00    +0.000 OA
ENDBRANCH  12  20
BRANCH   9  25
ATOM     25  N   UNL     1       1.754  10.748  17.722  0.00  0.00    +0.000 N 
ATOM     26  H   UNL     1       1.619  10.070  16.979  0.00  0.00    +0.000 HD
ATOM     27  H   UNL     1       2.736  10.998  17.876  0.00  0.00    +0.000 HD
ENDBRANCH   9  25
BRANCH   1  28
ATOM     28  C   UNL     1      -7.311  12.865  23.065  0.00  0.00    +0.000 C 
BRANCH  28  29
ATOM     29  N   UNL     1      -7.732  13.168  24.428  0.00  0.00    +0.000 NA
ATOM     30  H   UNL     1      -8.652  12.754  24.588  0.00  0.00    +0.000 HD
ATOM     31  H   UNL     1      -7.855  14.172  24.544  0.00  0.00    +0.000 HD
ENDBRANCH  28  29
ENDBRANCH   1  28
TORSDOF 4
ENDMDL
MODEL 3
REMARK VINA RESULT:      -7.0      3.069      9.327
REMARK  Name = 
REMARK  4 active torsions:
REMARK  status: ('A' for Active; 'I' for Inactive)
REMARK    1  A    between atoms: N_1  and  C_2
REMARK    2  A    between atoms: C_2  and  C_3
REMARK    3  A    between atoms: C_11  and  N_12
REMARK    4  A    between atoms: C_15  and  C_16
REMARK                            x       y       z     vdW  Elec       q    Type
REMARK                         _______ _______ _______ _____ _____    ______ ____
ROOT
ATOM      1  C   UNL     1      -0.845  14.623  21.150  0.00  0.00    +0.000 C 
ATOM      2  C   UNL     1      -0.184  13.875  22.318  0.00  0.00    +0.000 C 
ATOM      3  C   UNL     1      -0.450  12.381  22.278  0.00  0.00    +0.000 C 
ATOM      4  C   UNL     1      -0.013  11.818  20.927  0.00  0.00    +0.000 C 
ATOM      5  C   UNL     1      -0.091  10.269  20.946  0.00  0.00    +0.000 C 
ATOM      6  N   UNL     1       0.322   9.733  19.644  0.00  0.00    +0.000 N 
ATOM      7  C   UNL     1       1.227   8.705  19.474  0.00  0.00    +0.000 A 
ATOM      8  C   UNL     1       1.338   7.637  20.532  0.00  0.00    +0.000 A 
ATOM      9  C   UNL     1       2.164   6.604  20.321  0.00  0.00    +0.000 A 
ATOM     10  N   UNL     1       2.922   6.606  19.129  0.00  0.00    +0.000 N 
ATOM     11  N   UNL     1       3.837   5.696  18.712  0.00  0.00    +0.000 NA
ATOM     12  C   UNL     1       4.287   6.253  17.583  0.00  0.00    +0.000 A 
ATOM     13  N   UNL     1       3.712   7.455  17.256  0.00  0.00    +0.000 NA
ATOM     14  C   UNL     1       2.829   7.652  18.208  0.00  0.00    +0.000 A 
ATOM     15  N   UNL     1       1.947   8.673  18.372  0.00  0.00    +0.000 NA
ATOM     16  C   UNL     1      -0.432  10.295  18.513  0.00  0.00    +0.000 C 
ATOM     17  C   UNL     1      -0.413  11.834  18.552  0.00  0.00    +0.000 C 
ATOM     18  N   UNL     1      -0.862  12.386  19.860  0.00  0.00    +0.000 NA
ATOM     19  C   UNL     1      -0.837  13.851  19.808  0.00  0.00    +0.000 C 
ENDROOT
BRANCH  12  20
ATOM     20  C   UNL     1       5.346   5.618  16.741  0.00  0.00    +0.000 A 
ATOM     21  C   UNL     1       5.421   5.675  15.360  0.00  0.00    +0.000 A 
ATOM     22  C   UNL     1       6.574   4.945  14.980  0.00  0.00    +0.000 A 
ATOM     23  C   UNL     1       7.125   4.471  16.147  0.00  0.00    +0.000 A 
ATOM     24  O   UNL     1       6.401   4.885  17.218  0.00  0.00    +0.000 OA
ENDBRANCH  12  20
BRANCH   9  25
ATOM     25  N   UNL     1       2.310   5.547  21.206  0.00  0.00    +0.000 N 
ATOM     26  H   UNL     1       3.223   5.106  21.195  0.00  0.00    +0.000 HD
ATOM     27  H   UNL     1       1.532   4.883  21.147  0.00  0.00    +0.000 HD
ENDBRANCH   9  25
BRANCH   1  28
ATOM     28  C   UNL     1      -0.161  15.988  20.906  0.00  0.00    +0.000 C 
BRANCH  28  29
ATOM     29  N   UNL     1       0.430  16.116  19.579  0.00  0.00    +0.000 NA
ATOM     30  H   UNL     1       1.419  15.870  19.634  0.00  0.00    +0.000 HD
ATOM     31  H   UNL     1       0.401  17.086  19.272  0.00  0.00    +0.000 HD
ENDBRANCH  28  29
ENDBRANCH   1  28
TORSDOF 4
ENDMDL
MODEL 4
REMARK VINA RESULT:      -6.7      3.286      9.330
REMARK  Name = 
REMARK  4 active torsions:
REMARK  status: ('A' for Active; 'I' for Inactive)
REMARK    1  A    between atoms: N_1  and  C_2
REMARK    2  A    between atoms: C_2  and  C_3
REMARK    3  A    between atoms: C_11  and  N_12
REMARK    4  A    between atoms: C_15  and  C_16
REMARK                            x       y       z     vdW  Elec       q    Type
REMARK                         _______ _______ _______ _____ _____    ______ ____
ROOT
ATOM      1  C   UNL     1      -0.231  15.807  20.734  0.00  0.00    +0.000 C 
ATOM      2  C   UNL     1       0.403  15.059  21.916  0.00  0.00    +0.000 C 
ATOM      3  C   UNL     1      -0.032  13.605  21.987  0.00  0.00    +0.000 C 
ATOM      4  C   UNL     1       0.265  12.916  20.657  0.00  0.00    +0.000 C 
ATOM      5  C   UNL     1       0.014  11.390  20.781  0.00  0.00    +0.000 C 
ATOM      6  N   UNL     1       0.293  10.733  19.499  0.00  0.00    +0.000 N 
ATOM      7  C   UNL     1       1.066   9.598  19.355  0.00  0.00    +0.000 A 
ATOM      8  C   UNL     1       1.112   8.590  20.475  0.00  0.00    +0.000 A 
ATOM      9  C   UNL     1       1.803   7.458  20.293  0.00  0.00    +0.000 A 
ATOM     10  N   UNL     1       2.492   7.300  19.071  0.00  0.00    +0.000 N 
ATOM     11  N   UNL     1       3.275   6.267  18.672  0.00  0.00    +0.000 NA
ATOM     12  C   UNL     1       3.723   6.699  17.489  0.00  0.00    +0.000 A 
ATOM     13  N   UNL     1       3.271   7.938  17.111  0.00  0.00    +0.000 NA
ATOM     14  C   UNL     1       2.468   8.293  18.089  0.00  0.00    +0.000 A 
ATOM     15  N   UNL     1       1.717   9.417  18.226  0.00  0.00    +0.000 NA
ATOM     16  C   UNL     1      -0.452  11.310  18.370  0.00  0.00    +0.000 C 
ATOM     17  C   UNL     1      -0.257  12.836  18.307  0.00  0.00    +0.000 C 
ATOM     18  N   UNL     1      -0.570  13.514  19.595  0.00  0.00    +0.000 NA
ATOM     19  C   UNL     1      -0.382  14.960  19.446  0.00  0.00    +0.000 C 
ENDROOT
BRANCH  12  20
ATOM     20  C   UNL     1       4.657   5.896  16.642  0.00  0.00    +0.000 A 
ATOM     21  C   UNL     1       4.802   4.520  16.684  0.00  0.00    +0.000 A 
ATOM     22  C   UNL     1       5.784   4.181  15.720  0.00  0.00    +0.000 A 
ATOM     23  C   UNL     1       6.194   5.368  15.162  0.00  0.00    +0.000 A 
ATOM     24  O   UNL     1       5.507   6.409  15.699  0.00  0.00    +0.000 OA
ENDBRANCH  12  20
BRANCH   9  25
ATOM     25  N   UNL     1       1.876   6.445  21.238  0.00  0.00    +0.000 N 
ATOM     26  H   UNL     1       1.945   6.765  22.199  0.00  0.00    +0.000 HD
ATOM     27  H   UNL     1       2.570   5.734  20.991  0.00  0.00    +0.000 HD
ENDBRANCH   9  25
BRANCH   1  28
ATOM     28  C   UNL     1       0.588  17.066  20.369  0.00  0.00    +0.000 C 
BRANCH  28  29
ATOM     29  N   UNL     1       0.760  17.255  18.934  0.00  0.00    +0.000 NA
ATOM     30  H   UNL     1       0.388  16.438  18.447  0.00  0.00    +0.000 HD
ATOM     31  H   UNL     1       1.750  17.292  18.698  0.00  0.00    +0.000 HD
ENDBRANCH  28  29
ENDBRANCH   1  28
TORSDOF 4
ENDMDL
MODEL 5
REMARK VINA RESULT:      -6.6      3.457      9.291
REMARK  Name = 
REMARK  4 active torsions:
REMARK  status: ('A' for Active; 'I' for Inactive)
REMARK    1  A    between atoms: N_1  and  C_2
REMARK    2  A    between atoms: C_2  and  C_3
REMARK    3  A    between atoms: C_11  and  N_12
REMARK    4  A    between atoms: C_15  and  C_16
REMARK                            x       y       z     vdW  Elec       q    Type
REMARK                         _______ _______ _______ _____ _____    ______ ____
ROOT
ATOM      1  C   UNL     1      -0.076  16.550  20.496  0.00  0.00    +0.000 C 
ATOM      2  C   UNL     1       0.539  15.843  21.714  0.00  0.00    +0.000 C 
ATOM      3  C   UNL     1       0.025  14.424  21.884  0.00  0.00    +0.000 C 
ATOM      4  C   UNL     1       0.258  13.637  20.597  0.00  0.00    +0.000 C 
ATOM      5  C   UNL     1      -0.075  12.138  20.822  0.00  0.00    +0.000 C 
ATOM      6  N   UNL     1       0.142  11.387  19.580  0.00  0.00    +0.000 N 
ATOM      7  C   UNL     1       0.848  10.204  19.497  0.00  0.00    +0.000 A 
ATOM      8  C   UNL     1       0.859   9.267  20.678  0.00  0.00    +0.000 A 
ATOM      9  C   UNL     1       1.483   8.088  20.559  0.00  0.00    +0.000 A 
ATOM     10  N   UNL     1       2.138   7.815  19.338  0.00  0.00    +0.000 N 
ATOM     11  N   UNL     1       2.855   6.716  18.994  0.00  0.00    +0.000 NA
ATOM     12  C   UNL     1       3.304   7.046  17.779  0.00  0.00    +0.000 A 
ATOM     13  N   UNL     1       2.913   8.283  17.330  0.00  0.00    +0.000 NA
ATOM     14  C   UNL     1       2.151   8.743  18.295  0.00  0.00    +0.000 A 
ATOM     15  N   UNL     1       1.466   9.916  18.372  0.00  0.00    +0.000 NA
ATOM     16  C   UNL     1      -0.592  11.933  18.428  0.00  0.00    +0.000 C 
ATOM     17  C   UNL     1      -0.313  13.438  18.265  0.00  0.00    +0.000 C 
ATOM     18  N   UNL     1      -0.564  14.213  19.512  0.00  0.00    +0.000 NA
ATOM     19  C   UNL     1      -0.298  15.634  19.268  0.00  0.00    +0.000 C 
ENDROOT
BRANCH  12  20
ATOM     20  C   UNL     1       4.175   6.140  16.971  0.00  0.00    +0.000 A 
ATOM     21  C   UNL     1       5.108   6.545  16.032  0.00  0.00    +0.000 A 
ATOM     22  C   UNL     1       5.705   5.369  15.513  0.00  0.00    +0.000 A 
ATOM     23  C   UNL     1       5.090   4.318  16.149  0.00  0.00    +0.000 A 
ATOM     24  O   UNL     1       4.177   4.772  17.045  0.00  0.00    +0.000 OA
ENDBRANCH  12  20
BRANCH   9  25
ATOM     25  N   UNL     1       1.518   7.135  21.565  0.00  0.00    +0.000 N 
ATOM     26  H   UNL     1       1.107   7.430  22.445  0.00  0.00    +0.000 HD
ATOM     27  H   UNL     1       2.445   6.712  21.666  0.00  0.00    +0.000 HD
ENDBRANCH   9  25
BRANCH   1  28
ATOM     28  C   UNL     1       0.805  17.735  20.039  0.00  0.00    +0.000 C 
BRANCH  28  29
ATOM     29  N   UNL     1       2.174  17.354  19.714  0.00  0.00    +0.000 NA
ATOM     30  H   UNL     1       2.585  16.882  20.521  0.00  0.00    +0.000 HD
ATOM     31  H   UNL     1       2.744  18.183  19.557  0.00  0.00    +0.000 HD
ENDBRANCH  28  29
ENDBRANCH   1  28
TORSDOF 4
ENDMDL
MODEL 6
REMARK VINA RESULT:      -6.4      3.071      4.940
REMARK  Name = 
REMARK  4 active torsions:
REMARK  status: ('A' for Active; 'I' for Inactive)
REMARK    1  A    between atoms: N_1  and  C_2
REMARK    2  A    between atoms: C_2  and  C_3
REMARK    3  A    between atoms: C_11  and  N_12
REMARK    4  A    between atoms: C_15  and  C_16
REMARK                            x       y       z     vdW  Elec       q    Type
REMARK                         _______ _______ _______ _____ _____    ______ ____
ROOT
ATOM      1  C   UNL     1       7.249   4.378  13.474  0.00  0.00    +0.000 C 
ATOM      2  C   UNL     1       5.891   3.661  13.421  0.00  0.00    +0.000 C 
ATOM      3  C   UNL     1       5.434   3.179  14.786  0.00  0.00    +0.000 C 
ATOM      4  C   UNL     1       5.416   4.351  15.765  0.00  0.00    +0.000 C 
ATOM      5  C   UNL     1       4.762   3.917  17.104  0.00  0.00    +0.000 C 
ATOM      6  N   UNL     1       4.755   5.044  18.044  0.00  0.00    +0.000 N 
ATOM      7  C   UNL     1       3.654   5.446  18.771  0.00  0.00    +0.000 A 
ATOM      8  C   UNL     1       2.626   4.423  19.181  0.00  0.00    +0.000 A 
ATOM      9  C   UNL     1       1.602   4.811  19.952  0.00  0.00    +0.000 A 
ATOM     10  N   UNL     1       1.523   6.179  20.295  0.00  0.00    +0.000 N 
ATOM     11  N   UNL     1       0.574   6.810  21.029  0.00  0.00    +0.000 NA
ATOM     12  C   UNL     1       0.961   8.086  20.947  0.00  0.00    +0.000 A 
ATOM     13  N   UNL     1       2.098   8.304  20.209  0.00  0.00    +0.000 NA
ATOM     14  C   UNL     1       2.468   7.100  19.836  0.00  0.00    +0.000 A 
ATOM     15  N   UNL     1       3.551   6.713  19.111  0.00  0.00    +0.000 NA
ATOM     16  C   UNL     1       6.085   5.633  18.262  0.00  0.00    +0.000 C 
ATOM     17  C   UNL     1       6.754   5.986  16.922  0.00  0.00    +0.000 C 
ATOM     18  N   UNL     1       6.796   4.838  15.974  0.00  0.00    +0.000 NA
ATOM     19  C   UNL     1       7.466   5.247  14.737  0.00  0.00    +0.000 C 
ENDROOT
BRANCH  12  20
ATOM     20  C   UNL     1       0.207   9.199  21.600  0.00  0.00    +0.000 A 
ATOM     21  C   UNL     1      -0.112   9.275  22.945  0.00  0.00    +0.000 A 
ATOM     22  C   UNL     1      -0.822  10.487  23.130  0.00  0.00    +0.000 A 
ATOM     23  C   UNL     1      -0.912  11.069  21.889  0.00  0.00    +0.000 A 
ATOM     24  O   UNL     1      -0.278  10.308  20.960  0.00  0.00    +0.000 OA
ENDBRANCH  12  20
BRANCH   9  25
ATOM     25  N   UNL     1       0.626   3.945  20.422  0.00  0.00    +0.000 N 
ATOM     26  H   UNL     1      -0.272   4.379  20.612  0.00  0.00    +0.000 HD
ATOM     27  H   UNL     1       0.968   3.357  21.188  0.00  0.00    +0.000 HD
ENDBRANCH   9  25
BRANCH   1  28
ATOM     28  C   UNL     1       7.443   5.291  12.241  0.00  0.00    +0.000 C 
BRANCH  28  29
ATOM     29  N   UNL     1       8.502   6.279  12.407  0.00  0.00    +0.000 NA
ATOM     30  H   UNL     1       9.319   5.979  11.872  0.00  0.00    +0.000 HD
ATOM     31  H   UNL     1       8.805   6.312  13.379  0.00  0.00    +0.000 HD
ENDBRANCH  28  29
ENDBRANCH   1  28
TORSDOF 4
ENDMDL
MODEL 7
REMARK VINA RESULT:      -6.4      3.436      9.355
REMARK  Name = 
REMARK  4 active torsions:
REMARK  status: ('A' for Active; 'I' for Inactive)
REMARK    1  A    between atoms: N_1  and  C_2
REMARK    2  A    between atoms: C_2  and  C_3
REMARK    3  A    between atoms: C_11  and  N_12
REMARK    4  A    between atoms: C_15  and  C_16
REMARK                            x       y       z     vdW  Elec       q    Type
REMARK                         _______ _______ _______ _____ _____    ______ ____
ROOT
ATOM      1  C   UNL     1      -4.370  13.321  22.228  0.00  0.00    +0.000 C 
ATOM      2  C   UNL     1      -4.256  13.192  20.702  0.00  0.00    +0.000 C 
ATOM      3  C   UNL     1      -2.814  13.126  20.229  0.00  0.00    +0.000 C 
ATOM      4  C   UNL     1      -2.090  11.989  20.948  0.00  0.00    +0.000 C 
ATOM      5  C   UNL     1      -0.681  11.782  20.332  0.00  0.00    +0.000 C 
ATOM      6  N   UNL     1       0.013  10.694  21.031  0.00  0.00    +0.000 N 
ATOM      7  C   UNL     1       0.663   9.652  20.402  0.00  0.00    +0.000 A 
ATOM      8  C   UNL     1       1.287   9.880  19.050  0.00  0.00    +0.000 A 
ATOM      9  C   UNL     1       1.981   8.884  18.484  0.00  0.00    +0.000 A 
ATOM     10  N   UNL     1       2.043   7.655  19.176  0.00  0.00    +0.000 N 
ATOM     11  N   UNL     1       2.651   6.503  18.796  0.00  0.00    +0.000 NA
ATOM     12  C   UNL     1       2.307   5.669  19.782  0.00  0.00    +0.000 A 
ATOM     13  N   UNL     1       1.523   6.219  20.765  0.00  0.00    +0.000 NA
ATOM     14  C   UNL     1       1.393   7.474  20.399  0.00  0.00    +0.000 A 
ATOM     15  N   UNL     1       0.743   8.493  21.022  0.00  0.00    +0.000 NA
ATOM     16  C   UNL     1       0.086  10.886  22.488  0.00  0.00    +0.000 C 
ATOM     17  C   UNL     1      -1.308  11.170  23.074  0.00  0.00    +0.000 C 
ATOM     18  N   UNL     1      -2.006  12.295  22.392  0.00  0.00    +0.000 NA
ATOM     19  C   UNL     1      -3.312  12.515  23.021  0.00  0.00    +0.000 C 
ENDROOT
BRANCH  12  20
ATOM     20  C   UNL     1       2.737   4.238  19.809  0.00  0.00    +0.000 A 
ATOM     21  C   UNL     1       1.893   3.142  19.757  0.00  0.00    +0.000 A 
ATOM     22  C   UNL     1       2.714   1.988  19.806  0.00  0.00    +0.000 A 
ATOM     23  C   UNL     1       4.007   2.446  19.903  0.00  0.00    +0.000 A 
ATOM     24  O   UNL     1       4.033   3.803  19.887  0.00  0.00    +0.000 OA
ENDBRANCH  12  20
BRANCH   9  25
ATOM     25  N   UNL     1       2.631   9.000  17.265  0.00  0.00    +0.000 N 
ATOM     26  H   UNL     1       3.580   8.640  17.253  0.00  0.00    +0.000 HD
ATOM     27  H   UNL     1       2.544   9.940  16.867  0.00  0.00    +0.000 HD
ENDBRANCH   9  25
BRANCH   1  28
ATOM     28  C   UNL     1      -5.764  12.868  22.721  0.00  0.00    +0.000 C 
BRANCH  28  29
ATOM     29  N   UNL     1      -6.464  12.004  21.777  0.00  0.00    +0.000 NA
ATOM     30  H   UNL     1      -5.888  11.181  21.594  0.00  0.00    +0.000 HD
ATOM     31  H   UNL     1      -6.570  12.474  20.880  0.00  0.00    +0.000 HD
ENDBRANCH  28  29
ENDBRANCH   1  28
TORSDOF 4
ENDMDL
MODEL 8
REMARK VINA RESULT:      -6.2      3.210      9.722
REMARK  Name = 
REMARK  4 active torsions:
REMARK  status: ('A' for Active; 'I' for Inactive)
REMARK    1  A    between atoms: N_1  and  C_2
REMARK    2  A    between atoms: C_2  and  C_3
REMARK    3  A    between atoms: C_11  and  N_12
REMARK    4  A    between atoms: C_15  and  C_16
REMARK                            x       y       z     vdW  Elec       q    Type
REMARK                         _______ _______ _______ _____ _____    ______ ____
ROOT
ATOM      1  C   UNL     1      -5.772  14.657  22.481  0.00  0.00    +0.000 C 
ATOM      2  C   UNL     1      -5.564  14.590  20.960  0.00  0.00    +0.000 C 
ATOM      3  C   UNL     1      -4.098  14.644  20.569  0.00  0.00    +0.000 C 
ATOM      4  C   UNL     1      -3.333  13.538  21.294  0.00  0.00    +0.000 C 
ATOM      5  C   UNL     1      -1.882  13.453  20.753  0.00  0.00    +0.000 C 
ATOM      6  N   UNL     1      -1.148  12.395  21.457  0.00  0.00    +0.000 N 
ATOM      7  C   UNL     1      -0.390  11.424  20.835  0.00  0.00    +0.000 A 
ATOM      8  C   UNL     1       0.289  11.743  19.528  0.00  0.00    +0.000 A 
ATOM      9  C   UNL     1       1.084  10.819  18.973  0.00  0.00    +0.000 A 
ATOM     10  N   UNL     1       1.198   9.574  19.630  0.00  0.00    +0.000 N 
ATOM     11  N   UNL     1       1.909   8.483  19.251  0.00  0.00    +0.000 NA
ATOM     12  C   UNL     1       1.574   7.593  20.190  0.00  0.00    +0.000 A 
ATOM     13  N   UNL     1       0.699   8.051  21.142  0.00  0.00    +0.000 NA
ATOM     14  C   UNL     1       0.498   9.306  20.808  0.00  0.00    +0.000 A 
ATOM     15  N   UNL     1      -0.259  10.254  21.423  0.00  0.00    +0.000 NA
ATOM     16  C   UNL     1      -1.169  12.542  22.921  0.00  0.00    +0.000 C 
ATOM     17  C   UNL     1      -2.610  12.705  23.435  0.00  0.00    +0.000 C 
ATOM     18  N   UNL     1      -3.351  13.799  22.748  0.00  0.00    +0.000 NA
ATOM     19  C   UNL     1      -4.701  13.904  23.308  0.00  0.00    +0.000 C 
ENDROOT
BRANCH  12  20
ATOM     20  C   UNL     1       2.106   6.196  20.198  0.00  0.00    +0.000 A 
ATOM     21  C   UNL     1       1.395   5.066  20.562  0.00  0.00    +0.000 A 
ATOM     22  C   UNL     1       2.276   3.964  20.421  0.00  0.00    +0.000 A 
ATOM     23  C   UNL     1       3.474   4.487  19.999  0.00  0.00    +0.000 A 
ATOM     24  O   UNL     1       3.378   5.832  19.844  0.00  0.00    +0.000 OA
ENDBRANCH  12  20
BRANCH   9  25
ATOM     25  N   UNL     1       1.790  11.023  17.797  0.00  0.00    +0.000 N 
ATOM     26  H   UNL     1       2.299  11.899  17.753  0.00  0.00    +0.000 HD
ATOM     27  H   UNL     1       1.220  10.837  16.966  0.00  0.00    +0.000 HD
ENDBRANCH   9  25
BRANCH   1  28
ATOM     28  C   UNL     1      -7.153  14.089  22.879  0.00  0.00    +0.000 C 
BRANCH  28  29
ATOM     29  N   UNL     1      -7.122  13.270  24.085  0.00  0.00    +0.000 NA
ATOM     30  H   UNL     1      -7.996  13.403  24.596  0.00  0.00    +0.000 HD
ATOM     31  H   UNL     1      -6.383  13.589  24.710  0.00  0.00    +0.000 HD
ENDBRANCH  28  29
ENDBRANCH   1  28
TORSDOF 4
ENDMDL
MODEL 9
REMARK VINA RESULT:      -6.2      1.330      1.626
REMARK  Name = 
REMARK  4 active torsions:
REMARK  status: ('A' for Active; 'I' for Inactive)
REMARK    1  A    between atoms: N_1  and  C_2
REMARK    2  A    between atoms: C_2  and  C_3
REMARK    3  A    between atoms: C_11  and  N_12
REMARK    4  A    between atoms: C_15  and  C_16
REMARK                            x       y       z     vdW  Elec       q    Type
REMARK                         _______ _______ _______ _____ _____    ______ ____
ROOT
ATOM      1  C   UNL     1       4.990   5.431  18.396  0.00  0.00    +0.000 C 
ATOM      2  C   UNL     1       5.065   6.578  17.377  0.00  0.00    +0.000 C 
ATOM      3  C   UNL     1       3.702   7.173  17.069  0.00  0.00    +0.000 C 
ATOM      4  C   UNL     1       3.031   7.614  18.368  0.00  0.00    +0.000 C 
ATOM      5  C   UNL     1       1.733   8.404  18.054  0.00  0.00    +0.000 C 
ATOM      6  N   UNL     1       1.086   8.819  19.304  0.00  0.00    +0.000 N 
ATOM      7  C   UNL     1       0.631  10.096  19.562  0.00  0.00    +0.000 A 
ATOM      8  C   UNL     1       0.144  10.949  18.419  0.00  0.00    +0.000 A 
ATOM      9  C   UNL     1      -0.367  12.158  18.690  0.00  0.00    +0.000 A 
ATOM     10  N   UNL     1      -0.373  12.579  20.037  0.00  0.00    +0.000 N 
ATOM     11  N   UNL     1      -0.804  13.758  20.550  0.00  0.00    +0.000 NA
ATOM     12  C   UNL     1      -0.485  13.632  21.842  0.00  0.00    +0.000 A 
ATOM     13  N   UNL     1       0.117  12.447  22.182  0.00  0.00    +0.000 NA
ATOM     14  C   UNL     1       0.149  11.775  21.053  0.00  0.00    +0.000 A 
ATOM     15  N   UNL     1       0.608  10.519  20.808  0.00  0.00    +0.000 NA
ATOM     16  C   UNL     1       0.827   7.704  20.228  0.00  0.00    +0.000 C 
ATOM     17  C   UNL     1       2.106   6.882  20.468  0.00  0.00    +0.000 C 
ATOM     18  N   UNL     1       2.749   6.429  19.204  0.00  0.00    +0.000 NA
ATOM     19  C   UNL     1       3.942   5.637  19.517  0.00  0.00    +0.000 C 
ENDROOT
BRANCH  12  20
ATOM     20  C   UNL     1      -0.755  14.708  22.844  0.00  0.00    +0.000 A 
ATOM     21  C   UNL     1      -1.167  14.508  24.150  0.00  0.00    +0.000 A 
ATOM     22  C   UNL     1      -1.299  15.789  24.740  0.00  0.00    +0.000 A 
ATOM     23  C   UNL     1      -0.979  16.695  23.757  0.00  0.00    +0.000 A 
ATOM     24  O   UNL     1      -0.632  16.052  22.613  0.00  0.00    +0.000 OA
ENDBRANCH  12  20
BRANCH   9  25
ATOM     25  N   UNL     1      -0.884  13.005  17.721  0.00  0.00    +0.000 N 
ATOM     26  H   UNL     1      -1.474  13.750  18.078  0.00  0.00    +0.000 HD
ATOM     27  H   UNL     1      -1.299  12.491  16.938  0.00  0.00    +0.000 HD
ENDBRANCH   9  25
BRANCH   1  28
ATOM     28  C   UNL     1       6.359   5.201  19.075  0.00  0.00    +0.000 C 
BRANCH  28  29
ATOM     29  N   UNL     1       7.272   4.381  18.286  0.00  0.00    +0.000 NA
ATOM     30  H   UNL     1       6.784   3.533  17.994  0.00  0.00    +0.000 HD
ATOM     31  H   UNL     1       8.053   4.069  18.861  0.00  0.00    +0.000 HD
ENDBRANCH  28  29
ENDBRANCH   1  28
TORSDOF 4
ENDMDL
