MODEL 1
REMARK VINA RESULT:      -7.8      0.000      0.000
REMARK  Name = 
REMARK  8 active torsions:
REMARK  status: ('A' for Active; 'I' for Inactive)
REMARK    1  A    between atoms: C_1  and  O_2
REMARK    2  A    between atoms: O_2  and  C_3
REMARK    3  A    between atoms: C_5  and  C_6
REMARK    4  A    between atoms: C_9  and  C_10
REMARK    5  A    between atoms: C_19  and  O_20
REMARK    6  A    between atoms: O_20  and  C_21
REMARK    7  A    between atoms: C_22  and  O_23
REMARK    8  A    between atoms: O_23  and  C_24
REMARK                            x       y       z     vdW  Elec       q    Type
REMARK                         _______ _______ _______ _____ _____    ______ ____
ROOT
ATOM      1  C   UNL     1       3.879   4.484  17.221  0.00  0.00    +0.000 A 
ATOM      2  C   UNL     1       3.065   5.433  17.861  0.00  0.00    +0.000 A 
ATOM      3  C   UNL     1       3.433   6.773  17.912  0.00  0.00    +0.000 A 
ATOM      4  C   UNL     1       4.694   7.134  17.439  0.00  0.00    +0.000 A 
ATOM      5  C   UNL     1       5.569   6.191  16.884  0.00  0.00    +0.000 A 
ATOM      6  C   UNL     1       5.160   4.845  16.745  0.00  0.00    +0.000 A 
ENDROOT
BRANCH   3   7
ATOM      7  C   UNL     1       2.494   7.794  18.351  0.00  0.00    +0.000 A 
ATOM      8  N   UNL     1       2.184   8.890  17.639  0.00  0.00    +0.000 NA
ATOM      9  O   UNL     1       1.407   9.644  18.517  0.00  0.00    +0.000 OA
ATOM     10  C   UNL     1       1.318   8.924  19.675  0.00  0.00    +0.000 A 
ATOM     11  N   UNL     1       1.953   7.781  19.617  0.00  0.00    +0.000 NA
BRANCH  10  12
ATOM     12  C   UNL     1       0.596   9.521  20.785  0.00  0.00    +0.000 A 
ATOM     13  C   UNL     1       0.638   8.987  22.082  0.00  0.00    +0.000 A 
ATOM     14  C   UNL     1      -0.073   9.588  23.125  0.00  0.00    +0.000 A 
ATOM     15  C   UNL     1      -0.829  10.733  22.881  0.00  0.00    +0.000 A 
ATOM     16  C   UNL     1      -0.880  11.269  21.598  0.00  0.00    +0.000 A 
ATOM     17 CL   UNL     1      -1.819  12.679  21.296  0.00  0.00    +0.000 Cl
ATOM     18  C   UNL     1      -0.173  10.670  20.556  0.00  0.00    +0.000 A 
ENDBRANCH  10  12
ENDBRANCH   3   7
BRANCH   1  20
ATOM     19  C   UNL     1       3.623   2.351  18.226  0.00  0.00    +0.000 C 
ATOM     20  O   UNL     1       3.430   3.194  17.087  0.00  0.00    +0.000 OA
ENDBRANCH   1  20
BRANCH   5  21
ATOM     21  O   UNL     1       6.743   6.784  16.499  0.00  0.00    +0.000 OA
ATOM     22  C   UNL     1       7.524   7.487  17.451  0.00  0.00    +0.000 C 
ENDBRANCH   5  21
BRANCH   6  23
ATOM     23  O   UNL     1       6.067   3.997  16.171  0.00  0.00    +0.000 OA
ATOM     24  C   UNL     1       6.164   3.892  14.762  0.00  0.00    +0.000 C 
ENDBRANCH   6  23
TORSDOF 5
ENDMDL
MODEL 2
REMARK VINA RESULT:      -7.6      0.592      2.623
REMARK  Name = 
REMARK  8 active torsions:
REMARK  status: ('A' for Active; 'I' for Inactive)
REMARK    1  A    between atoms: C_1  and  O_2
REMARK    2  A    between atoms: O_2  and  C_3
REMARK    3  A    between atoms: C_5  and  C_6
REMARK    4  A    between atoms: C_9  and  C_10
REMARK    5  A    between atoms: C_19  and  O_20
REMARK    6  A    between atoms: O_20  and  C_21
REMARK    7  A    between atoms: C_22  and  O_23
REMARK    8  A    between atoms: O_23  and  C_24
REMARK                            x       y       z     vdW  Elec       q    Type
REMARK                         _______ _______ _______ _____ _____    ______ ____
ROOT
ATOM      1  C   UNL     1       5.339   6.548  16.932  0.00  0.00    +0.000 A 
ATOM      2  C   UNL     1       4.341   7.496  17.211  0.00  0.00    +0.000 A 
ATOM      3  C   UNL     1       3.141   7.117  17.801  0.00  0.00    +0.000 A 
ATOM      4  C   UNL     1       2.887   5.758  17.981  0.00  0.00    +0.000 A 
ATOM      5  C   UNL     1       3.826   4.781  17.621  0.00  0.00    +0.000 A 
ATOM      6  C   UNL     1       5.085   5.169  17.108  0.00  0.00    +0.000 A 
ENDROOT
BRANCH   3   7
ATOM      7  C   UNL     1       2.209   8.111  18.315  0.00  0.00    +0.000 A 
ATOM      8  N   UNL     1       1.864   9.231  17.660  0.00  0.00    +0.000 NA
ATOM      9  O   UNL     1       1.112   9.940  18.594  0.00  0.00    +0.000 OA
ATOM     10  C   UNL     1       1.070   9.173  19.724  0.00  0.00    +0.000 A 
ATOM     11  N   UNL     1       1.712   8.040  19.597  0.00  0.00    +0.000 NA
BRANCH  10  12
ATOM     12  C   UNL     1       0.381   9.717  20.882  0.00  0.00    +0.000 A 
ATOM     13  C   UNL     1       0.396   9.078  22.132  0.00  0.00    +0.000 A 
ATOM     14  C   UNL     1      -0.281   9.631  23.223  0.00  0.00    +0.000 A 
ATOM     15  C   UNL     1      -0.974  10.830  23.075  0.00  0.00    +0.000 A 
ATOM     16  C   UNL     1      -0.997  11.470  21.840  0.00  0.00    +0.000 A 
ATOM     17 CL   UNL     1      -1.859  12.949  21.658  0.00  0.00    +0.000 Cl
ATOM     18  C   UNL     1      -0.324  10.920  20.750  0.00  0.00    +0.000 A 
ENDBRANCH  10  12
ENDBRANCH   3   7
BRANCH   1  20
ATOM     19  C   UNL     1       7.479   7.431  17.450  0.00  0.00    +0.000 C 
ATOM     20  O   UNL     1       6.556   6.971  16.459  0.00  0.00    +0.000 OA
ENDBRANCH   1  20
BRANCH   5  21
ATOM     21  O   UNL     1       3.347   3.525  17.888  0.00  0.00    +0.000 OA
ATOM     22  C   UNL     1       1.964   3.335  18.136  0.00  0.00    +0.000 C 
ENDBRANCH   5  21
BRANCH   6  23
ATOM     23  O   UNL     1       5.948   4.151  16.805  0.00  0.00    +0.000 OA
ATOM     24  C   UNL     1       6.233   3.827  15.456  0.00  0.00    +0.000 C 
ENDBRANCH   6  23
TORSDOF 5
ENDMDL
MODEL 3
REMARK VINA RESULT:      -7.2      2.075      2.470
REMARK  Name = 
REMARK  8 active torsions:
REMARK  status: ('A' for Active; 'I' for Inactive)
REMARK    1  A    between atoms: C_1  and  O_2
REMARK    2  A    between atoms: O_2  and  C_3
REMARK    3  A    between atoms: C_5  and  C_6
REMARK    4  A    between atoms: C_9  and  C_10
REMARK    5  A    between atoms: C_19  and  O_20
REMARK    6  A    between atoms: O_20  and  C_21
REMARK    7  A    between atoms: C_22  and  O_23
REMARK    8  A    between atoms: O_23  and  C_24
REMARK                            x       y       z     vdW  Elec       q    Type
REMARK                         _______ _______ _______ _____ _____    ______ ____
ROOT
ATOM      1  C   UNL     1       3.645   4.261  17.191  0.00  0.00    +0.000 A 
ATOM      2  C   UNL     1       2.942   5.200  17.963  0.00  0.00    +0.000 A 
ATOM      3  C   UNL     1       3.394   6.510  18.081  0.00  0.00    +0.000 A 
ATOM      4  C   UNL     1       4.634   6.837  17.535  0.00  0.00    +0.000 A 
ATOM      5  C   UNL     1       5.406   5.893  16.844  0.00  0.00    +0.000 A 
ATOM      6  C   UNL     1       4.906   4.587  16.641  0.00  0.00    +0.000 A 
ENDROOT
BRANCH   3   7
ATOM      7  C   UNL     1       2.555   7.545  18.668  0.00  0.00    +0.000 A 
ATOM      8  N   UNL     1       2.133   7.541  19.943  0.00  0.00    +0.000 NA
ATOM      9  O   UNL     1       1.234   8.604  19.995  0.00  0.00    +0.000 OA
ATOM     10  C   UNL     1       1.207   9.153  18.744  0.00  0.00    +0.000 A 
ATOM     11  N   UNL     1       2.008   8.550  17.903  0.00  0.00    +0.000 NA
BRANCH  10  12
ATOM     12  C   UNL     1       0.295  10.261  18.514  0.00  0.00    +0.000 A 
ATOM     13  C   UNL     1       0.615  11.582  18.863  0.00  0.00    +0.000 A 
ATOM     14  C   UNL     1      -0.290  12.621  18.629  0.00  0.00    +0.000 A 
ATOM     15  C   UNL     1      -1.523  12.349  18.039  0.00  0.00    +0.000 A 
ATOM     16  C   UNL     1      -1.852  11.042  17.692  0.00  0.00    +0.000 A 
ATOM     17 CL   UNL     1      -3.377  10.707  16.969  0.00  0.00    +0.000 Cl
ATOM     18  C   UNL     1      -0.951  10.004  17.926  0.00  0.00    +0.000 A 
ENDBRANCH  10  12
ENDBRANCH   3   7
BRANCH   1  20
ATOM     19  C   UNL     1       2.297   2.518  18.068  0.00  0.00    +0.000 C 
ATOM     20  O   UNL     1       3.110   3.012  17.001  0.00  0.00    +0.000 OA
ENDBRANCH   1  20
BRANCH   5  21
ATOM     21  O   UNL     1       6.581   6.449  16.410  0.00  0.00    +0.000 OA
ATOM     22  C   UNL     1       7.450   7.077  17.338  0.00  0.00    +0.000 C 
ENDBRANCH   5  21
BRANCH   6  23
ATOM     23  O   UNL     1       5.714   3.737  15.936  0.00  0.00    +0.000 OA
ATOM     24  C   UNL     1       5.974   3.965  14.563  0.00  0.00    +0.000 C 
ENDBRANCH   6  23
TORSDOF 5
ENDMDL
MODEL 4
REMARK VINA RESULT:      -7.2      1.115      3.099
REMARK  Name = 
REMARK  8 active torsions:
REMARK  status: ('A' for Active; 'I' for Inactive)
REMARK    1  A    between atoms: C_1  and  O_2
REMARK    2  A    between atoms: O_2  and  C_3
REMARK    3  A    between atoms: C_5  and  C_6
REMARK    4  A    between atoms: C_9  and  C_10
REMARK    5  A    between atoms: C_19  and  O_20
REMARK    6  A    between atoms: O_20  and  C_21
REMARK    7  A    between atoms: C_22  and  O_23
REMARK    8  A    between atoms: O_23  and  C_24
REMARK                            x       y       z     vdW  Elec       q    Type
REMARK                         _______ _______ _______ _____ _____    ______ ____
ROOT
ATOM      1  C   UNL     1       5.298   5.965  16.845  0.00  0.00    +0.000 A 
ATOM      2  C   UNL     1       4.422   6.807  17.551  0.00  0.00    +0.000 A 
ATOM      3  C   UNL     1       3.284   6.299  18.166  0.00  0.00    +0.000 A 
ATOM      4  C   UNL     1       2.951   4.962  17.950  0.00  0.00    +0.000 A 
ATOM      5  C   UNL     1       3.754   4.122  17.167  0.00  0.00    +0.000 A 
ATOM      6  C   UNL     1       4.962   4.611  16.619  0.00  0.00    +0.000 A 
ENDROOT
BRANCH   3   7
ATOM      7  C   UNL     1       2.508   7.106  19.096  0.00  0.00    +0.000 A 
ATOM      8  N   UNL     1       2.114   6.688  20.310  0.00  0.00    +0.000 NA
ATOM      9  O   UNL     1       1.268   7.705  20.749  0.00  0.00    +0.000 OA
ATOM     10  C   UNL     1       1.240   8.644  19.757  0.00  0.00    +0.000 A 
ATOM     11  N   UNL     1       1.993   8.330  18.734  0.00  0.00    +0.000 NA
BRANCH  10  12
ATOM     12  C   UNL     1       0.376   9.797  19.946  0.00  0.00    +0.000 A 
ATOM     13  C   UNL     1      -0.088  10.571  18.872  0.00  0.00    +0.000 A 
ATOM     14  C   UNL     1      -0.915  11.676  19.093  0.00  0.00    +0.000 A 
ATOM     15  C   UNL     1      -1.289  12.014  20.392  0.00  0.00    +0.000 A 
ATOM     16  C   UNL     1      -0.832  11.256  21.465  0.00  0.00    +0.000 A 
ATOM     17 CL   UNL     1      -1.290  11.678  23.069  0.00  0.00    +0.000 Cl
ATOM     18  C   UNL     1      -0.006  10.153  21.246  0.00  0.00    +0.000 A 
ENDBRANCH  10  12
ENDBRANCH   3   7
BRANCH   1  20
ATOM     19  C   UNL     1       7.362   7.031  17.323  0.00  0.00    +0.000 C 
ATOM     20  O   UNL     1       6.471   6.478  16.350  0.00  0.00    +0.000 OA
ENDBRANCH   1  20
BRANCH   5  21
ATOM     21  O   UNL     1       3.218   2.862  17.098  0.00  0.00    +0.000 OA
ATOM     22  C   UNL     1       3.267   2.012  18.232  0.00  0.00    +0.000 C 
ENDBRANCH   5  21
BRANCH   6  23
ATOM     23  O   UNL     1       5.695   3.717  15.888  0.00  0.00    +0.000 OA
ATOM     24  C   UNL     1       5.927   3.933  14.508  0.00  0.00    +0.000 C 
ENDBRANCH   6  23
TORSDOF 5
ENDMDL
MODEL 5
REMARK VINA RESULT:      -7.1      1.302      2.991
REMARK  Name = 
REMARK  8 active torsions:
REMARK  status: ('A' for Active; 'I' for Inactive)
REMARK    1  A    between atoms: C_1  and  O_2
REMARK    2  A    between atoms: O_2  and  C_3
REMARK    3  A    between atoms: C_5  and  C_6
REMARK    4  A    between atoms: C_9  and  C_10
REMARK    5  A    between atoms: C_19  and  O_20
REMARK    6  A    between atoms: O_20  and  C_21
REMARK    7  A    between atoms: C_22  and  O_23
REMARK    8  A    between atoms: O_23  and  C_24
REMARK                            x       y       z     vdW  Elec       q    Type
REMARK                         _______ _______ _______ _____ _____    ______ ____
ROOT
ATOM      1  C   UNL     1       5.034   6.063  16.984  0.00  0.00    +0.000 A 
ATOM      2  C   UNL     1       4.162   6.702  17.879  0.00  0.00    +0.000 A 
ATOM      3  C   UNL     1       3.165   5.990  18.537  0.00  0.00    +0.000 A 
ATOM      4  C   UNL     1       2.955   4.658  18.183  0.00  0.00    +0.000 A 
ATOM      5  C   UNL     1       3.747   4.020  17.219  0.00  0.00    +0.000 A 
ATOM      6  C   UNL     1       4.822   4.714  16.618  0.00  0.00    +0.000 A 
ENDROOT
BRANCH   3   7
ATOM      7  C   UNL     1       2.421   6.582  19.639  0.00  0.00    +0.000 A 
ATOM      8  N   UNL     1       1.828   5.875  20.615  0.00  0.00    +0.000 NA
ATOM      9  O   UNL     1       1.104   6.832  21.322  0.00  0.00    +0.000 OA
ATOM     10  C   UNL     1       1.337   8.030  20.707  0.00  0.00    +0.000 A 
ATOM     11  N   UNL     1       2.147   7.930  19.684  0.00  0.00    +0.000 NA
BRANCH  10  12
ATOM     12  C   UNL     1       0.647   9.199  21.226  0.00  0.00    +0.000 A 
ATOM     13  C   UNL     1      -0.097   9.165  22.415  0.00  0.00    +0.000 A 
ATOM     14  C   UNL     1      -0.751  10.310  22.880  0.00  0.00    +0.000 A 
ATOM     15  C   UNL     1      -0.661  11.501  22.163  0.00  0.00    +0.000 A 
ATOM     16  C   UNL     1       0.071  11.544  20.980  0.00  0.00    +0.000 A 
ATOM     17 CL   UNL     1       0.176  13.015  20.092  0.00  0.00    +0.000 Cl
ATOM     18  C   UNL     1       0.723  10.403  20.514  0.00  0.00    +0.000 A 
ENDBRANCH  10  12
ENDBRANCH   3   7
BRANCH   1  20
ATOM     19  C   UNL     1       7.138   7.095  17.347  0.00  0.00    +0.000 C 
ATOM     20  O   UNL     1       6.079   6.769  16.443  0.00  0.00    +0.000 OA
ENDBRANCH   1  20
BRANCH   5  21
ATOM     21  O   UNL     1       3.346   2.722  17.042  0.00  0.00    +0.000 OA
ATOM     22  C   UNL     1       2.685   2.038  18.093  0.00  0.00    +0.000 C 
ENDBRANCH   5  21
BRANCH   6  23
ATOM     23  O   UNL     1       5.558   4.008  15.706  0.00  0.00    +0.000 OA
ATOM     24  C   UNL     1       5.453   4.292  14.322  0.00  0.00    +0.000 C 
ENDBRANCH   6  23
TORSDOF 5
ENDMDL
MODEL 6
REMARK VINA RESULT:      -7.1      1.824      2.768
REMARK  Name = 
REMARK  8 active torsions:
REMARK  status: ('A' for Active; 'I' for Inactive)
REMARK    1  A    between atoms: C_1  and  O_2
REMARK    2  A    between atoms: O_2  and  C_3
REMARK    3  A    between atoms: C_5  and  C_6
REMARK    4  A    between atoms: C_9  and  C_10
REMARK    5  A    between atoms: C_19  and  O_20
REMARK    6  A    between atoms: O_20  and  C_21
REMARK    7  A    between atoms: C_22  and  O_23
REMARK    8  A    between atoms: O_23  and  C_24
REMARK                            x       y       z     vdW  Elec       q    Type
REMARK                         _______ _______ _______ _____ _____    ______ ____
ROOT
ATOM      1  C   UNL     1       2.908   4.556  19.855  0.00  0.00    +0.000 A 
ATOM      2  C   UNL     1       2.520   5.903  19.765  0.00  0.00    +0.000 A 
ATOM      3  C   UNL     1       2.872   6.676  18.664  0.00  0.00    +0.000 A 
ATOM      4  C   UNL     1       3.739   6.131  17.718  0.00  0.00    +0.000 A 
ATOM      5  C   UNL     1       4.223   4.821  17.833  0.00  0.00    +0.000 A 
ATOM      6  C   UNL     1       3.791   4.001  18.901  0.00  0.00    +0.000 A 
ENDROOT
BRANCH   3   7
ATOM      7  C   UNL     1       2.277   7.986  18.444  0.00  0.00    +0.000 A 
ATOM      8  N   UNL     1       2.500   8.743  17.357  0.00  0.00    +0.000 NA
ATOM      9  O   UNL     1       1.879   9.952  17.665  0.00  0.00    +0.000 OA
ATOM     10  C   UNL     1       1.334   9.804  18.909  0.00  0.00    +0.000 A 
ATOM     11  N   UNL     1       1.537   8.616  19.419  0.00  0.00    +0.000 NA
BRANCH  10  12
ATOM     12  C   UNL     1       0.666  10.955  19.493  0.00  0.00    +0.000 A 
ATOM     13  C   UNL     1       0.525  12.170  18.805  0.00  0.00    +0.000 A 
ATOM     14  C   UNL     1      -0.121  13.257  19.401  0.00  0.00    +0.000 A 
ATOM     15  C   UNL     1      -0.637  13.137  20.689  0.00  0.00    +0.000 A 
ATOM     16  C   UNL     1      -0.500  11.938  21.382  0.00  0.00    +0.000 A 
ATOM     17 CL   UNL     1      -1.132  11.793  22.976  0.00  0.00    +0.000 Cl
ATOM     18  C   UNL     1       0.145  10.853  20.789  0.00  0.00    +0.000 A 
ENDBRANCH  10  12
ENDBRANCH   3   7
BRANCH   1  20
ATOM     19  C   UNL     1       1.114   3.288  20.749  0.00  0.00    +0.000 C 
ATOM     20  O   UNL     1       2.445   3.791  20.896  0.00  0.00    +0.000 OA
ENDBRANCH   1  20
BRANCH   5  21
ATOM     21  O   UNL     1       5.058   4.517  16.790  0.00  0.00    +0.000 OA
ATOM     22  C   UNL     1       5.317   5.487  15.789  0.00  0.00    +0.000 C 
ENDBRANCH   5  21
BRANCH   6  23
ATOM     23  O   UNL     1       4.294   2.729  18.923  0.00  0.00    +0.000 OA
ATOM     24  C   UNL     1       3.563   1.655  18.360  0.00  0.00    +0.000 C 
ENDBRANCH   6  23
TORSDOF 5
ENDMDL
MODEL 7
REMARK VINA RESULT:      -7.1      4.194      8.518
REMARK  Name = 
REMARK  8 active torsions:
REMARK  status: ('A' for Active; 'I' for Inactive)
REMARK    1  A    between atoms: C_1  and  O_2
REMARK    2  A    between atoms: O_2  and  C_3
REMARK    3  A    between atoms: C_5  and  C_6
REMARK    4  A    between atoms: C_9  and  C_10
REMARK    5  A    between atoms: C_19  and  O_20
REMARK    6  A    between atoms: O_20  and  C_21
REMARK    7  A    between atoms: C_22  and  O_23
REMARK    8  A    between atoms: O_23  and  C_24
REMARK                            x       y       z     vdW  Elec       q    Type
REMARK                         _______ _______ _______ _____ _____    ______ ____
ROOT
ATOM      1  C   UNL     1       2.554   5.252  20.513  0.00  0.00    +0.000 A 
ATOM      2  C   UNL     1       3.436   4.776  19.529  0.00  0.00    +0.000 A 
ATOM      3  C   UNL     1       3.832   5.587  18.471  0.00  0.00    +0.000 A 
ATOM      4  C   UNL     1       3.226   6.835  18.327  0.00  0.00    +0.000 A 
ATOM      5  C   UNL     1       2.268   7.297  19.240  0.00  0.00    +0.000 A 
ATOM      6  C   UNL     1       1.934   6.514  20.368  0.00  0.00    +0.000 A 
ENDROOT
BRANCH   3   7
ATOM      7  C   UNL     1       4.922   5.196  17.591  0.00  0.00    +0.000 A 
ATOM      8  N   UNL     1       6.215   5.178  17.953  0.00  0.00    +0.000 NA
ATOM      9  O   UNL     1       6.888   4.921  16.760  0.00  0.00    +0.000 OA
ATOM     10  C   UNL     1       5.932   4.800  15.792  0.00  0.00    +0.000 A 
ATOM     11  N   UNL     1       4.715   4.945  16.253  0.00  0.00    +0.000 NA
BRANCH  10  12
ATOM     12  C   UNL     1       6.379   4.579  14.427  0.00  0.00    +0.000 A 
ATOM     13  C   UNL     1       7.432   5.310  13.855  0.00  0.00    +0.000 A 
ATOM     14  C   UNL     1       7.832   5.072  12.537  0.00  0.00    +0.000 A 
ATOM     15  C   UNL     1       7.186   4.096  11.781  0.00  0.00    +0.000 A 
ATOM     16  C   UNL     1       6.139   3.368  12.337  0.00  0.00    +0.000 A 
ATOM     17 CL   UNL     1       5.339   2.167  11.400  0.00  0.00    +0.000 Cl
ATOM     18  C   UNL     1       5.738   3.605  13.651  0.00  0.00    +0.000 A 
ENDBRANCH  10  12
ENDBRANCH   3   7
BRANCH   1  20
ATOM     19  C   UNL     1       1.759   3.166  21.314  0.00  0.00    +0.000 C 
ATOM     20  O   UNL     1       2.276   4.467  21.604  0.00  0.00    +0.000 OA
ENDBRANCH   1  20
BRANCH   5  21
ATOM     21  O   UNL     1       1.817   8.541  18.883  0.00  0.00    +0.000 OA
ATOM     22  C   UNL     1       2.186   9.093  17.630  0.00  0.00    +0.000 C 
ENDBRANCH   5  21
BRANCH   6  23
ATOM     23  O   UNL     1       1.007   7.052  21.219  0.00  0.00    +0.000 OA
ATOM     24  C   UNL     1       1.152   8.377  21.697  0.00  0.00    +0.000 C 
ENDBRANCH   6  23
TORSDOF 5
ENDMDL
MODEL 8
REMARK VINA RESULT:      -7.1      1.235      2.977
REMARK  Name = 
REMARK  8 active torsions:
REMARK  status: ('A' for Active; 'I' for Inactive)
REMARK    1  A    between atoms: C_1  and  O_2
REMARK    2  A    between atoms: O_2  and  C_3
REMARK    3  A    between atoms: C_5  and  C_6
REMARK    4  A    between atoms: C_9  and  C_10
REMARK    5  A    between atoms: C_19  and  O_20
REMARK    6  A    between atoms: O_20  and  C_21
REMARK    7  A    between atoms: C_22  and  O_23
REMARK    8  A    between atoms: O_23  and  C_24
REMARK                            x       y       z     vdW  Elec       q    Type
REMARK                         _______ _______ _______ _____ _____    ______ ____
ROOT
ATOM      1  C   UNL     1       5.201   6.070  16.913  0.00  0.00    +0.000 A 
ATOM      2  C   UNL     1       4.311   6.842  17.679  0.00  0.00    +0.000 A 
ATOM      3  C   UNL     1       3.230   6.254  18.326  0.00  0.00    +0.000 A 
ATOM      4  C   UNL     1       2.964   4.906  18.086  0.00  0.00    +0.000 A 
ATOM      5  C   UNL     1       3.778   4.134  17.246  0.00  0.00    +0.000 A 
ATOM      6  C   UNL     1       4.932   4.706  16.662  0.00  0.00    +0.000 A 
ENDROOT
BRANCH   3   7
ATOM      7  C   UNL     1       2.452   6.990  19.311  0.00  0.00    +0.000 A 
ATOM      8  N   UNL     1       1.985   6.461  20.454  0.00  0.00    +0.000 NA
ATOM      9  O   UNL     1       1.168   7.463  20.971  0.00  0.00    +0.000 OA
ATOM     10  C   UNL     1       1.226   8.507  20.092  0.00  0.00    +0.000 A 
ATOM     11  N   UNL     1       2.009   8.271  19.070  0.00  0.00    +0.000 NA
BRANCH  10  12
ATOM     12  C   UNL     1       0.408   9.674  20.376  0.00  0.00    +0.000 A 
ATOM     13  C   UNL     1       0.406  10.302  21.631  0.00  0.00    +0.000 A 
ATOM     14  C   UNL     1      -0.397  11.421  21.867  0.00  0.00    +0.000 A 
ATOM     15  C   UNL     1      -1.201  11.926  20.849  0.00  0.00    +0.000 A 
ATOM     16  C   UNL     1      -1.210  11.310  19.601  0.00  0.00    +0.000 A 
ATOM     17 CL   UNL     1      -2.209  11.931  18.346  0.00  0.00    +0.000 Cl
ATOM     18  C   UNL     1      -0.410  10.192  19.363  0.00  0.00    +0.000 A 
ENDBRANCH  10  12
ENDBRANCH   3   7
BRANCH   1  20
ATOM     19  C   UNL     1       7.363   6.956  17.320  0.00  0.00    +0.000 C 
ATOM     20  O   UNL     1       6.321   6.662  16.386  0.00  0.00    +0.000 OA
ENDBRANCH   1  20
BRANCH   5  21
ATOM     21  O   UNL     1       3.311   2.849  17.163  0.00  0.00    +0.000 OA
ATOM     22  C   UNL     1       3.430   1.981  18.279  0.00  0.00    +0.000 C 
ENDBRANCH   5  21
BRANCH   6  23
ATOM     23  O   UNL     1       5.682   3.875  15.876  0.00  0.00    +0.000 OA
ATOM     24  C   UNL     1       5.776   4.094  14.481  0.00  0.00    +0.000 C 
ENDBRANCH   6  23
TORSDOF 5
ENDMDL
MODEL 9
REMARK VINA RESULT:      -7.1      2.587      4.204
REMARK  Name = 
REMARK  8 active torsions:
REMARK  status: ('A' for Active; 'I' for Inactive)
REMARK    1  A    between atoms: C_1  and  O_2
REMARK    2  A    between atoms: O_2  and  C_3
REMARK    3  A    between atoms: C_5  and  C_6
REMARK    4  A    between atoms: C_9  and  C_10
REMARK    5  A    between atoms: C_19  and  O_20
REMARK    6  A    between atoms: O_20  and  C_21
REMARK    7  A    between atoms: C_22  and  O_23
REMARK    8  A    between atoms: O_23  and  C_24
REMARK                            x       y       z     vdW  Elec       q    Type
REMARK                         _______ _______ _______ _____ _____    ______ ____
ROOT
ATOM      1  C   UNL     1       4.198   4.920  18.896  0.00  0.00    +0.000 A 
ATOM      2  C   UNL     1       3.578   6.176  19.000  0.00  0.00    +0.000 A 
ATOM      3  C   UNL     1       2.382   6.328  19.693  0.00  0.00    +0.000 A 
ATOM      4  C   UNL     1       1.735   5.185  20.161  0.00  0.00    +0.000 A 
ATOM      5  C   UNL     1       2.282   3.906  19.984  0.00  0.00    +0.000 A 
ATOM      6  C   UNL     1       3.543   3.758  19.364  0.00  0.00    +0.000 A 
ENDROOT
BRANCH   3   7
ATOM      7  C   UNL     1       1.862   7.648  20.015  0.00  0.00    +0.000 A 
ATOM      8  N   UNL     1       1.378   7.995  21.219  0.00  0.00    +0.000 NA
ATOM      9  O   UNL     1       0.843   9.264  21.005  0.00  0.00    +0.000 OA
ATOM     10  C   UNL     1       1.064   9.564  19.691  0.00  0.00    +0.000 A 
ATOM     11  N   UNL     1       1.696   8.614  19.049  0.00  0.00    +0.000 NA
BRANCH  10  12
ATOM     12  C   UNL     1       0.548  10.828  19.192  0.00  0.00    +0.000 A 
ATOM     13  C   UNL     1      -0.793  10.994  18.814  0.00  0.00    +0.000 A 
ATOM     14  C   UNL     1      -1.252  12.224  18.336  0.00  0.00    +0.000 A 
ATOM     15  C   UNL     1      -0.375  13.302  18.236  0.00  0.00    +0.000 A 
ATOM     16  C   UNL     1       0.958  13.147  18.604  0.00  0.00    +0.000 A 
ATOM     17 CL   UNL     1       2.042  14.477  18.474  0.00  0.00    +0.000 Cl
ATOM     18  C   UNL     1       1.418  11.920  19.081  0.00  0.00    +0.000 A 
ENDBRANCH  10  12
ENDBRANCH   3   7
BRANCH   1  20
ATOM     19  C   UNL     1       6.521   5.368  19.063  0.00  0.00    +0.000 C 
ATOM     20  O   UNL     1       5.434   4.827  18.307  0.00  0.00    +0.000 OA
ENDBRANCH   1  20
BRANCH   5  21
ATOM     21  O   UNL     1       1.462   2.949  20.523  0.00  0.00    +0.000 OA
ATOM     22  C   UNL     1       1.618   2.569  21.880  0.00  0.00    +0.000 C 
ENDBRANCH   5  21
BRANCH   6  23
ATOM     23  O   UNL     1       4.012   2.478  19.254  0.00  0.00    +0.000 OA
ATOM     24  C   UNL     1       3.559   1.633  18.211  0.00  0.00    +0.000 C 
ENDBRANCH   6  23
TORSDOF 5
ENDMDL
