MODEL 1
REMARK VINA RESULT:      -8.8      0.000      0.000
REMARK  Name = 
REMARK  3 active torsions:
REMARK  status: ('A' for Active; 'I' for Inactive)
REMARK    1  A    between atoms: C_5  and  C_6
REMARK    2  A    between atoms: C_11  and  C_12
REMARK    3  A    between atoms: C_15  and  N_16
REMARK                            x       y       z     vdW  Elec       q    Type
REMARK                         _______ _______ _______ _____ _____    ______ ____
ROOT
ATOM      1  C   UNL     1       0.510   9.976  20.474  0.00  0.00    +0.000 A 
ATOM      2  C   UNL     1       0.005  11.104  19.830  0.00  0.00    +0.000 A 
ATOM      3  C   UNL     1      -0.701  12.082  20.537  0.00  0.00    +0.000 A 
ATOM      4  C   UNL     1      -0.958  11.968  21.908  0.00  0.00    +0.000 A 
ATOM      5  C   UNL     1      -0.469  10.831  22.558  0.00  0.00    +0.000 A 
ATOM      6  C   UNL     1       0.244   9.844  21.848  0.00  0.00    +0.000 A 
ENDROOT
BRANCH   4   7
ATOM      7  N   UNL     1      -1.654  12.956  22.658  0.00  0.00    +0.000 N 
ATOM      8  C   UNL     1      -3.019  13.071  22.712  0.00  0.00    +0.000 C 
ATOM      9  O   UNL     1      -3.805  12.278  22.186  0.00  0.00    +0.000 OA
ATOM     10  N   UNL     1      -3.546  14.158  23.349  0.00  0.00    +0.000 N 
ATOM     11  C   UNL     1      -4.967  14.383  23.127  0.00  0.00    +0.000 C 
ATOM     12  C   UNL     1      -5.198  15.740  23.676  0.00  0.00    +0.000 A 
ATOM     13  C   UNL     1      -6.271  16.581  23.449  0.00  0.00    +0.000 A 
ATOM     14  C   UNL     1      -6.328  17.765  24.173  0.00  0.00    +0.000 A 
ATOM     15  C   UNL     1      -5.359  18.043  25.153  0.00  0.00    +0.000 A 
ATOM     16  C   UNL     1      -4.244  17.208  25.324  0.00  0.00    +0.000 A 
ATOM     17  C   UNL     1      -4.135  16.094  24.513  0.00  0.00    +0.000 A 
ATOM     18  C   UNL     1      -2.971  15.171  24.249  0.00  0.00    +0.000 C 
ATOM     19  H   UNL     1      -1.101  13.640  23.149  0.00  0.00    +0.000 HD
ENDBRANCH   4   7
BRANCH   1  25
ATOM     20  C   UNL     1       4.127   6.499  17.860  0.00  0.00    +0.000 C 
ATOM     21  O   UNL     1       4.746   7.004  16.913  0.00  0.00    +0.000 OA
ATOM     22  N   UNL     1       2.990   7.113  18.376  0.00  0.00    +0.000 N 
ATOM     23  C   UNL     1       2.420   8.202  17.587  0.00  0.00    +0.000 C 
ATOM     24  C   UNL     1       1.579   9.126  18.414  0.00  0.00    +0.000 C 
ATOM     25  C   UNL     1       1.292   8.967  19.720  0.00  0.00    +0.000 C 
ATOM     26  C   UNL     1       1.808   7.755  20.449  0.00  0.00    +0.000 C 
ATOM     27  C   UNL     1       2.185   6.618  19.494  0.00  0.00    +0.000 C 
BRANCH  20  32
ATOM     28  O   UNL     1       7.750   4.558  16.996  0.00  0.00    +0.000 OA
ATOM     29  C   UNL     1       6.597   4.524  17.386  0.00  0.00    +0.000 C 
ATOM     30  C   UNL     1       5.449   3.819  16.713  0.00  0.00    +0.000 C 
ATOM     31  C   UNL     1       4.335   3.919  17.751  0.00  0.00    +0.000 C 
ATOM     32  C   UNL     1       4.658   5.197  18.513  0.00  0.00    +0.000 C 
ATOM     33  N   UNL     1       6.106   5.182  18.499  0.00  0.00    +0.000 N 
ATOM     34  H   UNL     1       6.666   5.946  18.859  0.00  0.00    +0.000 HD
ENDBRANCH  20  32
ENDBRANCH   1  25
TORSDOF 3
ENDMDL
MODEL 2
REMARK VINA RESULT:      -8.8      0.835      1.196
REMARK  Name = 
REMARK  3 active torsions:
REMARK  status: ('A' for Active; 'I' for Inactive)
REMARK    1  A    between atoms: C_5  and  C_6
REMARK    2  A    between atoms: C_11  and  C_12
REMARK    3  A    between atoms: C_15  and  N_16
REMARK                            x       y       z     vdW  Elec       q    Type
REMARK                         _______ _______ _______ _____ _____    ______ ____
ROOT
ATOM      1  C   UNL     1       0.716   9.988  20.651  0.00  0.00    +0.000 A 
ATOM      2  C   UNL     1       0.000   9.644  21.797  0.00  0.00    +0.000 A 
ATOM      3  C   UNL     1      -0.666  10.615  22.550  0.00  0.00    +0.000 A 
ATOM      4  C   UNL     1      -0.625  11.973  22.214  0.00  0.00    +0.000 A 
ATOM      5  C   UNL     1       0.105  12.329  21.076  0.00  0.00    +0.000 A 
ATOM      6  C   UNL     1       0.776  11.351  20.313  0.00  0.00    +0.000 A 
ENDROOT
BRANCH   4   7
ATOM      7  N   UNL     1      -1.309  12.981  22.947  0.00  0.00    +0.000 N 
ATOM      8  C   UNL     1      -2.672  13.050  23.088  0.00  0.00    +0.000 C 
ATOM      9  O   UNL     1      -3.457  12.196  22.669  0.00  0.00    +0.000 OA
ATOM     10  N   UNL     1      -3.199  14.157  23.690  0.00  0.00    +0.000 N 
ATOM     11  C   UNL     1      -4.640  14.314  23.553  0.00  0.00    +0.000 C 
ATOM     12  C   UNL     1      -4.889  15.695  24.030  0.00  0.00    +0.000 A 
ATOM     13  C   UNL     1      -6.008  16.480  23.825  0.00  0.00    +0.000 A 
ATOM     14  C   UNL     1      -6.065  17.706  24.475  0.00  0.00    +0.000 A 
ATOM     15  C   UNL     1      -5.045  18.083  25.366  0.00  0.00    +0.000 A 
ATOM     16  C   UNL     1      -3.889  17.302  25.512  0.00  0.00    +0.000 A 
ATOM     17  C   UNL     1      -3.788  16.142  24.767  0.00  0.00    +0.000 A 
ATOM     18  C   UNL     1      -2.607  15.247  24.482  0.00  0.00    +0.000 C 
ATOM     19  H   UNL     1      -0.754  13.717  23.354  0.00  0.00    +0.000 HD
ENDBRANCH   4   7
BRANCH   1  25
ATOM     20  C   UNL     1       3.933   6.311  17.799  0.00  0.00    +0.000 C 
ATOM     21  O   UNL     1       4.552   6.794  16.840  0.00  0.00    +0.000 OA
ATOM     22  N   UNL     1       2.871   6.999  18.377  0.00  0.00    +0.000 N 
ATOM     23  C   UNL     1       2.360   8.152  17.642  0.00  0.00    +0.000 C 
ATOM     24  C   UNL     1       1.630   9.117  18.527  0.00  0.00    +0.000 C 
ATOM     25  C   UNL     1       1.383   8.943  19.840  0.00  0.00    +0.000 C 
ATOM     26  C   UNL     1       1.828   7.672  20.514  0.00  0.00    +0.000 C 
ATOM     27  C   UNL     1       2.073   6.537  19.515  0.00  0.00    +0.000 C 
BRANCH  20  32
ATOM     28  O   UNL     1       7.446   5.569  19.978  0.00  0.00    +0.000 OA
ATOM     29  C   UNL     1       6.551   5.183  19.248  0.00  0.00    +0.000 C 
ATOM     30  C   UNL     1       6.703   4.707  17.828  0.00  0.00    +0.000 C 
ATOM     31  C   UNL     1       5.321   4.143  17.510  0.00  0.00    +0.000 C 
ATOM     32  C   UNL     1       4.382   4.953  18.394  0.00  0.00    +0.000 C 
ATOM     33  N   UNL     1       5.205   5.166  19.567  0.00  0.00    +0.000 N 
ATOM     34  H   UNL     1       4.914   5.751  20.343  0.00  0.00    +0.000 HD
ENDBRANCH  20  32
ENDBRANCH   1  25
TORSDOF 3
ENDMDL
MODEL 3
REMARK VINA RESULT:      -8.5      1.577      2.486
REMARK  Name = 
REMARK  3 active torsions:
REMARK  status: ('A' for Active; 'I' for Inactive)
REMARK    1  A    between atoms: C_5  and  C_6
REMARK    2  A    between atoms: C_11  and  C_12
REMARK    3  A    between atoms: C_15  and  N_16
REMARK                            x       y       z     vdW  Elec       q    Type
REMARK                         _______ _______ _______ _____ _____    ______ ____
ROOT
ATOM      1  C   UNL     1       1.193   8.841  19.655  0.00  0.00    +0.000 A 
ATOM      2  C   UNL     1       0.698   9.771  18.742  0.00  0.00    +0.000 A 
ATOM      3  C   UNL     1      -0.137  10.814  19.155  0.00  0.00    +0.000 A 
ATOM      4  C   UNL     1      -0.538  10.961  20.488  0.00  0.00    +0.000 A 
ATOM      5  C   UNL     1      -0.059  10.023  21.408  0.00  0.00    +0.000 A 
ATOM      6  C   UNL     1       0.784   8.972  20.994  0.00  0.00    +0.000 A 
ENDROOT
BRANCH   4   7
ATOM      7  N   UNL     1      -1.368  12.022  20.943  0.00  0.00    +0.000 N 
ATOM      8  C   UNL     1      -0.936  13.068  21.719  0.00  0.00    +0.000 C 
ATOM      9  O   UNL     1       0.241  13.256  22.038  0.00  0.00    +0.000 OA
ATOM     10  N   UNL     1      -1.873  13.932  22.208  0.00  0.00    +0.000 N 
ATOM     11  C   UNL     1      -1.404  14.837  23.248  0.00  0.00    +0.000 C 
ATOM     12  C   UNL     1      -2.651  15.436  23.781  0.00  0.00    +0.000 A 
ATOM     13  C   UNL     1      -2.832  16.107  24.975  0.00  0.00    +0.000 A 
ATOM     14  C   UNL     1      -4.072  16.689  25.208  0.00  0.00    +0.000 A 
ATOM     15  C   UNL     1      -5.068  16.651  24.217  0.00  0.00    +0.000 A 
ATOM     16  C   UNL     1      -4.887  15.912  23.038  0.00  0.00    +0.000 A 
ATOM     17  C   UNL     1      -3.693  15.235  22.871  0.00  0.00    +0.000 A 
ATOM     18  C   UNL     1      -3.292  14.161  21.890  0.00  0.00    +0.000 C 
ATOM     19  H   UNL     1      -2.348  11.977  20.712  0.00  0.00    +0.000 HD
ENDBRANCH   4   7
BRANCH   1  25
ATOM     20  C   UNL     1       4.084   4.457  17.552  0.00  0.00    +0.000 C 
ATOM     21  O   UNL     1       3.751   3.350  17.999  0.00  0.00    +0.000 OA
ATOM     22  N   UNL     1       3.704   5.628  18.201  0.00  0.00    +0.000 N 
ATOM     23  C   UNL     1       3.151   5.482  19.544  0.00  0.00    +0.000 C 
ATOM     24  C   UNL     1       2.303   6.653  19.942  0.00  0.00    +0.000 C 
ATOM     25  C   UNL     1       2.110   7.766  19.210  0.00  0.00    +0.000 C 
ATOM     26  C   UNL     1       2.810   7.910  17.884  0.00  0.00    +0.000 C 
ATOM     27  C   UNL     1       4.027   6.989  17.765  0.00  0.00    +0.000 C 
BRANCH  20  32
ATOM     28  O   UNL     1       8.249   4.141  17.118  0.00  0.00    +0.000 OA
ATOM     29  C   UNL     1       7.172   4.554  16.728  0.00  0.00    +0.000 C 
ATOM     30  C   UNL     1       6.744   5.996  16.658  0.00  0.00    +0.000 C 
ATOM     31  C   UNL     1       5.427   5.921  15.891  0.00  0.00    +0.000 C 
ATOM     32  C   UNL     1       4.884   4.539  16.228  0.00  0.00    +0.000 C 
ATOM     33  N   UNL     1       6.106   3.768  16.330  0.00  0.00    +0.000 N 
ATOM     34  H   UNL     1       6.120   2.799  16.627  0.00  0.00    +0.000 HD
ENDBRANCH  20  32
ENDBRANCH   1  25
TORSDOF 3
ENDMDL
MODEL 4
REMARK VINA RESULT:      -8.4      0.653      1.108
REMARK  Name = 
REMARK  3 active torsions:
REMARK  status: ('A' for Active; 'I' for Inactive)
REMARK    1  A    between atoms: C_5  and  C_6
REMARK    2  A    between atoms: C_11  and  C_12
REMARK    3  A    between atoms: C_15  and  N_16
REMARK                            x       y       z     vdW  Elec       q    Type
REMARK                         _______ _______ _______ _____ _____    ______ ____
ROOT
ATOM      1  C   UNL     1       0.393  10.272  20.701  0.00  0.00    +0.000 A 
ATOM      2  C   UNL     1      -0.062  10.012  21.993  0.00  0.00    +0.000 A 
ATOM      3  C   UNL     1      -0.762  10.980  22.720  0.00  0.00    +0.000 A 
ATOM      4  C   UNL     1      -1.015  12.256  22.206  0.00  0.00    +0.000 A 
ATOM      5  C   UNL     1      -0.548  12.531  20.917  0.00  0.00    +0.000 A 
ATOM      6  C   UNL     1       0.156  11.556  20.181  0.00  0.00    +0.000 A 
ENDROOT
BRANCH   4   7
ATOM      7  N   UNL     1      -1.742  13.254  22.911  0.00  0.00    +0.000 N 
ATOM      8  C   UNL     1      -3.108  13.377  22.895  0.00  0.00    +0.000 C 
ATOM      9  O   UNL     1      -3.870  12.583  22.337  0.00  0.00    +0.000 OA
ATOM     10  N   UNL     1      -3.660  14.473  23.495  0.00  0.00    +0.000 N 
ATOM     11  C   UNL     1      -5.067  14.703  23.199  0.00  0.00    +0.000 C 
ATOM     12  C   UNL     1      -5.317  16.066  23.723  0.00  0.00    +0.000 A 
ATOM     13  C   UNL     1      -6.373  16.910  23.435  0.00  0.00    +0.000 A 
ATOM     14  C   UNL     1      -6.460  18.102  24.144  0.00  0.00    +0.000 A 
ATOM     15  C   UNL     1      -5.540  18.384  25.169  0.00  0.00    +0.000 A 
ATOM     16  C   UNL     1      -4.440  17.545  25.403  0.00  0.00    +0.000 A 
ATOM     17  C   UNL     1      -4.296  16.422  24.609  0.00  0.00    +0.000 A 
ATOM     18  C   UNL     1      -3.126  15.491  24.412  0.00  0.00    +0.000 C 
ATOM     19  H   UNL     1      -1.211  13.941  23.423  0.00  0.00    +0.000 HD
ENDBRANCH   4   7
BRANCH   1  25
ATOM     20  C   UNL     1       3.740   6.635  17.949  0.00  0.00    +0.000 C 
ATOM     21  O   UNL     1       4.295   7.097  16.942  0.00  0.00    +0.000 OA
ATOM     22  N   UNL     1       2.656   7.290  18.526  0.00  0.00    +0.000 N 
ATOM     23  C   UNL     1       2.049   8.364  17.744  0.00  0.00    +0.000 C 
ATOM     24  C   UNL     1       1.289   9.333  18.599  0.00  0.00    +0.000 C 
ATOM     25  C   UNL     1       1.097   9.223  19.927  0.00  0.00    +0.000 C 
ATOM     26  C   UNL     1       1.643   8.024  20.657  0.00  0.00    +0.000 C 
ATOM     27  C   UNL     1       1.927   6.849  19.717  0.00  0.00    +0.000 C 
BRANCH  20  32
ATOM     28  O   UNL     1       5.972   3.621  16.059  0.00  0.00    +0.000 OA
ATOM     29  C   UNL     1       5.206   3.981  16.935  0.00  0.00    +0.000 C 
ATOM     30  C   UNL     1       3.773   3.550  17.098  0.00  0.00    +0.000 C 
ATOM     31  C   UNL     1       3.401   4.119  18.463  0.00  0.00    +0.000 C 
ATOM     32  C   UNL     1       4.293   5.345  18.605  0.00  0.00    +0.000 C 
ATOM     33  N   UNL     1       5.493   4.908  17.921  0.00  0.00    +0.000 N 
ATOM     34  H   UNL     1       6.283   5.520  17.754  0.00  0.00    +0.000 HD
ENDBRANCH  20  32
ENDBRANCH   1  25
TORSDOF 3
ENDMDL
MODEL 5
REMARK VINA RESULT:      -8.4      2.387     12.487
REMARK  Name = 
REMARK  3 active torsions:
REMARK  status: ('A' for Active; 'I' for Inactive)
REMARK    1  A    between atoms: C_5  and  C_6
REMARK    2  A    between atoms: C_11  and  C_12
REMARK    3  A    between atoms: C_15  and  N_16
REMARK                            x       y       z     vdW  Elec       q    Type
REMARK                         _______ _______ _______ _____ _____    ______ ____
ROOT
ATOM      1  C   UNL     1      -0.625  11.436  22.418  0.00  0.00    +0.000 A 
ATOM      2  C   UNL     1       0.231  11.398  21.319  0.00  0.00    +0.000 A 
ATOM      3  C   UNL     1       0.865  10.211  20.939  0.00  0.00    +0.000 A 
ATOM      4  C   UNL     1       0.699   9.019  21.651  0.00  0.00    +0.000 A 
ATOM      5  C   UNL     1      -0.144   9.052  22.766  0.00  0.00    +0.000 A 
ATOM      6  C   UNL     1      -0.787  10.246  23.150  0.00  0.00    +0.000 A 
ENDROOT
BRANCH   4   7
ATOM      7  N   UNL     1       1.313   7.792  21.278  0.00  0.00    +0.000 N 
ATOM      8  C   UNL     1       1.841   7.533  20.039  0.00  0.00    +0.000 C 
ATOM      9  O   UNL     1       1.922   8.365  19.131  0.00  0.00    +0.000 OA
ATOM     10  N   UNL     1       2.261   6.261  19.775  0.00  0.00    +0.000 N 
ATOM     11  C   UNL     1       2.535   5.973  18.373  0.00  0.00    +0.000 C 
ATOM     12  C   UNL     1       2.684   4.499  18.340  0.00  0.00    +0.000 A 
ATOM     13  C   UNL     1       2.632   3.661  17.243  0.00  0.00    +0.000 A 
ATOM     14  C   UNL     1       2.921   2.317  17.442  0.00  0.00    +0.000 A 
ATOM     15  C   UNL     1       3.325   1.860  18.708  0.00  0.00    +0.000 A 
ATOM     16  C   UNL     1       3.310   2.713  19.822  0.00  0.00    +0.000 A 
ATOM     17  C   UNL     1       2.904   4.021  19.635  0.00  0.00    +0.000 A 
ATOM     18  C   UNL     1       2.517   5.090  20.628  0.00  0.00    +0.000 C 
ATOM     19  H   UNL     1       1.322   7.050  21.961  0.00  0.00    +0.000 HD
ENDBRANCH   4   7
BRANCH   1  25
ATOM     20  C   UNL     1      -3.729  16.103  23.182  0.00  0.00    +0.000 C 
ATOM     21  O   UNL     1      -3.534  17.002  22.352  0.00  0.00    +0.000 OA
ATOM     22  N   UNL     1      -2.825  15.054  23.320  0.00  0.00    +0.000 N 
ATOM     23  C   UNL     1      -1.536  15.210  22.654  0.00  0.00    +0.000 C 
ATOM     24  C   UNL     1      -0.864  13.895  22.395  0.00  0.00    +0.000 C 
ATOM     25  C   UNL     1      -1.323  12.690  22.784  0.00  0.00    +0.000 C 
ATOM     26  C   UNL     1      -2.599  12.607  23.580  0.00  0.00    +0.000 C 
ATOM     27  C   UNL     1      -2.952  13.935  24.256  0.00  0.00    +0.000 C 
BRANCH  20  32
ATOM     28  O   UNL     1      -7.170  13.775  22.569  0.00  0.00    +0.000 OA
ATOM     29  C   UNL     1      -6.635  14.784  22.992  0.00  0.00    +0.000 C 
ATOM     30  C   UNL     1      -6.852  16.185  22.487  0.00  0.00    +0.000 C 
ATOM     31  C   UNL     1      -6.122  17.035  23.521  0.00  0.00    +0.000 C 
ATOM     32  C   UNL     1      -5.021  16.119  24.038  0.00  0.00    +0.000 C 
ATOM     33  N   UNL     1      -5.674  14.828  23.986  0.00  0.00    +0.000 N 
ATOM     34  H   UNL     1      -5.191  13.959  24.190  0.00  0.00    +0.000 HD
ENDBRANCH  20  32
ENDBRANCH   1  25
TORSDOF 3
ENDMDL
MODEL 6
REMARK VINA RESULT:      -8.3      1.556      2.444
REMARK  Name = 
REMARK  3 active torsions:
REMARK  status: ('A' for Active; 'I' for Inactive)
REMARK    1  A    between atoms: C_5  and  C_6
REMARK    2  A    between atoms: C_11  and  C_12
REMARK    3  A    between atoms: C_15  and  N_16
REMARK                            x       y       z     vdW  Elec       q    Type
REMARK                         _______ _______ _______ _____ _____    ______ ____
ROOT
ATOM      1  C   UNL     1       0.993   9.184  19.605  0.00  0.00    +0.000 A 
ATOM      2  C   UNL     1       0.587   9.295  20.933  0.00  0.00    +0.000 A 
ATOM      3  C   UNL     1      -0.343  10.263  21.325  0.00  0.00    +0.000 A 
ATOM      4  C   UNL     1      -0.887  11.181  20.419  0.00  0.00    +0.000 A 
ATOM      5  C   UNL     1      -0.472  11.087  19.087  0.00  0.00    +0.000 A 
ATOM      6  C   UNL     1       0.463  10.111  18.689  0.00  0.00    +0.000 A 
ENDROOT
BRANCH   4   7
ATOM      7  N   UNL     1      -1.850  12.162  20.782  0.00  0.00    +0.000 N 
ATOM      8  C   UNL     1      -1.567  13.304  21.487  0.00  0.00    +0.000 C 
ATOM      9  O   UNL     1      -0.429  13.656  21.811  0.00  0.00    +0.000 OA
ATOM     10  N   UNL     1      -2.613  14.080  21.896  0.00  0.00    +0.000 N 
ATOM     11  C   UNL     1      -2.282  15.106  22.876  0.00  0.00    +0.000 C 
ATOM     12  C   UNL     1      -3.605  15.584  23.343  0.00  0.00    +0.000 A 
ATOM     13  C   UNL     1      -3.895  16.311  24.482  0.00  0.00    +0.000 A 
ATOM     14  C   UNL     1      -5.201  16.753  24.651  0.00  0.00    +0.000 A 
ATOM     15  C   UNL     1      -6.161  16.525  23.649  0.00  0.00    +0.000 A 
ATOM     16  C   UNL     1      -5.863  15.732  22.531  0.00  0.00    +0.000 A 
ATOM     17  C   UNL     1      -4.592  15.196  22.433  0.00  0.00    +0.000 A 
ATOM     18  C   UNL     1      -4.040  14.112  21.539  0.00  0.00    +0.000 C 
ATOM     19  H   UNL     1      -2.811  11.982  20.539  0.00  0.00    +0.000 HD
ENDBRANCH   4   7
BRANCH   1  25
ATOM     20  C   UNL     1       4.027   4.809  17.693  0.00  0.00    +0.000 C 
ATOM     21  O   UNL     1       3.775   3.723  18.234  0.00  0.00    +0.000 OA
ATOM     22  N   UNL     1       3.612   6.005  18.272  0.00  0.00    +0.000 N 
ATOM     23  C   UNL     1       3.125   5.932  19.646  0.00  0.00    +0.000 C 
ATOM     24  C   UNL     1       2.233   7.083  19.998  0.00  0.00    +0.000 C 
ATOM     25  C   UNL     1       1.947   8.127  19.196  0.00  0.00    +0.000 C 
ATOM     26  C   UNL     1       2.582   8.208  17.833  0.00  0.00    +0.000 C 
ATOM     27  C   UNL     1       3.841   7.343  17.724  0.00  0.00    +0.000 C 
BRANCH  20  32
ATOM     28  O   UNL     1       8.119   4.120  17.046  0.00  0.00    +0.000 OA
ATOM     29  C   UNL     1       7.066   4.634  16.714  0.00  0.00    +0.000 C 
ATOM     30  C   UNL     1       6.769   6.110  16.675  0.00  0.00    +0.000 C 
ATOM     31  C   UNL     1       5.414   6.164  15.976  0.00  0.00    +0.000 C 
ATOM     32  C   UNL     1       4.764   4.833  16.331  0.00  0.00    +0.000 C 
ATOM     33  N   UNL     1       5.914   3.953  16.365  0.00  0.00    +0.000 N 
ATOM     34  H   UNL     1       5.854   2.983  16.655  0.00  0.00    +0.000 HD
ENDBRANCH  20  32
ENDBRANCH   1  25
TORSDOF 3
ENDMDL
MODEL 7
REMARK VINA RESULT:      -8.3      2.349     12.678
REMARK  Name = 
REMARK  3 active torsions:
REMARK  status: ('A' for Active; 'I' for Inactive)
REMARK    1  A    between atoms: C_5  and  C_6
REMARK    2  A    between atoms: C_11  and  C_12
REMARK    3  A    between atoms: C_15  and  N_16
REMARK                            x       y       z     vdW  Elec       q    Type
REMARK                         _______ _______ _______ _____ _____    ______ ____
ROOT
ATOM      1  C   UNL     1      -1.047  11.320  22.067  0.00  0.00    +0.000 A 
ATOM      2  C   UNL     1      -0.694  10.456  23.101  0.00  0.00    +0.000 A 
ATOM      3  C   UNL     1      -0.022   9.257  22.843  0.00  0.00    +0.000 A 
ATOM      4  C   UNL     1       0.303   8.853  21.543  0.00  0.00    +0.000 A 
ATOM      5  C   UNL     1      -0.063   9.706  20.498  0.00  0.00    +0.000 A 
ATOM      6  C   UNL     1      -0.738  10.916  20.755  0.00  0.00    +0.000 A 
ENDROOT
BRANCH   4   7
ATOM      7  N   UNL     1       1.003   7.651  21.250  0.00  0.00    +0.000 N 
ATOM      8  C   UNL     1       1.770   7.452  20.130  0.00  0.00    +0.000 C 
ATOM      9  O   UNL     1       2.011   8.324  19.290  0.00  0.00    +0.000 OA
ATOM     10  N   UNL     1       2.260   6.199  19.903  0.00  0.00    +0.000 N 
ATOM     11  C   UNL     1       2.810   5.976  18.573  0.00  0.00    +0.000 C 
ATOM     12  C   UNL     1       2.993   4.506  18.511  0.00  0.00    +0.000 A 
ATOM     13  C   UNL     1       3.175   3.716  17.392  0.00  0.00    +0.000 A 
ATOM     14  C   UNL     1       3.447   2.368  17.590  0.00  0.00    +0.000 A 
ATOM     15  C   UNL     1       3.604   1.862  18.892  0.00  0.00    +0.000 A 
ATOM     16  C   UNL     1       3.353   2.665  20.014  0.00  0.00    +0.000 A 
ATOM     17  C   UNL     1       2.964   3.975  19.804  0.00  0.00    +0.000 A 
ATOM     18  C   UNL     1       2.368   4.995  20.742  0.00  0.00    +0.000 C 
ATOM     19  H   UNL     1       0.894   6.881  21.890  0.00  0.00    +0.000 HD
ENDBRANCH   4   7
BRANCH   1  25
ATOM     20  C   UNL     1      -4.238  15.933  22.804  0.00  0.00    +0.000 C 
ATOM     21  O   UNL     1      -4.460  16.584  21.774  0.00  0.00    +0.000 OA
ATOM     22  N   UNL     1      -3.221  14.984  22.840  0.00  0.00    +0.000 N 
ATOM     23  C   UNL     1      -2.277  14.994  21.726  0.00  0.00    +0.000 C 
ATOM     24  C   UNL     1      -1.581  13.678  21.554  0.00  0.00    +0.000 C 
ATOM     25  C   UNL     1      -1.721  12.607  22.359  0.00  0.00    +0.000 C 
ATOM     26  C   UNL     1      -2.616  12.701  23.567  0.00  0.00    +0.000 C 
ATOM     27  C   UNL     1      -2.871  14.150  23.992  0.00  0.00    +0.000 C 
BRANCH  20  32
ATOM     28  O   UNL     1      -7.916  14.058  23.573  0.00  0.00    +0.000 OA
ATOM     29  C   UNL     1      -7.157  14.999  23.716  0.00  0.00    +0.000 C 
ATOM     30  C   UNL     1      -7.377  16.404  23.221  0.00  0.00    +0.000 C 
ATOM     31  C   UNL     1      -6.239  17.177  23.881  0.00  0.00    +0.000 C 
ATOM     32  C   UNL     1      -5.138  16.138  24.049  0.00  0.00    +0.000 C 
ATOM     33  N   UNL     1      -5.911  14.942  24.313  0.00  0.00    +0.000 N 
ATOM     34  H   UNL     1      -5.489  14.024  24.398  0.00  0.00    +0.000 HD
ENDBRANCH  20  32
ENDBRANCH   1  25
TORSDOF 3
ENDMDL
MODEL 8
REMARK VINA RESULT:      -8.1      1.205      1.561
REMARK  Name = 
REMARK  3 active torsions:
REMARK  status: ('A' for Active; 'I' for Inactive)
REMARK    1  A    between atoms: C_5  and  C_6
REMARK    2  A    between atoms: C_11  and  C_12
REMARK    3  A    between atoms: C_15  and  N_16
REMARK                            x       y       z     vdW  Elec       q    Type
REMARK                         _______ _______ _______ _____ _____    ______ ____
ROOT
ATOM      1  C   UNL     1       0.456   9.937  19.959  0.00  0.00    +0.000 A 
ATOM      2  C   UNL     1      -0.611  10.492  19.254  0.00  0.00    +0.000 A 
ATOM      3  C   UNL     1      -1.438  11.457  19.838  0.00  0.00    +0.000 A 
ATOM      4  C   UNL     1      -1.258  11.890  21.156  0.00  0.00    +0.000 A 
ATOM      5  C   UNL     1      -0.201  11.325  21.876  0.00  0.00    +0.000 A 
ATOM      6  C   UNL     1       0.636  10.354  21.289  0.00  0.00    +0.000 A 
ENDROOT
BRANCH   4   7
ATOM      7  N   UNL     1      -2.068  12.884  21.771  0.00  0.00    +0.000 N 
ATOM      8  C   UNL     1      -1.802  14.229  21.742  0.00  0.00    +0.000 C 
ATOM      9  O   UNL     1      -0.877  14.741  21.106  0.00  0.00    +0.000 OA
ATOM     10  N   UNL     1      -2.581  15.053  22.503  0.00  0.00    +0.000 N 
ATOM     11  C   UNL     1      -2.080  16.411  22.665  0.00  0.00    +0.000 C 
ATOM     12  C   UNL     1      -2.937  16.975  23.734  0.00  0.00    +0.000 A 
ATOM     13  C   UNL     1      -2.709  18.099  24.506  0.00  0.00    +0.000 A 
ATOM     14  C   UNL     1      -3.718  18.505  25.370  0.00  0.00    +0.000 A 
ATOM     15  C   UNL     1      -4.950  17.829  25.386  0.00  0.00    +0.000 A 
ATOM     16  C   UNL     1      -5.139  16.654  24.643  0.00  0.00    +0.000 A 
ATOM     17  C   UNL     1      -4.085  16.190  23.878  0.00  0.00    +0.000 A 
ATOM     18  C   UNL     1      -3.861  14.860  23.203  0.00  0.00    +0.000 C 
ATOM     19  H   UNL     1      -2.868  12.571  22.297  0.00  0.00    +0.000 HD
ENDBRANCH   4   7
BRANCH   1  25
ATOM     20  C   UNL     1       4.455   6.575  17.789  0.00  0.00    +0.000 C 
ATOM     21  O   UNL     1       5.116   7.077  16.869  0.00  0.00    +0.000 OA
ATOM     22  N   UNL     1       3.248   7.141  18.188  0.00  0.00    +0.000 N 
ATOM     23  C   UNL     1       2.682   8.161  17.310  0.00  0.00    +0.000 C 
ATOM     24  C   UNL     1       1.728   9.067  18.027  0.00  0.00    +0.000 C 
ATOM     25  C   UNL     1       1.348   8.946  19.314  0.00  0.00    +0.000 C 
ATOM     26  C   UNL     1       1.873   7.797  20.134  0.00  0.00    +0.000 C 
ATOM     27  C   UNL     1       2.387   6.646  19.264  0.00  0.00    +0.000 C 
BRANCH  20  32
ATOM     28  O   UNL     1       7.958   4.446  16.880  0.00  0.00    +0.000 OA
ATOM     29  C   UNL     1       6.838   4.488  17.355  0.00  0.00    +0.000 C 
ATOM     30  C   UNL     1       5.628   3.749  16.848  0.00  0.00    +0.000 C 
ATOM     31  C   UNL     1       4.597   3.993  17.946  0.00  0.00    +0.000 C 
ATOM     32  C   UNL     1       5.004   5.336  18.539  0.00  0.00    +0.000 C 
ATOM     33  N   UNL     1       6.447   5.275  18.422  0.00  0.00    +0.000 N 
ATOM     34  H   UNL     1       7.049   6.057  18.655  0.00  0.00    +0.000 HD
ENDBRANCH  20  32
ENDBRANCH   1  25
TORSDOF 3
ENDMDL
MODEL 9
REMARK VINA RESULT:      -8.1      2.363     12.534
REMARK  Name = 
REMARK  3 active torsions:
REMARK  status: ('A' for Active; 'I' for Inactive)
REMARK    1  A    between atoms: C_5  and  C_6
REMARK    2  A    between atoms: C_11  and  C_12
REMARK    3  A    between atoms: C_15  and  N_16
REMARK                            x       y       z     vdW  Elec       q    Type
REMARK                         _______ _______ _______ _____ _____    ______ ____
ROOT
ATOM      1  C   UNL     1      -0.807  11.515  20.268  0.00  0.00    +0.000 A 
ATOM      2  C   UNL     1      -0.585  11.585  18.894  0.00  0.00    +0.000 A 
ATOM      3  C   UNL     1       0.307  10.713  18.261  0.00  0.00    +0.000 A 
ATOM      4  C   UNL     1       1.038   9.755  18.972  0.00  0.00    +0.000 A 
ATOM      5  C   UNL     1       0.835   9.689  20.353  0.00  0.00    +0.000 A 
ATOM      6  C   UNL     1      -0.066  10.565  20.993  0.00  0.00    +0.000 A 
ENDROOT
BRANCH   4   7
ATOM      7  N   UNL     1       1.937   8.841  18.355  0.00  0.00    +0.000 N 
ATOM      8  C   UNL     1       2.375   7.675  18.930  0.00  0.00    +0.000 C 
ATOM      9  O   UNL     1       1.972   7.240  20.012  0.00  0.00    +0.000 OA
ATOM     10  N   UNL     1       3.353   6.972  18.287  0.00  0.00    +0.000 N 
ATOM     11  C   UNL     1       3.979   5.917  19.071  0.00  0.00    +0.000 C 
ATOM     12  C   UNL     1       5.158   5.529  18.260  0.00  0.00    +0.000 A 
ATOM     13  C   UNL     1       6.271   4.815  18.661  0.00  0.00    +0.000 A 
ATOM     14  C   UNL     1       7.199   4.466  17.687  0.00  0.00    +0.000 A 
ATOM     15  C   UNL     1       6.956   4.771  16.337  0.00  0.00    +0.000 A 
ATOM     16  C   UNL     1       5.853   5.551  15.959  0.00  0.00    +0.000 A 
ATOM     17  C   UNL     1       5.000   5.996  16.952  0.00  0.00    +0.000 A 
ATOM     18  C   UNL     1       3.916   7.045  16.930  0.00  0.00    +0.000 C 
ATOM     19  H   UNL     1       2.307   9.091  17.452  0.00  0.00    +0.000 HD
ENDBRANCH   4   7
BRANCH   1  25
ATOM     20  C   UNL     1      -5.093  14.467  22.485  0.00  0.00    +0.000 C 
ATOM     21  O   UNL     1      -5.813  15.043  21.657  0.00  0.00    +0.000 OA
ATOM     22  N   UNL     1      -3.838  13.988  22.123  0.00  0.00    +0.000 N 
ATOM     23  C   UNL     1      -3.314  14.434  20.835  0.00  0.00    +0.000 C 
ATOM     24  C   UNL     1      -2.271  13.505  20.291  0.00  0.00    +0.000 C 
ATOM     25  C   UNL     1      -1.786  12.417  20.918  0.00  0.00    +0.000 C 
ATOM     26  C   UNL     1      -2.278  12.080  22.301  0.00  0.00    +0.000 C 
ATOM     27  C   UNL     1      -2.904  13.286  23.007  0.00  0.00    +0.000 C 
BRANCH  20  32
ATOM     28  O   UNL     1      -7.375  11.199  23.808  0.00  0.00    +0.000 OA
ATOM     29  C   UNL     1      -7.037  12.365  23.908  0.00  0.00    +0.000 C 
ATOM     30  C   UNL     1      -7.917  13.568  23.696  0.00  0.00    +0.000 C 
ATOM     31  C   UNL     1      -7.038  14.719  24.177  0.00  0.00    +0.000 C 
ATOM     32  C   UNL     1      -5.619  14.228  23.923  0.00  0.00    +0.000 C 
ATOM     33  N   UNL     1      -5.756  12.809  24.179  0.00  0.00    +0.000 N 
ATOM     34  H   UNL     1      -5.002  12.149  24.023  0.00  0.00    +0.000 HD
ENDBRANCH  20  32
ENDBRANCH   1  25
TORSDOF 3
ENDMDL
