MODEL 1
REMARK VINA RESULT:      -6.6      0.000      0.000
REMARK  Name = 
REMARK  1 active torsions:
REMARK  status: ('A' for Active; 'I' for Inactive)
REMARK    1  A    between atoms: C_14  and  N_15
REMARK                            x       y       z     vdW  Elec       q    Type
REMARK                         _______ _______ _______ _____ _____    ______ ____
ROOT
ATOM      1  O   UNL     1       1.228   8.707  22.599  0.00  0.00    +0.000 OA
ATOM      2  C   UNL     1       0.794   9.316  21.628  0.00  0.00    +0.000 C 
ATOM      3  C   UNL     1       1.213   8.962  20.237  0.00  0.00    +0.000 A 
ATOM      4  N   UNL     1       2.105   7.942  20.113  0.00  0.00    +0.000 NA
ATOM      5  C   UNL     1       2.490   7.610  18.864  0.00  0.00    +0.000 A 
ATOM      6  C   UNL     1       2.026   8.242  17.726  0.00  0.00    +0.000 A 
ATOM      7  C   UNL     1       1.115   9.282  17.878  0.00  0.00    +0.000 A 
ATOM      8  C   UNL     1       0.685   9.669  19.157  0.00  0.00    +0.000 A 
ATOM      9  C   UNL     1      -0.278  10.746  19.376  0.00  0.00    +0.000 A 
ATOM     10  N   UNL     1      -0.750  11.358  18.262  0.00  0.00    +0.000 NA
ATOM     11  C   UNL     1      -1.683  12.306  18.431  0.00  0.00    +0.000 A 
ATOM     12  C   UNL     1      -2.167  12.684  19.669  0.00  0.00    +0.000 A 
ATOM     13  C   UNL     1      -1.651  12.109  20.847  0.00  0.00    +0.000 A 
ATOM     14  C   UNL     1      -2.077  12.445  22.168  0.00  0.00    +0.000 A 
ATOM     15  C   UNL     1      -1.470  11.718  23.203  0.00  0.00    +0.000 A 
ATOM     16  N   UNL     1      -0.550  10.738  23.055  0.00  0.00    +0.000 NA
ATOM     17  C   UNL     1      -0.183  10.436  21.789  0.00  0.00    +0.000 A 
ATOM     18  C   UNL     1      -0.685  11.091  20.669  0.00  0.00    +0.000 A 
ENDROOT
BRANCH  14  19
ATOM     19  N   UNL     1      -3.089  13.369  22.415  0.00  0.00    +0.000 N 
ATOM     20  C   UNL     1      -4.407  12.922  22.880  0.00  0.00    +0.000 C 
ATOM     21  C   UNL     1      -5.466  13.772  22.174  0.00  0.00    +0.000 C 
ATOM     22  C   UNL     1      -5.222  15.270  22.369  0.00  0.00    +0.000 C 
ATOM     23  C   UNL     1      -3.777  15.662  22.049  0.00  0.00    +0.000 C 
ATOM     24  C   UNL     1      -2.778  14.756  22.780  0.00  0.00    +0.000 C 
ENDBRANCH  14  19
TORSDOF 1
ENDMDL
MODEL 2
REMARK VINA RESULT:      -6.5      3.085      5.173
REMARK  Name = 
REMARK  1 active torsions:
REMARK  status: ('A' for Active; 'I' for Inactive)
REMARK    1  A    between atoms: C_14  and  N_15
REMARK                            x       y       z     vdW  Elec       q    Type
REMARK                         _______ _______ _______ _____ _____    ______ ____
ROOT
ATOM      1  O   UNL     1       3.963   6.842  17.074  0.00  0.00    +0.000 OA
ATOM      2  C   UNL     1       3.226   6.933  18.049  0.00  0.00    +0.000 C 
ATOM      3  C   UNL     1       3.042   5.790  18.995  0.00  0.00    +0.000 A 
ATOM      4  N   UNL     1       3.727   4.649  18.708  0.00  0.00    +0.000 NA
ATOM      5  C   UNL     1       3.574   3.611  19.555  0.00  0.00    +0.000 A 
ATOM      6  C   UNL     1       2.773   3.652  20.680  0.00  0.00    +0.000 A 
ATOM      7  C   UNL     1       2.083   4.829  20.953  0.00  0.00    +0.000 A 
ATOM      8  C   UNL     1       2.206   5.938  20.101  0.00  0.00    +0.000 A 
ATOM      9  C   UNL     1       1.514   7.202  20.343  0.00  0.00    +0.000 A 
ATOM     10  N   UNL     1       0.742   7.254  21.456  0.00  0.00    +0.000 NA
ATOM     11  C   UNL     1       0.147   8.422  21.737  0.00  0.00    +0.000 A 
ATOM     12  C   UNL     1       0.280   9.551  20.950  0.00  0.00    +0.000 A 
ATOM     13  C   UNL     1       1.026   9.509  19.756  0.00  0.00    +0.000 A 
ATOM     14  C   UNL     1       1.208  10.617  18.873  0.00  0.00    +0.000 A 
ATOM     15  C   UNL     1       2.030  10.377  17.762  0.00  0.00    +0.000 A 
ATOM     16  N   UNL     1       2.663   9.217  17.475  0.00  0.00    +0.000 NA
ATOM     17  C   UNL     1       2.481   8.196  18.342  0.00  0.00    +0.000 A 
ATOM     18  C   UNL     1       1.674   8.284  19.472  0.00  0.00    +0.000 A 
ENDROOT
BRANCH  14  19
ATOM     19  N   UNL     1       0.677  11.877  19.137  0.00  0.00    +0.000 N 
ATOM     20  C   UNL     1       1.558  12.994  19.498  0.00  0.00    +0.000 C 
ATOM     21  C   UNL     1       0.860  13.806  20.591  0.00  0.00    +0.000 C 
ATOM     22  C   UNL     1      -0.544  14.245  20.169  0.00  0.00    +0.000 C 
ATOM     23  C   UNL     1      -1.369  13.077  19.622  0.00  0.00    +0.000 C 
ATOM     24  C   UNL     1      -0.597  12.304  18.546  0.00  0.00    +0.000 C 
ENDBRANCH  14  19
TORSDOF 1
ENDMDL
MODEL 3
REMARK VINA RESULT:      -6.5      0.512      1.149
REMARK  Name = 
REMARK  1 active torsions:
REMARK  status: ('A' for Active; 'I' for Inactive)
REMARK    1  A    between atoms: C_14  and  N_15
REMARK                            x       y       z     vdW  Elec       q    Type
REMARK                         _______ _______ _______ _____ _____    ______ ____
ROOT
ATOM      1  O   UNL     1       1.125   8.602  22.602  0.00  0.00    +0.000 OA
ATOM      2  C   UNL     1       0.702   9.249  21.651  0.00  0.00    +0.000 C 
ATOM      3  C   UNL     1       1.146   8.956  20.253  0.00  0.00    +0.000 A 
ATOM      4  N   UNL     1       2.048   7.948  20.102  0.00  0.00    +0.000 NA
ATOM      5  C   UNL     1       2.456   7.671  18.846  0.00  0.00    +0.000 A 
ATOM      6  C   UNL     1       2.006   8.348  17.729  0.00  0.00    +0.000 A 
ATOM      7  C   UNL     1       1.085   9.374  17.909  0.00  0.00    +0.000 A 
ATOM      8  C   UNL     1       0.632   9.704  19.195  0.00  0.00    +0.000 A 
ATOM      9  C   UNL     1      -0.342  10.765  19.443  0.00  0.00    +0.000 A 
ATOM     10  N   UNL     1      -0.801  11.419  18.348  0.00  0.00    +0.000 NA
ATOM     11  C   UNL     1      -1.743  12.354  18.540  0.00  0.00    +0.000 A 
ATOM     12  C   UNL     1      -2.251  12.676  19.785  0.00  0.00    +0.000 A 
ATOM     13  C   UNL     1      -1.750  12.056  20.946  0.00  0.00    +0.000 A 
ATOM     14  C   UNL     1      -2.201  12.332  22.273  0.00  0.00    +0.000 A 
ATOM     15  C   UNL     1      -1.605  11.567  23.287  0.00  0.00    +0.000 A 
ATOM     16  N   UNL     1      -0.675  10.600  23.113  0.00  0.00    +0.000 NA
ATOM     17  C   UNL     1      -0.285  10.355  21.842  0.00  0.00    +0.000 A 
ATOM     18  C   UNL     1      -0.773  11.053  20.742  0.00  0.00    +0.000 A 
ENDROOT
BRANCH  14  19
ATOM     19  N   UNL     1      -3.223  13.239  22.541  0.00  0.00    +0.000 N 
ATOM     20  C   UNL     1      -2.952  14.681  22.560  0.00  0.00    +0.000 C 
ATOM     21  C   UNL     1      -3.754  15.292  23.711  0.00  0.00    +0.000 C 
ATOM     22  C   UNL     1      -5.243  14.950  23.618  0.00  0.00    +0.000 C 
ATOM     23  C   UNL     1      -5.473  13.450  23.410  0.00  0.00    +0.000 C 
ATOM     24  C   UNL     1      -4.624  12.910  22.253  0.00  0.00    +0.000 C 
ENDBRANCH  14  19
TORSDOF 1
ENDMDL
MODEL 4
REMARK VINA RESULT:      -6.5      1.871      3.310
REMARK  Name = 
REMARK  1 active torsions:
REMARK  status: ('A' for Active; 'I' for Inactive)
REMARK    1  A    between atoms: C_14  and  N_15
REMARK                            x       y       z     vdW  Elec       q    Type
REMARK                         _______ _______ _______ _____ _____    ______ ____
ROOT
ATOM      1  O   UNL     1       1.964  10.112  17.448  0.00  0.00    +0.000 OA
ATOM      2  C   UNL     1       1.544   9.768  18.547  0.00  0.00    +0.000 C 
ATOM      3  C   UNL     1       1.834   8.409  19.100  0.00  0.00    +0.000 A 
ATOM      4  N   UNL     1       2.574   7.580  18.314  0.00  0.00    +0.000 NA
ATOM      5  C   UNL     1       2.845   6.352  18.801  0.00  0.00    +0.000 A 
ATOM      6  C   UNL     1       2.418   5.907  20.037  0.00  0.00    +0.000 A 
ATOM      7  C   UNL     1       1.663   6.772  20.822  0.00  0.00    +0.000 A 
ATOM      8  C   UNL     1       1.350   8.060  20.360  0.00  0.00    +0.000 A 
ATOM      9  C   UNL     1       0.571   9.014  21.145  0.00  0.00    +0.000 A 
ATOM     10  N   UNL     1       0.166   8.590  22.367  0.00  0.00    +0.000 NA
ATOM     11  C   UNL     1      -0.497   9.468  23.134  0.00  0.00    +0.000 A 
ATOM     12  C   UNL     1      -0.784  10.760  22.735  0.00  0.00    +0.000 A 
ATOM     13  C   UNL     1      -0.429  11.209  21.449  0.00  0.00    +0.000 A 
ATOM     14  C   UNL     1      -0.695  12.518  20.944  0.00  0.00    +0.000 A 
ATOM     15  C   UNL     1      -0.212  12.779  19.653  0.00  0.00    +0.000 A 
ATOM     16  N   UNL     1       0.482  11.919  18.873  0.00  0.00    +0.000 NA
ATOM     17  C   UNL     1       0.730  10.695  19.391  0.00  0.00    +0.000 A 
ATOM     18  C   UNL     1       0.291  10.291  20.648  0.00  0.00    +0.000 A 
ENDROOT
BRANCH  14  19
ATOM     19  N   UNL     1      -1.316  13.502  21.709  0.00  0.00    +0.000 N 
ATOM     20  C   UNL     1      -0.516  14.505  22.421  0.00  0.00    +0.000 C 
ATOM     21  C   UNL     1      -1.168  14.743  23.784  0.00  0.00    +0.000 C 
ATOM     22  C   UNL     1      -2.647  15.117  23.654  0.00  0.00    +0.000 C 
ATOM     23  C   UNL     1      -3.406  14.144  22.749  0.00  0.00    +0.000 C 
ATOM     24  C   UNL     1      -2.683  13.946  21.411  0.00  0.00    +0.000 C 
ENDBRANCH  14  19
TORSDOF 1
ENDMDL
MODEL 5
REMARK VINA RESULT:      -6.4      2.362      7.847
REMARK  Name = 
REMARK  1 active torsions:
REMARK  status: ('A' for Active; 'I' for Inactive)
REMARK    1  A    between atoms: C_14  and  N_15
REMARK                            x       y       z     vdW  Elec       q    Type
REMARK                         _______ _______ _______ _____ _____    ______ ____
ROOT
ATOM      1  O   UNL     1      -0.306   9.015  23.071  0.00  0.00    +0.000 OA
ATOM      2  C   UNL     1       0.126   9.329  21.968  0.00  0.00    +0.000 C 
ATOM      3  C   UNL     1      -0.041  10.715  21.433  0.00  0.00    +0.000 A 
ATOM      4  N   UNL     1      -0.706  11.597  22.229  0.00  0.00    +0.000 NA
ATOM      5  C   UNL     1      -0.861  12.851  21.761  0.00  0.00    +0.000 A 
ATOM      6  C   UNL     1      -0.383  13.276  20.536  0.00  0.00    +0.000 A 
ATOM      7  C   UNL     1       0.292  12.357  19.740  0.00  0.00    +0.000 A 
ATOM      8  C   UNL     1       0.478  11.038  20.180  0.00  0.00    +0.000 A 
ATOM      9  C   UNL     1       1.189  10.034  19.391  0.00  0.00    +0.000 A 
ATOM     10  N   UNL     1       1.676  10.450  18.197  0.00  0.00    +0.000 NA
ATOM     11  C   UNL     1       2.387   9.567  17.482  0.00  0.00    +0.000 A 
ATOM     12  C   UNL     1       2.633   8.272  17.900  0.00  0.00    +0.000 A 
ATOM     13  C   UNL     1       2.089   7.794  19.108  0.00  0.00    +0.000 A 
ATOM     14  C   UNL     1       2.276   6.471  19.615  0.00  0.00    +0.000 A 
ATOM     15  C   UNL     1       1.688   6.212  20.862  0.00  0.00    +0.000 A 
ATOM     16  N   UNL     1       0.992   7.095  21.613  0.00  0.00    +0.000 NA
ATOM     17  C   UNL     1       0.850   8.342  21.109  0.00  0.00    +0.000 A 
ATOM     18  C   UNL     1       1.358   8.732  19.874  0.00  0.00    +0.000 A 
ENDROOT
BRANCH  14  19
ATOM     19  N   UNL     1       3.059   5.524  18.960  0.00  0.00    +0.000 N 
ATOM     20  C   UNL     1       4.504   5.456  19.207  0.00  0.00    +0.000 C 
ATOM     21  C   UNL     1       5.194   5.173  17.871  0.00  0.00    +0.000 C 
ATOM     22  C   UNL     1       4.629   3.927  17.186  0.00  0.00    +0.000 C 
ATOM     23  C   UNL     1       3.100   3.954  17.117  0.00  0.00    +0.000 C 
ATOM     24  C   UNL     1       2.485   4.259  18.488  0.00  0.00    +0.000 C 
ENDBRANCH  14  19
TORSDOF 1
ENDMDL
MODEL 6
REMARK VINA RESULT:      -6.4      3.621      5.441
REMARK  Name = 
REMARK  1 active torsions:
REMARK  status: ('A' for Active; 'I' for Inactive)
REMARK    1  A    between atoms: C_14  and  N_15
REMARK                            x       y       z     vdW  Elec       q    Type
REMARK                         _______ _______ _______ _____ _____    ______ ____
ROOT
ATOM      1  O   UNL     1       3.936   6.348  17.097  0.00  0.00    +0.000 OA
ATOM      2  C   UNL     1       3.220   6.523  18.076  0.00  0.00    +0.000 C 
ATOM      3  C   UNL     1       2.999   5.439  19.082  0.00  0.00    +0.000 A 
ATOM      4  N   UNL     1       3.623   4.253  18.842  0.00  0.00    +0.000 NA
ATOM      5  C   UNL     1       3.435   3.267  19.742  0.00  0.00    +0.000 A 
ATOM      6  C   UNL     1       2.656   3.403  20.876  0.00  0.00    +0.000 A 
ATOM      7  C   UNL     1       2.028   4.623  21.099  0.00  0.00    +0.000 A 
ATOM      8  C   UNL     1       2.189   5.681  20.190  0.00  0.00    +0.000 A 
ATOM      9  C   UNL     1       1.563   6.988  20.379  0.00  0.00    +0.000 A 
ATOM     10  N   UNL     1       0.813   7.133  21.499  0.00  0.00    +0.000 NA
ATOM     11  C   UNL     1       0.279   8.341  21.729  0.00  0.00    +0.000 A 
ATOM     12  C   UNL     1       0.452   9.422  20.885  0.00  0.00    +0.000 A 
ATOM     13  C   UNL     1       1.175   9.284  19.684  0.00  0.00    +0.000 A 
ATOM     14  C   UNL     1       1.395  10.337  18.744  0.00  0.00    +0.000 A 
ATOM     15  C   UNL     1       2.185  10.003  17.634  0.00  0.00    +0.000 A 
ATOM     16  N   UNL     1       2.757   8.801  17.397  0.00  0.00    +0.000 NA
ATOM     17  C   UNL     1       2.541   7.833  18.317  0.00  0.00    +0.000 A 
ATOM     18  C   UNL     1       1.759   8.016  19.452  0.00  0.00    +0.000 A 
ENDROOT
BRANCH  14  19
ATOM     19  N   UNL     1       0.930  11.633  18.952  0.00  0.00    +0.000 N 
ATOM     20  C   UNL     1      -0.506  11.927  18.885  0.00  0.00    +0.000 C 
ATOM     21  C   UNL     1      -0.675  13.277  18.185  0.00  0.00    +0.000 C 
ATOM     22  C   UNL     1       0.146  14.379  18.858  0.00  0.00    +0.000 C 
ATOM     23  C   UNL     1       1.601  13.956  19.078  0.00  0.00    +0.000 C 
ATOM     24  C   UNL     1       1.686  12.590  19.768  0.00  0.00    +0.000 C 
ENDBRANCH  14  19
TORSDOF 1
ENDMDL
MODEL 7
REMARK VINA RESULT:      -6.4      3.027      7.045
REMARK  Name = 
REMARK  1 active torsions:
REMARK  status: ('A' for Active; 'I' for Inactive)
REMARK    1  A    between atoms: C_14  and  N_15
REMARK                            x       y       z     vdW  Elec       q    Type
REMARK                         _______ _______ _______ _____ _____    ______ ____
ROOT
ATOM      1  O   UNL     1      -4.182  13.877  21.331  0.00  0.00    +0.000 OA
ATOM      2  C   UNL     1      -4.151  13.161  20.337  0.00  0.00    +0.000 C 
ATOM      3  C   UNL     1      -5.257  13.177  19.331  0.00  0.00    +0.000 A 
ATOM      4  N   UNL     1      -6.297  14.018  19.587  0.00  0.00    +0.000 NA
ATOM      5  C   UNL     1      -7.301  14.046  18.687  0.00  0.00    +0.000 A 
ATOM      6  C   UNL     1      -7.321  13.278  17.539  0.00  0.00    +0.000 A 
ATOM      7  C   UNL     1      -6.248  12.427  17.299  0.00  0.00    +0.000 A 
ATOM      8  C   UNL     1      -5.179  12.358  18.206  0.00  0.00    +0.000 A 
ATOM      9  C   UNL     1      -4.022  11.490  18.001  0.00  0.00    +0.000 A 
ATOM     10  N   UNL     1      -4.027  10.749  16.866  0.00  0.00    +0.000 NA
ATOM     11  C   UNL     1      -2.948   9.992  16.621  0.00  0.00    +0.000 A 
ATOM     12  C   UNL     1      -1.854   9.932  17.465  0.00  0.00    +0.000 A 
ATOM     13  C   UNL     1      -1.847  10.644  18.680  0.00  0.00    +0.000 A 
ATOM     14  C   UNL     1      -0.772  10.633  19.620  0.00  0.00    +0.000 A 
ATOM     15  C   UNL     1      -0.944  11.452  20.746  0.00  0.00    +0.000 A 
ATOM     16  N   UNL     1      -2.010  12.245  20.999  0.00  0.00    +0.000 NA
ATOM     17  C   UNL     1      -3.000  12.242  20.079  0.00  0.00    +0.000 A 
ATOM     18  C   UNL     1      -2.975  11.461  18.928  0.00  0.00    +0.000 A 
ENDROOT
BRANCH  14  19
ATOM     19  N   UNL     1       0.407   9.926  19.399  0.00  0.00    +0.000 N 
ATOM     20  C   UNL     1       1.327  10.331  18.329  0.00  0.00    +0.000 C 
ATOM     21  C   UNL     1       1.868   9.059  17.672  0.00  0.00    +0.000 C 
ATOM     22  C   UNL     1       2.496   8.108  18.693  0.00  0.00    +0.000 C 
ATOM     23  C   UNL     1       1.572   7.860  19.888  0.00  0.00    +0.000 C 
ATOM     24  C   UNL     1       1.060   9.179  20.481  0.00  0.00    +0.000 C 
ENDBRANCH  14  19
TORSDOF 1
ENDMDL
MODEL 8
REMARK VINA RESULT:      -6.3      2.871      5.413
REMARK  Name = 
REMARK  1 active torsions:
REMARK  status: ('A' for Active; 'I' for Inactive)
REMARK    1  A    between atoms: C_14  and  N_15
REMARK                            x       y       z     vdW  Elec       q    Type
REMARK                         _______ _______ _______ _____ _____    ______ ____
ROOT
ATOM      1  O   UNL     1       4.364   7.213  16.540  0.00  0.00    +0.000 OA
ATOM      2  C   UNL     1       3.699   7.028  17.553  0.00  0.00    +0.000 C 
ATOM      3  C   UNL     1       3.807   5.756  18.332  0.00  0.00    +0.000 A 
ATOM      4  N   UNL     1       4.669   4.820  17.848  0.00  0.00    +0.000 NA
ATOM      5  C   UNL     1       4.778   3.669  18.542  0.00  0.00    +0.000 A 
ATOM      6  C   UNL     1       4.073   3.403  19.700  0.00  0.00    +0.000 A 
ATOM      7  C   UNL     1       3.198   4.374  20.174  0.00  0.00    +0.000 A 
ATOM      8  C   UNL     1       3.044   5.588  19.487  0.00  0.00    +0.000 A 
ATOM      9  C   UNL     1       2.149   6.648  19.944  0.00  0.00    +0.000 A 
ATOM     10  N   UNL     1       1.468   6.400  21.090  0.00  0.00    +0.000 NA
ATOM     11  C   UNL     1       0.688   7.380  21.566  0.00  0.00    +0.000 A 
ATOM     12  C   UNL     1       0.546   8.608  20.946  0.00  0.00    +0.000 A 
ATOM     13  C   UNL     1       1.193   8.872  19.723  0.00  0.00    +0.000 A 
ATOM     14  C   UNL     1       1.095  10.101  19.002  0.00  0.00    +0.000 A 
ATOM     15  C   UNL     1       1.860  10.177  17.828  0.00  0.00    +0.000 A 
ATOM     16  N   UNL     1       2.675   9.212  17.345  0.00  0.00    +0.000 NA
ATOM     17  C   UNL     1       2.755   8.069  18.063  0.00  0.00    +0.000 A 
ATOM     18  C   UNL     1       2.035   7.846  19.232  0.00  0.00    +0.000 A 
ENDROOT
BRANCH  14  19
ATOM     19  N   UNL     1       0.360  11.186  19.472  0.00  0.00    +0.000 N 
ATOM     20  C   UNL     1       0.985  12.185  20.347  0.00  0.00    +0.000 C 
ATOM     21  C   UNL     1      -0.040  12.580  21.412  0.00  0.00    +0.000 C 
ATOM     22  C   UNL     1      -1.360  13.047  20.794  0.00  0.00    +0.000 C 
ATOM     23  C   UNL     1      -1.882  12.059  19.747  0.00  0.00    +0.000 C 
ATOM     24  C   UNL     1      -0.795  11.701  18.726  0.00  0.00    +0.000 C 
ENDBRANCH  14  19
TORSDOF 1
ENDMDL
MODEL 9
REMARK VINA RESULT:      -6.3      2.495      7.728
REMARK  Name = 
REMARK  1 active torsions:
REMARK  status: ('A' for Active; 'I' for Inactive)
REMARK    1  A    between atoms: C_14  and  N_15
REMARK                            x       y       z     vdW  Elec       q    Type
REMARK                         _______ _______ _______ _____ _____    ______ ____
ROOT
ATOM      1  O   UNL     1      -0.074   9.248  23.239  0.00  0.00    +0.000 OA
ATOM      2  C   UNL     1       0.302   9.552  22.113  0.00  0.00    +0.000 C 
ATOM      3  C   UNL     1       0.174  10.950  21.601  0.00  0.00    +0.000 A 
ATOM      4  N   UNL     1      -0.390  11.857  22.446  0.00  0.00    +0.000 NA
ATOM      5  C   UNL     1      -0.509  13.123  21.998  0.00  0.00    +0.000 A 
ATOM      6  C   UNL     1      -0.090  13.536  20.748  0.00  0.00    +0.000 A 
ATOM      7  C   UNL     1       0.483  12.592  19.902  0.00  0.00    +0.000 A 
ATOM      8  C   UNL     1       0.627  11.259  20.319  0.00  0.00    +0.000 A 
ATOM      9  C   UNL     1       1.230  10.228  19.478  0.00  0.00    +0.000 A 
ATOM     10  N   UNL     1       1.660  10.632  18.257  0.00  0.00    +0.000 NA
ATOM     11  C   UNL     1       2.276   9.720  17.490  0.00  0.00    +0.000 A 
ATOM     12  C   UNL     1       2.480   8.410  17.882  0.00  0.00    +0.000 A 
ATOM     13  C   UNL     1       1.990   7.948  19.118  0.00  0.00    +0.000 A 
ATOM     14  C   UNL     1       2.139   6.612  19.602  0.00  0.00    +0.000 A 
ATOM     15  C   UNL     1       1.622   6.370  20.883  0.00  0.00    +0.000 A 
ATOM     16  N   UNL     1       1.023   7.280  21.685  0.00  0.00    +0.000 NA
ATOM     17  C   UNL     1       0.915   8.538  21.201  0.00  0.00    +0.000 A 
ATOM     18  C   UNL     1       1.362   8.914  19.938  0.00  0.00    +0.000 A 
ENDROOT
BRANCH  14  19
ATOM     19  N   UNL     1       2.827   5.632  18.890  0.00  0.00    +0.000 N 
ATOM     20  C   UNL     1       2.190   4.950  17.758  0.00  0.00    +0.000 C 
ATOM     21  C   UNL     1       2.592   3.475  17.813  0.00  0.00    +0.000 C 
ATOM     22  C   UNL     1       4.111   3.297  17.859  0.00  0.00    +0.000 C 
ATOM     23  C   UNL     1       4.758   4.171  18.937  0.00  0.00    +0.000 C 
ATOM     24  C   UNL     1       4.293   5.629  18.826  0.00  0.00    +0.000 C 
ENDBRANCH  14  19
TORSDOF 1
ENDMDL
