MODEL 1
REMARK VINA RESULT:      -9.1      0.000      0.000
REMARK  Name = 
REMARK  5 active torsions:
REMARK  status: ('A' for Active; 'I' for Inactive)
REMARK    1  A    between atoms: C_2  and  O_3
REMARK    2  A    between atoms: C_2  and  C_4
REMARK    3  A    between atoms: C_7  and  C_8
REMARK    4  A    between atoms: C_8  and  N_9
REMARK    5  A    between atoms: C_11  and  C_12
REMARK                            x       y       z     vdW  Elec       q    Type
REMARK                         _______ _______ _______ _____ _____    ______ ____
ROOT
ATOM      1  N   UNL     1       1.546   9.178  19.111  0.00  0.00    +0.000 N 
ATOM      2  C   UNL     1       2.238   8.273  18.311  0.00  0.00    +0.000 A 
ATOM      3  C   UNL     1       2.590   7.027  18.696  0.00  0.00    +0.000 A 
ATOM      4  C   UNL     1       2.222   6.653  20.103  0.00  0.00    +0.000 A 
ATOM      5  S   UNL     1       2.530   5.209  20.897  0.00  0.00    +0.000 S 
ATOM      6  N   UNL     1       1.553   7.620  20.828  0.00  0.00    +0.000 N 
ATOM      7  C   UNL     1       1.181   8.879  20.416  0.00  0.00    +0.000 A 
ATOM      8  O   UNL     1       0.565   9.634  21.162  0.00  0.00    +0.000 OA
ATOM      9  H   UNL     1       1.276   7.387  21.771  0.00  0.00    +0.000 HD
ENDROOT
BRANCH   3  10
ATOM     10  C   UNL     1       3.174   5.990  17.684  0.00  0.00    +0.000 C 
ATOM     11  C   UNL     1       2.557   4.547  17.950  0.00  0.00    +0.000 A 
ATOM     12  C   UNL     1       1.174   4.405  18.183  0.00  0.00    +0.000 A 
ATOM     13  C   UNL     1       0.598   3.151  18.453  0.00  0.00    +0.000 A 
ATOM     14  C   UNL     1       1.382   2.002  18.524  0.00  0.00    +0.000 A 
ATOM     15  C   UNL     1       2.728   2.088  18.217  0.00  0.00    +0.000 A 
ATOM     16  C   UNL     1       3.278   3.325  17.864  0.00  0.00    +0.000 A 
ATOM     17  C   UNL     1       4.598   3.276  17.260  0.00  0.00    +0.000 C 
ATOM     18  C   UNL     1       4.643   3.981  16.118  0.00  0.00    +0.000 C 
ATOM     19  C   UNL     1       5.347   5.213  16.436  0.00  0.00    +0.000 A 
ATOM     20  C   UNL     1       6.696   5.276  16.065  0.00  0.00    +0.000 A 
ATOM     21  C   UNL     1       7.485   6.285  16.576  0.00  0.00    +0.000 A 
ATOM     22  C   UNL     1       6.907   7.236  17.418  0.00  0.00    +0.000 A 
ATOM     23  C   UNL     1       5.537   7.186  17.768  0.00  0.00    +0.000 A 
ATOM     24  C   UNL     1       4.712   6.143  17.319  0.00  0.00    +0.000 A 
ENDBRANCH   3  10
BRANCH   1  25
ATOM     25  C   UNL     1       1.114  10.477  18.573  0.00  0.00    +0.000 C 
BRANCH  25  29
ATOM     26  C   UNL     1      -2.748  10.904  18.162  0.00  0.00    +0.000 A 
ATOM     27  C   UNL     1      -2.289   9.845  17.402  0.00  0.00    +0.000 A 
ATOM     28  N   UNL     1      -0.933   9.596  17.468  0.00  0.00    +0.000 NA
ATOM     29  C   UNL     1      -0.358  10.469  18.270  0.00  0.00    +0.000 A 
ATOM     30  S   UNL     1      -1.427  11.610  18.995  0.00  0.00    +0.000 S 
BRANCH  26  32
ATOM     31  O   UNL     1      -5.093  10.723  17.908  0.00  0.00    +0.000 OA
ATOM     32  C   UNL     1      -4.114  11.363  18.261  0.00  0.00    +0.000 C 
BRANCH  32  33
ATOM     33  O   UNL     1      -4.231  12.607  18.791  0.00  0.00    +0.000 OA
ATOM     34  H   UNL     1      -4.006  12.634  19.741  0.00  0.00    +0.000 HD
ENDBRANCH  32  33
ENDBRANCH  26  32
ENDBRANCH  25  29
ENDBRANCH   1  25
TORSDOF 5
ENDMDL
MODEL 2
REMARK VINA RESULT:      -8.4      2.128      3.257
REMARK  Name = 
REMARK  5 active torsions:
REMARK  status: ('A' for Active; 'I' for Inactive)
REMARK    1  A    between atoms: C_2  and  O_3
REMARK    2  A    between atoms: C_2  and  C_4
REMARK    3  A    between atoms: C_7  and  C_8
REMARK    4  A    between atoms: C_8  and  N_9
REMARK    5  A    between atoms: C_11  and  C_12
REMARK                            x       y       z     vdW  Elec       q    Type
REMARK                         _______ _______ _______ _____ _____    ______ ____
ROOT
ATOM      1  N   UNL     1       1.239   9.004  19.085  0.00  0.00    +0.000 N 
ATOM      2  C   UNL     1       1.993   8.164  18.270  0.00  0.00    +0.000 A 
ATOM      3  C   UNL     1       2.530   6.991  18.670  0.00  0.00    +0.000 A 
ATOM      4  C   UNL     1       2.305   6.630  20.110  0.00  0.00    +0.000 A 
ATOM      5  S   UNL     1       2.851   5.273  20.928  0.00  0.00    +0.000 S 
ATOM      6  N   UNL     1       1.561   7.531  20.847  0.00  0.00    +0.000 N 
ATOM      7  C   UNL     1       1.001   8.713  20.422  0.00  0.00    +0.000 A 
ATOM      8  O   UNL     1       0.339   9.412  21.183  0.00  0.00    +0.000 OA
ATOM      9  H   UNL     1       1.378   7.303  21.814  0.00  0.00    +0.000 HD
ENDROOT
BRANCH   3  10
ATOM     10  C   UNL     1       3.181   5.998  17.654  0.00  0.00    +0.000 C 
ATOM     11  C   UNL     1       2.646   4.519  17.904  0.00  0.00    +0.000 A 
ATOM     12  C   UNL     1       1.272   4.296  18.124  0.00  0.00    +0.000 A 
ATOM     13  C   UNL     1       0.766   3.009  18.379  0.00  0.00    +0.000 A 
ATOM     14  C   UNL     1       1.615   1.907  18.447  0.00  0.00    +0.000 A 
ATOM     15  C   UNL     1       2.956   2.072  18.152  0.00  0.00    +0.000 A 
ATOM     16  C   UNL     1       3.436   3.342  17.814  0.00  0.00    +0.000 A 
ATOM     17  C   UNL     1       4.762   3.374  17.221  0.00  0.00    +0.000 C 
ATOM     18  C   UNL     1       4.776   4.090  16.085  0.00  0.00    +0.000 C 
ATOM     19  C   UNL     1       5.404   5.358  16.419  0.00  0.00    +0.000 A 
ATOM     20  C   UNL     1       6.750   5.501  16.060  0.00  0.00    +0.000 A 
ATOM     21  C   UNL     1       7.476   6.550  16.586  0.00  0.00    +0.000 A 
ATOM     22  C   UNL     1       6.838   7.459  17.430  0.00  0.00    +0.000 A 
ATOM     23  C   UNL     1       5.471   7.327  17.768  0.00  0.00    +0.000 A 
ATOM     24  C   UNL     1       4.710   6.242  17.303  0.00  0.00    +0.000 A 
ENDBRANCH   3  10
BRANCH   1  25
ATOM     25  C   UNL     1       0.606  10.212  18.536  0.00  0.00    +0.000 C 
BRANCH  25  29
ATOM     26  C   UNL     1       2.589  13.447  19.467  0.00  0.00    +0.000 A 
ATOM     27  C   UNL     1       3.091  12.881  18.311  0.00  0.00    +0.000 A 
ATOM     28  N   UNL     1       2.466  11.728  17.881  0.00  0.00    +0.000 NA
ATOM     29  C   UNL     1       1.495  11.410  18.713  0.00  0.00    +0.000 A 
ATOM     30  S   UNL     1       1.279  12.498  20.033  0.00  0.00    +0.000 S 
BRANCH  26  32
ATOM     31  O   UNL     1       2.441  15.692  20.199  0.00  0.00    +0.000 OA
ATOM     32  C   UNL     1       3.067  14.646  20.116  0.00  0.00    +0.000 C 
BRANCH  32  33
ATOM     33  O   UNL     1       4.313  14.519  20.640  0.00  0.00    +0.000 OA
ATOM     34  H   UNL     1       4.637  13.599  20.619  0.00  0.00    +0.000 HD
ENDBRANCH  32  33
ENDBRANCH  26  32
ENDBRANCH  25  29
ENDBRANCH   1  25
TORSDOF 5
ENDMDL
MODEL 3
REMARK VINA RESULT:      -8.4      6.728      9.395
REMARK  Name = 
REMARK  5 active torsions:
REMARK  status: ('A' for Active; 'I' for Inactive)
REMARK    1  A    between atoms: C_2  and  O_3
REMARK    2  A    between atoms: C_2  and  C_4
REMARK    3  A    between atoms: C_7  and  C_8
REMARK    4  A    between atoms: C_8  and  N_9
REMARK    5  A    between atoms: C_11  and  C_12
REMARK                            x       y       z     vdW  Elec       q    Type
REMARK                         _______ _______ _______ _____ _____    ______ ____
ROOT
ATOM      1  N   UNL     1       5.076  15.527  18.763  0.00  0.00    +0.000 N 
ATOM      2  C   UNL     1       6.158  14.774  19.210  0.00  0.00    +0.000 A 
ATOM      3  C   UNL     1       7.042  15.187  20.145  0.00  0.00    +0.000 A 
ATOM      4  C   UNL     1       6.822  16.572  20.681  0.00  0.00    +0.000 A 
ATOM      5  S   UNL     1       7.738  17.392  21.820  0.00  0.00    +0.000 S 
ATOM      6  N   UNL     1       5.734  17.251  20.167  0.00  0.00    +0.000 N 
ATOM      7  C   UNL     1       4.829  16.811  19.230  0.00  0.00    +0.000 A 
ATOM      8  O   UNL     1       3.887  17.515  18.877  0.00  0.00    +0.000 OA
ATOM      9  H   UNL     1       5.552  18.178  20.525  0.00  0.00    +0.000 HD
ENDROOT
BRANCH   3  10
ATOM     10  C   UNL     1       8.104  14.217  20.754  0.00  0.00    +0.000 C 
ATOM     11  C   UNL     1       8.984  13.561  19.600  0.00  0.00    +0.000 A 
ATOM     12  C   UNL     1       9.474  14.361  18.548  0.00  0.00    +0.000 A 
ATOM     13  C   UNL     1      10.227  13.812  17.495  0.00  0.00    +0.000 A 
ATOM     14  C   UNL     1      10.495  12.447  17.442  0.00  0.00    +0.000 A 
ATOM     15  C   UNL     1      10.105  11.644  18.498  0.00  0.00    +0.000 A 
ATOM     16  C   UNL     1       9.432  12.212  19.585  0.00  0.00    +0.000 A 
ATOM     17  C   UNL     1       9.340  11.380  20.773  0.00  0.00    +0.000 C 
ATOM     18  C   UNL     1       9.740  12.042  21.870  0.00  0.00    +0.000 C 
ATOM     19  C   UNL     1       8.526  12.392  22.590  0.00  0.00    +0.000 A 
ATOM     20  C   UNL     1       8.193  11.581  23.683  0.00  0.00    +0.000 A 
ATOM     21  C   UNL     1       6.932  11.681  24.231  0.00  0.00    +0.000 A 
ATOM     22  C   UNL     1       6.036  12.614  23.706  0.00  0.00    +0.000 A 
ATOM     23  C   UNL     1       6.386  13.451  22.620  0.00  0.00    +0.000 A 
ATOM     24  C   UNL     1       7.638  13.341  21.994  0.00  0.00    +0.000 A 
ENDBRANCH   3  10
BRANCH   1  25
ATOM     25  C   UNL     1       4.106  14.957  17.816  0.00  0.00    +0.000 C 
BRANCH  25  29
ATOM     26  C   UNL     1       1.785  12.785  20.089  0.00  0.00    +0.000 A 
ATOM     27  C   UNL     1       1.895  12.229  18.829  0.00  0.00    +0.000 A 
ATOM     28  N   UNL     1       2.694  12.912  17.934  0.00  0.00    +0.000 NA
ATOM     29  C   UNL     1       3.186  13.990  18.509  0.00  0.00    +0.000 A 
ATOM     30  S   UNL     1       2.726  14.216  20.155  0.00  0.00    +0.000 S 
BRANCH  26  32
ATOM     31  O   UNL     1       0.921  11.082  21.486  0.00  0.00    +0.000 OA
ATOM     32  C   UNL     1       1.013  12.265  21.194  0.00  0.00    +0.000 C 
BRANCH  32  33
ATOM     33  O   UNL     1       0.370  13.226  21.906  0.00  0.00    +0.000 OA
ATOM     34  H   UNL     1       0.461  14.112  21.507  0.00  0.00    +0.000 HD
ENDBRANCH  32  33
ENDBRANCH  26  32
ENDBRANCH  25  29
ENDBRANCH   1  25
TORSDOF 5
ENDMDL
MODEL 4
REMARK VINA RESULT:      -8.3      2.306      3.407
REMARK  Name = 
REMARK  5 active torsions:
REMARK  status: ('A' for Active; 'I' for Inactive)
REMARK    1  A    between atoms: C_2  and  O_3
REMARK    2  A    between atoms: C_2  and  C_4
REMARK    3  A    between atoms: C_7  and  C_8
REMARK    4  A    between atoms: C_8  and  N_9
REMARK    5  A    between atoms: C_11  and  C_12
REMARK                            x       y       z     vdW  Elec       q    Type
REMARK                         _______ _______ _______ _____ _____    ______ ____
ROOT
ATOM      1  N   UNL     1       1.206   9.002  19.063  0.00  0.00    +0.000 N 
ATOM      2  C   UNL     1       1.966   8.167  18.249  0.00  0.00    +0.000 A 
ATOM      3  C   UNL     1       2.521   7.004  18.654  0.00  0.00    +0.000 A 
ATOM      4  C   UNL     1       2.308   6.650  20.098  0.00  0.00    +0.000 A 
ATOM      5  S   UNL     1       2.875   5.305  20.922  0.00  0.00    +0.000 S 
ATOM      6  N   UNL     1       1.556   7.546  20.832  0.00  0.00    +0.000 N 
ATOM      7  C   UNL     1       0.978   8.717  20.402  0.00  0.00    +0.000 A 
ATOM      8  O   UNL     1       0.312   9.413  21.162  0.00  0.00    +0.000 OA
ATOM      9  H   UNL     1       1.382   7.323  21.802  0.00  0.00    +0.000 HD
ENDROOT
BRANCH   3  10
ATOM     10  C   UNL     1       3.179   6.012  17.641  0.00  0.00    +0.000 C 
ATOM     11  C   UNL     1       2.645   4.533  17.887  0.00  0.00    +0.000 A 
ATOM     12  C   UNL     1       1.270   4.307  18.101  0.00  0.00    +0.000 A 
ATOM     13  C   UNL     1       0.766   3.019  18.352  0.00  0.00    +0.000 A 
ATOM     14  C   UNL     1       1.615   1.918  18.424  0.00  0.00    +0.000 A 
ATOM     15  C   UNL     1       2.958   2.085  18.137  0.00  0.00    +0.000 A 
ATOM     16  C   UNL     1       3.438   3.356  17.802  0.00  0.00    +0.000 A 
ATOM     17  C   UNL     1       4.767   3.391  17.215  0.00  0.00    +0.000 C 
ATOM     18  C   UNL     1       4.785   4.108  16.080  0.00  0.00    +0.000 C 
ATOM     19  C   UNL     1       5.410   5.376  16.418  0.00  0.00    +0.000 A 
ATOM     20  C   UNL     1       6.757   5.522  16.066  0.00  0.00    +0.000 A 
ATOM     21  C   UNL     1       7.478   6.572  16.596  0.00  0.00    +0.000 A 
ATOM     22  C   UNL     1       6.834   7.480  17.437  0.00  0.00    +0.000 A 
ATOM     23  C   UNL     1       5.465   7.345  17.768  0.00  0.00    +0.000 A 
ATOM     24  C   UNL     1       4.709   6.259  17.299  0.00  0.00    +0.000 A 
ENDBRANCH   3  10
BRANCH   1  25
ATOM     25  C   UNL     1       0.554  10.198  18.509  0.00  0.00    +0.000 C 
BRANCH  25  29
ATOM     26  C   UNL     1       2.828  13.342  18.974  0.00  0.00    +0.000 A 
ATOM     27  C   UNL     1       1.963  13.200  20.043  0.00  0.00    +0.000 A 
ATOM     28  N   UNL     1       1.108  12.119  19.989  0.00  0.00    +0.000 NA
ATOM     29  C   UNL     1       1.313  11.442  18.878  0.00  0.00    +0.000 A 
ATOM     30  S   UNL     1       2.559  12.065  17.863  0.00  0.00    +0.000 S 
BRANCH  26  32
ATOM     31  O   UNL     1       4.461  14.892  19.697  0.00  0.00    +0.000 OA
ATOM     32  C   UNL     1       3.812  14.384  18.795  0.00  0.00    +0.000 C 
BRANCH  32  33
ATOM     33  O   UNL     1       3.961  14.774  17.504  0.00  0.00    +0.000 OA
ATOM     34  H   UNL     1       4.041  15.742  17.411  0.00  0.00    +0.000 HD
ENDBRANCH  32  33
ENDBRANCH  26  32
ENDBRANCH  25  29
ENDBRANCH   1  25
TORSDOF 5
ENDMDL
MODEL 5
REMARK VINA RESULT:      -8.3      6.720      9.412
REMARK  Name = 
REMARK  5 active torsions:
REMARK  status: ('A' for Active; 'I' for Inactive)
REMARK    1  A    between atoms: C_2  and  O_3
REMARK    2  A    between atoms: C_2  and  C_4
REMARK    3  A    between atoms: C_7  and  C_8
REMARK    4  A    between atoms: C_8  and  N_9
REMARK    5  A    between atoms: C_11  and  C_12
REMARK                            x       y       z     vdW  Elec       q    Type
REMARK                         _______ _______ _______ _____ _____    ______ ____
ROOT
ATOM      1  N   UNL     1       4.824  15.485  18.927  0.00  0.00    +0.000 N 
ATOM      2  C   UNL     1       5.922  14.742  19.350  0.00  0.00    +0.000 A 
ATOM      3  C   UNL     1       6.924  15.228  20.115  0.00  0.00    +0.000 A 
ATOM      4  C   UNL     1       6.821  16.681  20.476  0.00  0.00    +0.000 A 
ATOM      5  S   UNL     1       7.895  17.595  21.382  0.00  0.00    +0.000 S 
ATOM      6  N   UNL     1       5.706  17.342  19.997  0.00  0.00    +0.000 N 
ATOM      7  C   UNL     1       4.682  16.830  19.236  0.00  0.00    +0.000 A 
ATOM      8  O   UNL     1       3.733  17.530  18.896  0.00  0.00    +0.000 OA
ATOM      9  H   UNL     1       5.602  18.317  20.242  0.00  0.00    +0.000 HD
ENDROOT
BRANCH   3  10
ATOM     10  C   UNL     1       8.014  14.292  20.731  0.00  0.00    +0.000 C 
ATOM     11  C   UNL     1       8.917  13.661  19.582  0.00  0.00    +0.000 A 
ATOM     12  C   UNL     1       9.386  14.473  18.530  0.00  0.00    +0.000 A 
ATOM     13  C   UNL     1      10.160  13.944  17.481  0.00  0.00    +0.000 A 
ATOM     14  C   UNL     1      10.470  12.588  17.433  0.00  0.00    +0.000 A 
ATOM     15  C   UNL     1      10.101  11.776  18.489  0.00  0.00    +0.000 A 
ATOM     16  C   UNL     1       9.406  12.326  19.572  0.00  0.00    +0.000 A 
ATOM     17  C   UNL     1       9.336  11.495  20.762  0.00  0.00    +0.000 C 
ATOM     18  C   UNL     1       9.711  12.172  21.858  0.00  0.00    +0.000 C 
ATOM     19  C   UNL     1       8.484  12.485  22.573  0.00  0.00    +0.000 A 
ATOM     20  C   UNL     1       8.172  11.668  23.667  0.00  0.00    +0.000 A 
ATOM     21  C   UNL     1       6.906  11.730  24.210  0.00  0.00    +0.000 A 
ATOM     22  C   UNL     1       5.985  12.634  23.679  0.00  0.00    +0.000 A 
ATOM     23  C   UNL     1       6.313  13.478  22.593  0.00  0.00    +0.000 A 
ATOM     24  C   UNL     1       7.570  13.406  21.971  0.00  0.00    +0.000 A 
ENDBRANCH   3  10
BRANCH   1  25
ATOM     25  C   UNL     1       3.729  14.846  18.182  0.00  0.00    +0.000 C 
BRANCH  25  29
ATOM     26  C   UNL     1       1.384  12.421  20.153  0.00  0.00    +0.000 A 
ATOM     27  C   UNL     1       1.637  13.562  20.889  0.00  0.00    +0.000 A 
ATOM     28  N   UNL     1       2.457  14.498  20.291  0.00  0.00    +0.000 NA
ATOM     29  C   UNL     1       2.836  14.066  19.105  0.00  0.00    +0.000 A 
ATOM     30  S   UNL     1       2.202  12.528  18.651  0.00  0.00    +0.000 S 
BRANCH  26  32
ATOM     31  O   UNL     1      -0.438  10.923  19.967  0.00  0.00    +0.000 OA
ATOM     32  C   UNL     1       0.563  11.302  20.556  0.00  0.00    +0.000 C 
BRANCH  32  33
ATOM     33  O   UNL     1       1.002  10.685  21.682  0.00  0.00    +0.000 OA
ATOM     34  H   UNL     1       1.071   9.717  21.577  0.00  0.00    +0.000 HD
ENDBRANCH  32  33
ENDBRANCH  26  32
ENDBRANCH  25  29
ENDBRANCH   1  25
TORSDOF 5
ENDMDL
MODEL 6
REMARK VINA RESULT:      -8.0      3.244      9.168
REMARK  Name = 
REMARK  5 active torsions:
REMARK  status: ('A' for Active; 'I' for Inactive)
REMARK    1  A    between atoms: C_2  and  O_3
REMARK    2  A    between atoms: C_2  and  C_4
REMARK    3  A    between atoms: C_7  and  C_8
REMARK    4  A    between atoms: C_8  and  N_9
REMARK    5  A    between atoms: C_11  and  C_12
REMARK                            x       y       z     vdW  Elec       q    Type
REMARK                         _______ _______ _______ _____ _____    ______ ____
ROOT
ATOM      1  N   UNL     1      -0.032  10.660  20.722  0.00  0.00    +0.000 N 
ATOM      2  C   UNL     1      -1.268  10.885  20.123  0.00  0.00    +0.000 A 
ATOM      3  C   UNL     1      -1.731  12.101  19.761  0.00  0.00    +0.000 A 
ATOM      4  C   UNL     1      -0.833  13.261  20.081  0.00  0.00    +0.000 A 
ATOM      5  S   UNL     1      -1.112  14.888  19.793  0.00  0.00    +0.000 S 
ATOM      6  N   UNL     1       0.365  12.944  20.692  0.00  0.00    +0.000 N 
ATOM      7  C   UNL     1       0.835  11.698  21.036  0.00  0.00    +0.000 A 
ATOM      8  O   UNL     1       1.937  11.557  21.557  0.00  0.00    +0.000 OA
ATOM      9  H   UNL     1       0.997  13.704  20.901  0.00  0.00    +0.000 HD
ENDROOT
BRANCH   3  10
ATOM     10  C   UNL     1      -3.027  12.263  18.903  0.00  0.00    +0.000 C 
ATOM     11  C   UNL     1      -4.306  12.369  19.845  0.00  0.00    +0.000 A 
ATOM     12  C   UNL     1      -4.271  13.188  20.991  0.00  0.00    +0.000 A 
ATOM     13  C   UNL     1      -5.369  13.281  21.864  0.00  0.00    +0.000 A 
ATOM     14  C   UNL     1      -6.529  12.545  21.637  0.00  0.00    +0.000 A 
ATOM     15  C   UNL     1      -6.634  11.796  20.479  0.00  0.00    +0.000 A 
ATOM     16  C   UNL     1      -5.569  11.777  19.572  0.00  0.00    +0.000 A 
ATOM     17  C   UNL     1      -5.873  11.236  18.257  0.00  0.00    +0.000 C 
ATOM     18  C   UNL     1      -5.471  12.064  17.280  0.00  0.00    +0.000 C 
ATOM     19  C   UNL     1      -4.262  11.473  16.729  0.00  0.00    +0.000 A 
ATOM     20  C   UNL     1      -4.405  10.764  15.529  0.00  0.00    +0.000 A 
ATOM     21  C   UNL     1      -3.372   9.955  15.102  0.00  0.00    +0.000 A 
ATOM     22  C   UNL     1      -2.201   9.896  15.859  0.00  0.00    +0.000 A 
ATOM     23  C   UNL     1      -2.050  10.636  17.055  0.00  0.00    +0.000 A 
ATOM     24  C   UNL     1      -3.097  11.425  17.557  0.00  0.00    +0.000 A 
ENDBRANCH   3  10
BRANCH   1  25
ATOM     25  C   UNL     1       0.434   9.291  20.989  0.00  0.00    +0.000 C 
BRANCH  25  29
ATOM     26  C   UNL     1       2.681   7.486  18.350  0.00  0.00    +0.000 A 
ATOM     27  C   UNL     1       2.161   8.656  17.832  0.00  0.00    +0.000 A 
ATOM     28  N   UNL     1       1.349   9.384  18.677  0.00  0.00    +0.000 NA
ATOM     29  C   UNL     1       1.241   8.765  19.835  0.00  0.00    +0.000 A 
ATOM     30  S   UNL     1       2.132   7.295  19.963  0.00  0.00    +0.000 S 
BRANCH  26  32
ATOM     31  O   UNL     1       4.603   6.855  17.125  0.00  0.00    +0.000 OA
ATOM     32  C   UNL     1       3.551   6.555  17.670  0.00  0.00    +0.000 C 
BRANCH  32  33
ATOM     33  O   UNL     1       3.092   5.278  17.676  0.00  0.00    +0.000 OA
ATOM     34  H   UNL     1       2.142   5.220  17.458  0.00  0.00    +0.000 HD
ENDBRANCH  32  33
ENDBRANCH  26  32
ENDBRANCH  25  29
ENDBRANCH   1  25
TORSDOF 5
ENDMDL
MODEL 7
REMARK VINA RESULT:      -8.0      4.970     11.228
REMARK  Name = 
REMARK  5 active torsions:
REMARK  status: ('A' for Active; 'I' for Inactive)
REMARK    1  A    between atoms: C_2  and  O_3
REMARK    2  A    between atoms: C_2  and  C_4
REMARK    3  A    between atoms: C_7  and  C_8
REMARK    4  A    between atoms: C_8  and  N_9
REMARK    5  A    between atoms: C_11  and  C_12
REMARK                            x       y       z     vdW  Elec       q    Type
REMARK                         _______ _______ _______ _____ _____    ______ ____
ROOT
ATOM      1  N   UNL     1      -2.665  11.658  18.218  0.00  0.00    +0.000 N 
ATOM      2  C   UNL     1      -3.442  12.517  18.990  0.00  0.00    +0.000 A 
ATOM      3  C   UNL     1      -4.746  12.317  19.277  0.00  0.00    +0.000 A 
ATOM      4  C   UNL     1      -5.366  11.092  18.668  0.00  0.00    +0.000 A 
ATOM      5  S   UNL     1      -6.952  10.567  18.801  0.00  0.00    +0.000 S 
ATOM      6  N   UNL     1      -4.524  10.309  17.903  0.00  0.00    +0.000 N 
ATOM      7  C   UNL     1      -3.190  10.512  17.636  0.00  0.00    +0.000 A 
ATOM      8  O   UNL     1      -2.551   9.718  16.953  0.00  0.00    +0.000 OA
ATOM      9  H   UNL     1      -4.911   9.468  17.497  0.00  0.00    +0.000 HD
ENDROOT
BRANCH   3  10
ATOM     10  C   UNL     1      -5.502  13.202  20.320  0.00  0.00    +0.000 C 
ATOM     11  C   UNL     1      -6.046  14.530  19.630  0.00  0.00    +0.000 A 
ATOM     12  C   UNL     1      -6.676  14.462  18.371  0.00  0.00    +0.000 A 
ATOM     13  C   UNL     1      -7.140  15.617  17.716  0.00  0.00    +0.000 A 
ATOM     14  C   UNL     1      -6.971  16.878  18.282  0.00  0.00    +0.000 A 
ATOM     15  C   UNL     1      -6.434  16.978  19.553  0.00  0.00    +0.000 A 
ATOM     16  C   UNL     1      -6.054  15.816  20.234  0.00  0.00    +0.000 A 
ATOM     17  C   UNL     1      -5.802  15.976  21.656  0.00  0.00    +0.000 C 
ATOM     18  C   UNL     1      -6.469  15.064  22.380  0.00  0.00    +0.000 C 
ATOM     19  C   UNL     1      -5.481  14.079  22.791  0.00  0.00    +0.000 A 
ATOM     20  C   UNL     1      -5.000  14.187  24.102  0.00  0.00    +0.000 A 
ATOM     21  C   UNL     1      -3.876  13.474  24.464  0.00  0.00    +0.000 A 
ATOM     22  C   UNL     1      -3.274  12.636  23.524  0.00  0.00    +0.000 A 
ATOM     23  C   UNL     1      -3.780  12.508  22.210  0.00  0.00    +0.000 A 
ATOM     24  C   UNL     1      -4.886  13.260  21.781  0.00  0.00    +0.000 A 
ENDBRANCH   3  10
BRANCH   1  25
ATOM     25  C   UNL     1      -1.225  11.902  18.042  0.00  0.00    +0.000 C 
BRANCH  25  29
ATOM     26  C   UNL     1       0.608   9.872  20.832  0.00  0.00    +0.000 A 
ATOM     27  C   UNL     1       1.046   9.488  19.579  0.00  0.00    +0.000 A 
ATOM     28  N   UNL     1       0.468  10.140  18.510  0.00  0.00    +0.000 NA
ATOM     29  C   UNL     1      -0.417  11.014  18.946  0.00  0.00    +0.000 A 
ATOM     30  S   UNL     1      -0.572  11.103  20.660  0.00  0.00    +0.000 S 
BRANCH  26  32
ATOM     31  O   UNL     1       0.754   9.800  23.192  0.00  0.00    +0.000 OA
ATOM     32  C   UNL     1       1.055   9.343  22.100  0.00  0.00    +0.000 C 
BRANCH  32  33
ATOM     33  O   UNL     1       1.870   8.264  21.980  0.00  0.00    +0.000 OA
ATOM     34  H   UNL     1       1.389   7.459  21.707  0.00  0.00    +0.000 HD
ENDBRANCH  32  33
ENDBRANCH  26  32
ENDBRANCH  25  29
ENDBRANCH   1  25
TORSDOF 5
ENDMDL
MODEL 8
REMARK VINA RESULT:      -8.0      5.444     10.772
REMARK  Name = 
REMARK  5 active torsions:
REMARK  status: ('A' for Active; 'I' for Inactive)
REMARK    1  A    between atoms: C_2  and  O_3
REMARK    2  A    between atoms: C_2  and  C_4
REMARK    3  A    between atoms: C_7  and  C_8
REMARK    4  A    between atoms: C_8  and  N_9
REMARK    5  A    between atoms: C_11  and  C_12
REMARK                            x       y       z     vdW  Elec       q    Type
REMARK                         _______ _______ _______ _____ _____    ______ ____
ROOT
ATOM      1  N   UNL     1      -1.499  14.023  22.042  0.00  0.00    +0.000 N 
ATOM      2  C   UNL     1      -2.792  13.603  21.746  0.00  0.00    +0.000 A 
ATOM      3  C   UNL     1      -3.751  14.396  21.219  0.00  0.00    +0.000 A 
ATOM      4  C   UNL     1      -3.359  15.827  20.990  0.00  0.00    +0.000 A 
ATOM      5  S   UNL     1      -4.306  17.068  20.380  0.00  0.00    +0.000 S 
ATOM      6  N   UNL     1      -2.061  16.157  21.330  0.00  0.00    +0.000 N 
ATOM      7  C   UNL     1      -1.087  15.335  21.846  0.00  0.00    +0.000 A 
ATOM      8  O   UNL     1       0.040  15.757  22.083  0.00  0.00    +0.000 OA
ATOM      9  H   UNL     1      -1.765  17.109  21.168  0.00  0.00    +0.000 HD
ENDROOT
BRANCH   3  10
ATOM     10  C   UNL     1      -5.110  13.814  20.713  0.00  0.00    +0.000 C 
ATOM     11  C   UNL     1      -6.145  13.696  21.917  0.00  0.00    +0.000 A 
ATOM     12  C   UNL     1      -6.281  14.757  22.835  0.00  0.00    +0.000 A 
ATOM     13  C   UNL     1      -7.162  14.677  23.928  0.00  0.00    +0.000 A 
ATOM     14  C   UNL     1      -7.916  13.529  24.158  0.00  0.00    +0.000 A 
ATOM     15  C   UNL     1      -7.874  12.502  23.233  0.00  0.00    +0.000 A 
ATOM     16  C   UNL     1      -7.061  12.625  22.102  0.00  0.00    +0.000 A 
ATOM     17  C   UNL     1      -7.310  11.663  21.041  0.00  0.00    +0.000 C 
ATOM     18  C   UNL     1      -7.459  12.268  19.852  0.00  0.00    +0.000 C 
ATOM     19  C   UNL     1      -6.218  12.040  19.130  0.00  0.00    +0.000 A 
ATOM     20  C   UNL     1      -6.232  11.022  18.169  0.00  0.00    +0.000 A 
ATOM     21  C   UNL     1      -5.036  10.571  17.652  0.00  0.00    +0.000 A 
ATOM     22  C   UNL     1      -3.847  11.169  18.074  0.00  0.00    +0.000 A 
ATOM     23  C   UNL     1      -3.839  12.217  19.024  0.00  0.00    +0.000 A 
ATOM     24  C   UNL     1      -5.028  12.666  19.619  0.00  0.00    +0.000 A 
ENDBRANCH   3  10
BRANCH   1  25
ATOM     25  C   UNL     1      -0.490  13.065  22.518  0.00  0.00    +0.000 C 
BRANCH  25  29
ATOM     26  C   UNL     1       0.261  10.631  19.556  0.00  0.00    +0.000 A 
ATOM     27  C   UNL     1      -0.298   9.949  20.620  0.00  0.00    +0.000 A 
ATOM     28  N   UNL     1      -0.608  10.709  21.729  0.00  0.00    +0.000 NA
ATOM     29  C   UNL     1      -0.279  11.967  21.515  0.00  0.00    +0.000 A 
ATOM     30  S   UNL     1       0.396  12.290  19.962  0.00  0.00    +0.000 S 
BRANCH  26  32
ATOM     31  O   UNL     1       1.828   9.844  17.968  0.00  0.00    +0.000 OA
ATOM     32  C   UNL     1       0.671  10.065  18.291  0.00  0.00    +0.000 C 
BRANCH  32  33
ATOM     33  O   UNL     1      -0.365   9.793  17.457  0.00  0.00    +0.000 OA
ATOM     34  H   UNL     1      -0.086   9.716  16.525  0.00  0.00    +0.000 HD
ENDBRANCH  32  33
ENDBRANCH  26  32
ENDBRANCH  25  29
ENDBRANCH   1  25
TORSDOF 5
ENDMDL
MODEL 9
REMARK VINA RESULT:      -8.0      4.415     10.717
REMARK  Name = 
REMARK  5 active torsions:
REMARK  status: ('A' for Active; 'I' for Inactive)
REMARK    1  A    between atoms: C_2  and  O_3
REMARK    2  A    between atoms: C_2  and  C_4
REMARK    3  A    between atoms: C_7  and  C_8
REMARK    4  A    between atoms: C_8  and  N_9
REMARK    5  A    between atoms: C_11  and  C_12
REMARK                            x       y       z     vdW  Elec       q    Type
REMARK                         _______ _______ _______ _____ _____    ______ ____
ROOT
ATOM      1  N   UNL     1      -1.390  12.650  22.270  0.00  0.00    +0.000 N 
ATOM      2  C   UNL     1      -2.733  12.645  21.904  0.00  0.00    +0.000 A 
ATOM      3  C   UNL     1      -3.385  13.705  21.379  0.00  0.00    +0.000 A 
ATOM      4  C   UNL     1      -2.575  14.961  21.235  0.00  0.00    +0.000 A 
ATOM      5  S   UNL     1      -3.080  16.448  20.649  0.00  0.00    +0.000 S 
ATOM      6  N   UNL     1      -1.258  14.877  21.640  0.00  0.00    +0.000 N 
ATOM      7  C   UNL     1      -0.599  13.785  22.153  0.00  0.00    +0.000 A 
ATOM      8  O   UNL     1       0.590  13.843  22.453  0.00  0.00    +0.000 OA
ATOM      9  H   UNL     1      -0.685  15.703  21.536  0.00  0.00    +0.000 HD
ENDROOT
BRANCH   3  10
ATOM     10  C   UNL     1      -4.829  13.572  20.794  0.00  0.00    +0.000 C 
ATOM     11  C   UNL     1      -5.901  13.523  21.969  0.00  0.00    +0.000 A 
ATOM     12  C   UNL     1      -5.801  14.419  23.052  0.00  0.00    +0.000 A 
ATOM     13  C   UNL     1      -6.711  14.384  24.124  0.00  0.00    +0.000 A 
ATOM     14  C   UNL     1      -7.734  13.441  24.164  0.00  0.00    +0.000 A 
ATOM     15  C   UNL     1      -7.917  12.600  23.081  0.00  0.00    +0.000 A 
ATOM     16  C   UNL     1      -7.060  12.700  21.980  0.00  0.00    +0.000 A 
ATOM     17  C   UNL     1      -7.503  12.017  20.776  0.00  0.00    +0.000 C 
ATOM     18  C   UNL     1      -7.456  12.826  19.705  0.00  0.00    +0.000 C 
ATOM     19  C   UNL     1      -6.286  12.416  18.946  0.00  0.00    +0.000 A 
ATOM     20  C   UNL     1      -6.520  11.605  17.828  0.00  0.00    +0.000 A 
ATOM     21  C   UNL     1      -5.455  10.960  17.234  0.00  0.00    +0.000 A 
ATOM     22  C   UNL     1      -4.171  11.164  17.741  0.00  0.00    +0.000 A 
ATOM     23  C   UNL     1      -3.935  12.007  18.852  0.00  0.00    +0.000 A 
ATOM     24  C   UNL     1      -4.996  12.636  19.524  0.00  0.00    +0.000 A 
ENDBRANCH   3  10
BRANCH   1  25
ATOM     25  C   UNL     1      -0.736  11.419  22.738  0.00  0.00    +0.000 C 
BRANCH  25  29
ATOM     26  C   UNL     1       1.140   9.143  20.176  0.00  0.00    +0.000 A 
ATOM     27  C   UNL     1       0.673  10.289  19.562  0.00  0.00    +0.000 A 
ATOM     28  N   UNL     1      -0.008  11.174  20.372  0.00  0.00    +0.000 NA
ATOM     29  C   UNL     1      -0.069  10.700  21.599  0.00  0.00    +0.000 A 
ATOM     30  S   UNL     1       0.711   9.180  21.834  0.00  0.00    +0.000 S 
BRANCH  26  32
ATOM     31  O   UNL     1       2.080   7.972  18.347  0.00  0.00    +0.000 OA
ATOM     32  C   UNL     1       1.876   8.070  19.548  0.00  0.00    +0.000 C 
BRANCH  32  33
ATOM     33  O   UNL     1       2.335   7.141  20.425  0.00  0.00    +0.000 OA
ATOM     34  H   UNL     1       3.277   6.928  20.287  0.00  0.00    +0.000 HD
ENDBRANCH  32  33
ENDBRANCH  26  32
ENDBRANCH  25  29
ENDBRANCH   1  25
TORSDOF 5
ENDMDL
