MODEL 1
REMARK VINA RESULT:      -8.3      0.000      0.000
REMARK  Name = 
REMARK  8 active torsions:
REMARK  status: ('A' for Active; 'I' for Inactive)
REMARK    1  A    between atoms: C_1  and  C_2
REMARK    2  A    between atoms: C_2  and  C_3
REMARK    3  A    between atoms: C_2  and  C_13
REMARK    4  A    between atoms: C_2  and  C_19
REMARK    5  A    between atoms: C_3  and  O_5
REMARK    6  A    between atoms: O_5  and  C_6
REMARK    7  A    between atoms: N_9  and  C_10
REMARK    8  A    between atoms: N_9  and  C_11
REMARK                            x       y       z     vdW  Elec       q    Type
REMARK                         _______ _______ _______ _____ _____    ______ ____
ROOT
ATOM      1  C   UNL     1       4.960   6.527  15.725  0.00  0.00    +0.000 C 
ATOM      2  C   UNL     1       5.928   5.339  15.986  0.00  0.00    +0.000 C 
ENDROOT
BRANCH   2   3
ATOM      3  C   UNL     1       6.327   4.824  14.579  0.00  0.00    +0.000 A 
ATOM      4  C   UNL     1       7.476   5.298  13.921  0.00  0.00    +0.000 A 
ATOM      5  C   UNL     1       7.802   4.883  12.625  0.00  0.00    +0.000 A 
ATOM      6  C   UNL     1       6.978   3.991  11.951  0.00  0.00    +0.000 A 
ATOM      7  C   UNL     1       5.820   3.528  12.564  0.00  0.00    +0.000 A 
ATOM      8  C   UNL     1       5.486   3.953  13.855  0.00  0.00    +0.000 A 
ENDBRANCH   2   3
BRANCH   2   9
ATOM      9  C   UNL     1       7.152   5.860  16.822  0.00  0.00    +0.000 C 
ATOM     10  C   UNL     1       7.041   7.269  17.432  0.00  0.00    +0.000 C 
ATOM     11  C   UNL     1       8.150   7.276  18.475  0.00  0.00    +0.000 C 
ATOM     12  C   UNL     1       8.027   5.908  19.123  0.00  0.00    +0.000 C 
ATOM     13  C   UNL     1       7.573   4.967  18.007  0.00  0.00    +0.000 C 
ENDBRANCH   2   9
BRANCH   2  14
ATOM     14  C   UNL     1       5.149   4.317  16.842  0.00  0.00    +0.000 C 
ATOM     15  O   UNL     1       5.064   3.123  16.563  0.00  0.00    +0.000 OA
BRANCH  14  16
ATOM     16  O   UNL     1       4.473   4.852  17.914  0.00  0.00    +0.000 OA
BRANCH  16  17
ATOM     17  C   UNL     1       3.212   4.207  18.171  0.00  0.00    +0.000 C 
ATOM     18  C   UNL     1       2.161   5.279  18.468  0.00  0.00    +0.000 C 
ATOM     19  C   UNL     1       1.857   5.147  19.946  0.00  0.00    +0.000 C 
ATOM     20  N   UNL     1       1.994   3.658  20.224  0.00  0.00    +0.000 N 
ATOM     21  C   UNL     1       2.169   3.386  21.706  0.00  0.00    +0.000 C 
ATOM     22  C   UNL     1       0.768   2.889  19.729  0.00  0.00    +0.000 C 
ATOM     23  C   UNL     1       3.254   3.299  19.413  0.00  0.00    +0.000 C 
ENDBRANCH  16  17
ENDBRANCH  14  16
ENDBRANCH   2  14
TORSDOF 5
ENDMDL
MODEL 2
REMARK VINA RESULT:      -8.2      0.116      1.009
REMARK  Name = 
REMARK  8 active torsions:
REMARK  status: ('A' for Active; 'I' for Inactive)
REMARK    1  A    between atoms: C_1  and  C_2
REMARK    2  A    between atoms: C_2  and  C_3
REMARK    3  A    between atoms: C_2  and  C_13
REMARK    4  A    between atoms: C_2  and  C_19
REMARK    5  A    between atoms: C_3  and  O_5
REMARK    6  A    between atoms: O_5  and  C_6
REMARK    7  A    between atoms: N_9  and  C_10
REMARK    8  A    between atoms: N_9  and  C_11
REMARK                            x       y       z     vdW  Elec       q    Type
REMARK                         _______ _______ _______ _____ _____    ______ ____
ROOT
ATOM      1  C   UNL     1       4.941   6.616  15.759  0.00  0.00    +0.000 C 
ATOM      2  C   UNL     1       5.890   5.404  15.967  0.00  0.00    +0.000 C 
ENDROOT
BRANCH   2   3
ATOM      3  C   UNL     1       6.264   4.930  14.538  0.00  0.00    +0.000 A 
ATOM      4  C   UNL     1       5.479   3.989  13.848  0.00  0.00    +0.000 A 
ATOM      5  C   UNL     1       5.849   3.511  12.586  0.00  0.00    +0.000 A 
ATOM      6  C   UNL     1       7.022   3.955  11.990  0.00  0.00    +0.000 A 
ATOM      7  C   UNL     1       7.834   4.861  12.661  0.00  0.00    +0.000 A 
ATOM      8  C   UNL     1       7.470   5.330  13.929  0.00  0.00    +0.000 A 
ENDBRANCH   2   3
BRANCH   2   9
ATOM      9  C   UNL     1       7.133   5.875  16.805  0.00  0.00    +0.000 C 
ATOM     10  C   UNL     1       7.058   7.267  17.456  0.00  0.00    +0.000 C 
ATOM     11  C   UNL     1       8.177   7.222  18.488  0.00  0.00    +0.000 C 
ATOM     12  C   UNL     1       8.030   5.838  19.098  0.00  0.00    +0.000 C 
ATOM     13  C   UNL     1       7.546   4.939  17.961  0.00  0.00    +0.000 C 
ENDBRANCH   2   9
BRANCH   2  14
ATOM     14  C   UNL     1       5.104   4.367  16.798  0.00  0.00    +0.000 C 
ATOM     15  O   UNL     1       5.070   3.168  16.530  0.00  0.00    +0.000 OA
BRANCH  14  16
ATOM     16  O   UNL     1       4.360   4.891  17.829  0.00  0.00    +0.000 OA
BRANCH  16  17
ATOM     17  C   UNL     1       3.149   4.158  18.088  0.00  0.00    +0.000 C 
ATOM     18  C   UNL     1       2.026   5.152  18.393  0.00  0.00    +0.000 C 
ATOM     19  C   UNL     1       1.738   4.993  19.871  0.00  0.00    +0.000 C 
ATOM     20  N   UNL     1       1.980   3.516  20.142  0.00  0.00    +0.000 N 
ATOM     21  C   UNL     1       2.180   3.252  21.623  0.00  0.00    +0.000 C 
ATOM     22  C   UNL     1       0.810   2.664  19.649  0.00  0.00    +0.000 C 
ATOM     23  C   UNL     1       3.260   3.251  19.326  0.00  0.00    +0.000 C 
ENDBRANCH  16  17
ENDBRANCH  14  16
ENDBRANCH   2  14
TORSDOF 5
ENDMDL
MODEL 3
REMARK VINA RESULT:      -8.0      0.712      1.051
REMARK  Name = 
REMARK  8 active torsions:
REMARK  status: ('A' for Active; 'I' for Inactive)
REMARK    1  A    between atoms: C_1  and  C_2
REMARK    2  A    between atoms: C_2  and  C_3
REMARK    3  A    between atoms: C_2  and  C_13
REMARK    4  A    between atoms: C_2  and  C_19
REMARK    5  A    between atoms: C_3  and  O_5
REMARK    6  A    between atoms: O_5  and  C_6
REMARK    7  A    between atoms: N_9  and  C_10
REMARK    8  A    between atoms: N_9  and  C_11
REMARK                            x       y       z     vdW  Elec       q    Type
REMARK                         _______ _______ _______ _____ _____    ______ ____
ROOT
ATOM      1  C   UNL     1       5.017   6.531  15.599  0.00  0.00    +0.000 C 
ATOM      2  C   UNL     1       5.924   5.298  15.864  0.00  0.00    +0.000 C 
ENDROOT
BRANCH   2   3
ATOM      3  C   UNL     1       6.375   4.815  14.461  0.00  0.00    +0.000 A 
ATOM      4  C   UNL     1       7.494   5.373  13.816  0.00  0.00    +0.000 A 
ATOM      5  C   UNL     1       7.864   4.985  12.524  0.00  0.00    +0.000 A 
ATOM      6  C   UNL     1       7.113   4.037  11.839  0.00  0.00    +0.000 A 
ATOM      7  C   UNL     1       5.985   3.491  12.438  0.00  0.00    +0.000 A 
ATOM      8  C   UNL     1       5.607   3.888  13.726  0.00  0.00    +0.000 A 
ENDBRANCH   2   3
BRANCH   2   9
ATOM      9  C   UNL     1       7.122   5.741  16.778  0.00  0.00    +0.000 C 
ATOM     10  C   UNL     1       7.067   7.157  17.377  0.00  0.00    +0.000 C 
ATOM     11  C   UNL     1       8.103   7.097  18.492  0.00  0.00    +0.000 C 
ATOM     12  C   UNL     1       7.845   5.744  19.133  0.00  0.00    +0.000 C 
ATOM     13  C   UNL     1       7.403   4.828  17.991  0.00  0.00    +0.000 C 
ENDBRANCH   2   9
BRANCH   2  14
ATOM     14  C   UNL     1       5.064   4.279  16.643  0.00  0.00    +0.000 C 
ATOM     15  O   UNL     1       5.331   3.082  16.716  0.00  0.00    +0.000 OA
BRANCH  14  16
ATOM     16  O   UNL     1       3.911   4.790  17.191  0.00  0.00    +0.000 OA
BRANCH  16  17
ATOM     17  C   UNL     1       3.560   4.183  18.448  0.00  0.00    +0.000 C 
ATOM     18  C   UNL     1       2.185   3.526  18.311  0.00  0.00    +0.000 C 
ATOM     19  C   UNL     1       1.246   4.380  19.137  0.00  0.00    +0.000 C 
ATOM     20  N   UNL     1       2.104   4.866  20.295  0.00  0.00    +0.000 N 
ATOM     21  C   UNL     1       1.485   6.074  20.972  0.00  0.00    +0.000 C 
ATOM     22  C   UNL     1       2.295   3.766  21.340  0.00  0.00    +0.000 C 
ATOM     23  C   UNL     1       3.427   5.211  19.585  0.00  0.00    +0.000 C 
ENDBRANCH  16  17
ENDBRANCH  14  16
ENDBRANCH   2  14
TORSDOF 5
ENDMDL
MODEL 4
REMARK VINA RESULT:      -7.9      0.700      1.440
REMARK  Name = 
REMARK  8 active torsions:
REMARK  status: ('A' for Active; 'I' for Inactive)
REMARK    1  A    between atoms: C_1  and  C_2
REMARK    2  A    between atoms: C_2  and  C_3
REMARK    3  A    between atoms: C_2  and  C_13
REMARK    4  A    between atoms: C_2  and  C_19
REMARK    5  A    between atoms: C_3  and  O_5
REMARK    6  A    between atoms: O_5  and  C_6
REMARK    7  A    between atoms: N_9  and  C_10
REMARK    8  A    between atoms: N_9  and  C_11
REMARK                            x       y       z     vdW  Elec       q    Type
REMARK                         _______ _______ _______ _____ _____    ______ ____
ROOT
ATOM      1  C   UNL     1       4.933   6.527  15.629  0.00  0.00    +0.000 C 
ATOM      2  C   UNL     1       5.862   5.298  15.829  0.00  0.00    +0.000 C 
ENDROOT
BRANCH   2   3
ATOM      3  C   UNL     1       6.278   4.866  14.399  0.00  0.00    +0.000 A 
ATOM      4  C   UNL     1       5.535   3.917  13.672  0.00  0.00    +0.000 A 
ATOM      5  C   UNL     1       5.944   3.478  12.409  0.00  0.00    +0.000 A 
ATOM      6  C   UNL     1       7.115   3.969  11.846  0.00  0.00    +0.000 A 
ATOM      7  C   UNL     1       7.886   4.884  12.553  0.00  0.00    +0.000 A 
ATOM      8  C   UNL     1       7.484   5.314  13.822  0.00  0.00    +0.000 A 
ENDBRANCH   2   3
BRANCH   2   9
ATOM      9  C   UNL     1       7.081   5.728  16.723  0.00  0.00    +0.000 C 
ATOM     10  C   UNL     1       7.029   7.127  17.360  0.00  0.00    +0.000 C 
ATOM     11  C   UNL     1       8.096   7.047  18.445  0.00  0.00    +0.000 C 
ATOM     12  C   UNL     1       7.867   5.675  19.056  0.00  0.00    +0.000 C 
ATOM     13  C   UNL     1       7.402   4.786  17.902  0.00  0.00    +0.000 C 
ENDBRANCH   2   9
BRANCH   2  14
ATOM     14  C   UNL     1       5.038   4.244  16.599  0.00  0.00    +0.000 C 
ATOM     15  O   UNL     1       5.336   3.052  16.648  0.00  0.00    +0.000 OA
BRANCH  14  16
ATOM     16  O   UNL     1       3.879   4.715  17.170  0.00  0.00    +0.000 OA
BRANCH  16  17
ATOM     17  C   UNL     1       3.566   4.087  18.427  0.00  0.00    +0.000 C 
ATOM     18  C   UNL     1       2.220   3.370  18.298  0.00  0.00    +0.000 C 
ATOM     19  C   UNL     1       1.251   4.178  19.136  0.00  0.00    +0.000 C 
ATOM     20  N   UNL     1       2.098   4.695  20.290  0.00  0.00    +0.000 N 
ATOM     21  C   UNL     1       1.432   5.871  20.979  0.00  0.00    +0.000 C 
ATOM     22  C   UNL     1       2.346   3.600  21.327  0.00  0.00    +0.000 C 
ATOM     23  C   UNL     1       3.398   5.102  19.571  0.00  0.00    +0.000 C 
ENDBRANCH  16  17
ENDBRANCH  14  16
ENDBRANCH   2  14
TORSDOF 5
ENDMDL
MODEL 5
REMARK VINA RESULT:      -7.7      2.371      6.748
REMARK  Name = 
REMARK  8 active torsions:
REMARK  status: ('A' for Active; 'I' for Inactive)
REMARK    1  A    between atoms: C_1  and  C_2
REMARK    2  A    between atoms: C_2  and  C_3
REMARK    3  A    between atoms: C_2  and  C_13
REMARK    4  A    between atoms: C_2  and  C_19
REMARK    5  A    between atoms: C_3  and  O_5
REMARK    6  A    between atoms: O_5  and  C_6
REMARK    7  A    between atoms: N_9  and  C_10
REMARK    8  A    between atoms: N_9  and  C_11
REMARK                            x       y       z     vdW  Elec       q    Type
REMARK                         _______ _______ _______ _____ _____    ______ ____
ROOT
ATOM      1  C   UNL     1       2.074   4.623  17.833  0.00  0.00    +0.000 C 
ATOM      2  C   UNL     1       2.833   5.261  19.029  0.00  0.00    +0.000 C 
ENDROOT
BRANCH   2   3
ATOM      3  C   UNL     1       2.408   6.752  19.033  0.00  0.00    +0.000 A 
ATOM      4  C   UNL     1       1.864   7.358  20.180  0.00  0.00    +0.000 A 
ATOM      5  C   UNL     1       1.420   8.684  20.167  0.00  0.00    +0.000 A 
ATOM      6  C   UNL     1       1.498   9.434  19.000  0.00  0.00    +0.000 A 
ATOM      7  C   UNL     1       2.002   8.853  17.843  0.00  0.00    +0.000 A 
ATOM      8  C   UNL     1       2.435   7.522  17.852  0.00  0.00    +0.000 A 
ENDBRANCH   2   3
BRANCH   2   9
ATOM      9  C   UNL     1       2.431   4.500  20.344  0.00  0.00    +0.000 C 
ATOM     10  C   UNL     1       1.043   3.836  20.378  0.00  0.00    +0.000 C 
ATOM     11  C   UNL     1       1.153   2.879  21.557  0.00  0.00    +0.000 C 
ATOM     12  C   UNL     1       2.534   2.270  21.383  0.00  0.00    +0.000 C 
ATOM     13  C   UNL     1       3.397   3.381  20.784  0.00  0.00    +0.000 C 
ENDBRANCH   2   9
BRANCH   2  14
ATOM     14  C   UNL     1       4.337   5.027  18.769  0.00  0.00    +0.000 C 
ATOM     15  O   UNL     1       5.230   5.586  19.403  0.00  0.00    +0.000 OA
BRANCH  14  16
ATOM     16  O   UNL     1       4.623   4.202  17.707  0.00  0.00    +0.000 OA
BRANCH  16  17
ATOM     17  C   UNL     1       5.730   4.661  16.910  0.00  0.00    +0.000 C 
ATOM     18  C   UNL     1       5.322   5.953  16.198  0.00  0.00    +0.000 C 
ATOM     19  C   UNL     1       5.189   5.583  14.736  0.00  0.00    +0.000 C 
ATOM     20  N   UNL     1       6.254   4.518  14.522  0.00  0.00    +0.000 N 
ATOM     21  C   UNL     1       5.987   3.714  13.265  0.00  0.00    +0.000 C 
ATOM     22  C   UNL     1       7.646   5.143  14.413  0.00  0.00    +0.000 C 
ATOM     23  C   UNL     1       6.112   3.668  15.799  0.00  0.00    +0.000 C 
ENDBRANCH  16  17
ENDBRANCH  14  16
ENDBRANCH   2  14
TORSDOF 5
ENDMDL
MODEL 6
REMARK VINA RESULT:      -7.5      2.380      6.737
REMARK  Name = 
REMARK  8 active torsions:
REMARK  status: ('A' for Active; 'I' for Inactive)
REMARK    1  A    between atoms: C_1  and  C_2
REMARK    2  A    between atoms: C_2  and  C_3
REMARK    3  A    between atoms: C_2  and  C_13
REMARK    4  A    between atoms: C_2  and  C_19
REMARK    5  A    between atoms: C_3  and  O_5
REMARK    6  A    between atoms: O_5  and  C_6
REMARK    7  A    between atoms: N_9  and  C_10
REMARK    8  A    between atoms: N_9  and  C_11
REMARK                            x       y       z     vdW  Elec       q    Type
REMARK                         _______ _______ _______ _____ _____    ______ ____
ROOT
ATOM      1  C   UNL     1       1.974   4.664  17.791  0.00  0.00    +0.000 C 
ATOM      2  C   UNL     1       2.702   5.324  18.994  0.00  0.00    +0.000 C 
ENDROOT
BRANCH   2   3
ATOM      3  C   UNL     1       2.245   6.806  18.983  0.00  0.00    +0.000 A 
ATOM      4  C   UNL     1       2.400   7.614  17.843  0.00  0.00    +0.000 A 
ATOM      5  C   UNL     1       2.049   8.968  17.851  0.00  0.00    +0.000 A 
ATOM      6  C   UNL     1       1.544   9.550  19.008  0.00  0.00    +0.000 A 
ATOM      7  C   UNL     1       1.408   8.783  20.159  0.00  0.00    +0.000 A 
ATOM      8  C   UNL     1       1.772   7.432  20.154  0.00  0.00    +0.000 A 
ENDBRANCH   2   3
BRANCH   2   9
ATOM      9  C   UNL     1       2.297   4.563  20.308  0.00  0.00    +0.000 C 
ATOM     10  C   UNL     1       0.997   3.739  20.273  0.00  0.00    +0.000 C 
ATOM     11  C   UNL     1       1.132   2.839  21.494  0.00  0.00    +0.000 C 
ATOM     12  C   UNL     1       2.584   2.394  21.439  0.00  0.00    +0.000 C 
ATOM     13  C   UNL     1       3.353   3.580  20.857  0.00  0.00    +0.000 C 
ENDBRANCH   2   9
BRANCH   2  14
ATOM     14  C   UNL     1       4.215   5.121  18.758  0.00  0.00    +0.000 C 
ATOM     15  O   UNL     1       5.085   5.742  19.364  0.00  0.00    +0.000 OA
BRANCH  14  16
ATOM     16  O   UNL     1       4.533   4.245  17.747  0.00  0.00    +0.000 OA
BRANCH  16  17
ATOM     17  C   UNL     1       5.667   4.664  16.966  0.00  0.00    +0.000 C 
ATOM     18  C   UNL     1       5.322   5.979  16.262  0.00  0.00    +0.000 C 
ATOM     19  C   UNL     1       5.189   5.629  14.795  0.00  0.00    +0.000 C 
ATOM     20  N   UNL     1       6.210   4.521  14.582  0.00  0.00    +0.000 N 
ATOM     21  C   UNL     1       5.921   3.740  13.314  0.00  0.00    +0.000 C 
ATOM     22  C   UNL     1       7.628   5.087  14.493  0.00  0.00    +0.000 C 
ATOM     23  C   UNL     1       6.018   3.666  15.848  0.00  0.00    +0.000 C 
ENDBRANCH  16  17
ENDBRANCH  14  16
ENDBRANCH   2  14
TORSDOF 5
ENDMDL
MODEL 7
REMARK VINA RESULT:      -7.5      0.491      1.214
REMARK  Name = 
REMARK  8 active torsions:
REMARK  status: ('A' for Active; 'I' for Inactive)
REMARK    1  A    between atoms: C_1  and  C_2
REMARK    2  A    between atoms: C_2  and  C_3
REMARK    3  A    between atoms: C_2  and  C_13
REMARK    4  A    between atoms: C_2  and  C_19
REMARK    5  A    between atoms: C_3  and  O_5
REMARK    6  A    between atoms: O_5  and  C_6
REMARK    7  A    between atoms: N_9  and  C_10
REMARK    8  A    between atoms: N_9  and  C_11
REMARK                            x       y       z     vdW  Elec       q    Type
REMARK                         _______ _______ _______ _____ _____    ______ ____
ROOT
ATOM      1  C   UNL     1       5.016   6.618  15.545  0.00  0.00    +0.000 C 
ATOM      2  C   UNL     1       5.876   5.360  15.848  0.00  0.00    +0.000 C 
ENDROOT
BRANCH   2   3
ATOM      3  C   UNL     1       6.319   4.826  14.461  0.00  0.00    +0.000 A 
ATOM      4  C   UNL     1       7.462   5.327  13.812  0.00  0.00    +0.000 A 
ATOM      5  C   UNL     1       7.827   4.894  12.533  0.00  0.00    +0.000 A 
ATOM      6  C   UNL     1       7.048   3.956  11.866  0.00  0.00    +0.000 A 
ATOM      7  C   UNL     1       5.897   3.466  12.470  0.00  0.00    +0.000 A 
ATOM      8  C   UNL     1       5.525   3.908  13.744  0.00  0.00    +0.000 A 
ENDBRANCH   2   3
BRANCH   2   9
ATOM      9  C   UNL     1       7.083   5.782  16.761  0.00  0.00    +0.000 C 
ATOM     10  C   UNL     1       7.021   7.174  17.413  0.00  0.00    +0.000 C 
ATOM     11  C   UNL     1       8.073   7.084  18.510  0.00  0.00    +0.000 C 
ATOM     12  C   UNL     1       7.840   5.706  19.103  0.00  0.00    +0.000 C 
ATOM     13  C   UNL     1       7.391   4.828  17.935  0.00  0.00    +0.000 C 
ENDBRANCH   2   9
BRANCH   2  14
ATOM     14  C   UNL     1       4.974   4.392  16.645  0.00  0.00    +0.000 C 
ATOM     15  O   UNL     1       5.230   3.200  16.802  0.00  0.00    +0.000 OA
BRANCH  14  16
ATOM     16  O   UNL     1       3.800   4.939  17.107  0.00  0.00    +0.000 OA
BRANCH  16  17
ATOM     17  C   UNL     1       3.663   4.870  18.538  0.00  0.00    +0.000 C 
ATOM     18  C   UNL     1       4.235   3.536  19.025  0.00  0.00    +0.000 C 
ATOM     19  C   UNL     1       3.037   2.721  19.464  0.00  0.00    +0.000 C 
ATOM     20  N   UNL     1       2.068   3.753  20.022  0.00  0.00    +0.000 N 
ATOM     21  C   UNL     1       0.657   3.201  20.096  0.00  0.00    +0.000 C 
ATOM     22  C   UNL     1       2.488   4.205  21.421  0.00  0.00    +0.000 C 
ATOM     23  C   UNL     1       2.194   4.893  18.995  0.00  0.00    +0.000 C 
ENDBRANCH  16  17
ENDBRANCH  14  16
ENDBRANCH   2  14
TORSDOF 5
ENDMDL
MODEL 8
REMARK VINA RESULT:      -7.3      3.137      5.344
REMARK  Name = 
REMARK  8 active torsions:
REMARK  status: ('A' for Active; 'I' for Inactive)
REMARK    1  A    between atoms: C_1  and  C_2
REMARK    2  A    between atoms: C_2  and  C_3
REMARK    3  A    between atoms: C_2  and  C_13
REMARK    4  A    between atoms: C_2  and  C_19
REMARK    5  A    between atoms: C_3  and  O_5
REMARK    6  A    between atoms: O_5  and  C_6
REMARK    7  A    between atoms: N_9  and  C_10
REMARK    8  A    between atoms: N_9  and  C_11
REMARK                            x       y       z     vdW  Elec       q    Type
REMARK                         _______ _______ _______ _____ _____    ______ ____
ROOT
ATOM      1  C   UNL     1       4.267   5.453  19.688  0.00  0.00    +0.000 C 
ATOM      2  C   UNL     1       3.665   5.433  18.256  0.00  0.00    +0.000 C 
ENDROOT
BRANCH   2   3
ATOM      3  C   UNL     1       4.823   4.972  17.334  0.00  0.00    +0.000 A 
ATOM      4  C   UNL     1       6.143   4.867  17.808  0.00  0.00    +0.000 A 
ATOM      5  C   UNL     1       7.200   4.514  16.962  0.00  0.00    +0.000 A 
ATOM      6  C   UNL     1       6.961   4.268  15.615  0.00  0.00    +0.000 A 
ATOM      7  C   UNL     1       5.672   4.393  15.111  0.00  0.00    +0.000 A 
ATOM      8  C   UNL     1       4.617   4.759  15.955  0.00  0.00    +0.000 A 
ENDBRANCH   2   3
BRANCH   2   9
ATOM      9  C   UNL     1       2.435   4.455  18.240  0.00  0.00    +0.000 C 
ATOM     10  C   UNL     1       2.714   2.977  17.912  0.00  0.00    +0.000 C 
ATOM     11  C   UNL     1       1.447   2.278  18.386  0.00  0.00    +0.000 C 
ATOM     12  C   UNL     1       1.153   2.955  19.714  0.00  0.00    +0.000 C 
ATOM     13  C   UNL     1       1.612   4.404  19.544  0.00  0.00    +0.000 C 
ENDBRANCH   2   9
BRANCH   2  14
ATOM     14  C   UNL     1       3.156   6.863  17.974  0.00  0.00    +0.000 C 
ATOM     15  O   UNL     1       3.789   7.693  17.324  0.00  0.00    +0.000 OA
BRANCH  14  16
ATOM     16  O   UNL     1       1.963   7.186  18.577  0.00  0.00    +0.000 OA
BRANCH  16  17
ATOM     17  C   UNL     1       1.991   8.456  19.254  0.00  0.00    +0.000 C 
ATOM     18  C   UNL     1       1.482   8.263  20.684  0.00  0.00    +0.000 C 
ATOM     19  C   UNL     1       0.128   8.940  20.725  0.00  0.00    +0.000 C 
ATOM     20  N   UNL     1       0.273  10.120  19.776  0.00  0.00    +0.000 N 
ATOM     21  C   UNL     1      -1.082  10.647  19.341  0.00  0.00    +0.000 C 
ATOM     22  C   UNL     1       1.053  11.262  20.429  0.00  0.00    +0.000 C 
ATOM     23  C   UNL     1       1.056   9.493  18.607  0.00  0.00    +0.000 C 
ENDBRANCH  16  17
ENDBRANCH  14  16
ENDBRANCH   2  14
TORSDOF 5
ENDMDL
MODEL 9
REMARK VINA RESULT:      -7.3      2.909      5.878
REMARK  Name = 
REMARK  8 active torsions:
REMARK  status: ('A' for Active; 'I' for Inactive)
REMARK    1  A    between atoms: C_1  and  C_2
REMARK    2  A    between atoms: C_2  and  C_3
REMARK    3  A    between atoms: C_2  and  C_13
REMARK    4  A    between atoms: C_2  and  C_19
REMARK    5  A    between atoms: C_3  and  O_5
REMARK    6  A    between atoms: O_5  and  C_6
REMARK    7  A    between atoms: N_9  and  C_10
REMARK    8  A    between atoms: N_9  and  C_11
REMARK                            x       y       z     vdW  Elec       q    Type
REMARK                         _______ _______ _______ _____ _____    ______ ____
ROOT
ATOM      1  C   UNL     1       3.399   3.984  16.663  0.00  0.00    +0.000 C 
ATOM      2  C   UNL     1       3.759   4.708  17.990  0.00  0.00    +0.000 C 
ENDROOT
BRANCH   2   3
ATOM      3  C   UNL     1       2.836   4.074  19.062  0.00  0.00    +0.000 A 
ATOM      4  C   UNL     1       1.724   3.290  18.704  0.00  0.00    +0.000 A 
ATOM      5  C   UNL     1       0.852   2.772  19.668  0.00  0.00    +0.000 A 
ATOM      6  C   UNL     1       1.067   3.036  21.015  0.00  0.00    +0.000 A 
ATOM      7  C   UNL     1       2.140   3.832  21.397  0.00  0.00    +0.000 A 
ATOM      8  C   UNL     1       3.004   4.361  20.432  0.00  0.00    +0.000 A 
ENDBRANCH   2   3
BRANCH   2   9
ATOM      9  C   UNL     1       5.288   4.489  18.284  0.00  0.00    +0.000 C 
ATOM     10  C   UNL     1       6.241   4.461  17.077  0.00  0.00    +0.000 C 
ATOM     11  C   UNL     1       7.608   4.660  17.718  0.00  0.00    +0.000 C 
ATOM     12  C   UNL     1       7.354   5.746  18.749  0.00  0.00    +0.000 C 
ATOM     13  C   UNL     1       5.929   5.509  19.249  0.00  0.00    +0.000 C 
ENDBRANCH   2   9
BRANCH   2  14
ATOM     14  C   UNL     1       3.517   6.213  17.749  0.00  0.00    +0.000 C 
ATOM     15  O   UNL     1       4.337   6.955  17.212  0.00  0.00    +0.000 OA
BRANCH  14  16
ATOM     16  O   UNL     1       2.337   6.702  18.259  0.00  0.00    +0.000 OA
BRANCH  16  17
ATOM     17  C   UNL     1       2.392   8.104  18.581  0.00  0.00    +0.000 C 
ATOM     18  C   UNL     1       1.929   8.296  20.027  0.00  0.00    +0.000 C 
ATOM     19  C   UNL     1       0.579   8.976  19.931  0.00  0.00    +0.000 C 
ATOM     20  N   UNL     1       0.697   9.866  18.703  0.00  0.00    +0.000 N 
ATOM     21  C   UNL     1      -0.669  10.278  18.187  0.00  0.00    +0.000 C 
ATOM     22  C   UNL     1       1.501  11.130  19.012  0.00  0.00    +0.000 C 
ATOM     23  C   UNL     1       1.439   8.947  17.715  0.00  0.00    +0.000 C 
ENDBRANCH  16  17
ENDBRANCH  14  16
ENDBRANCH   2  14
TORSDOF 5
ENDMDL
