MODEL 1
REMARK VINA RESULT:      -8.0      0.000      0.000
REMARK  Name = 
REMARK  9 active torsions:
REMARK  status: ('A' for Active; 'I' for Inactive)
REMARK    1  A    between atoms: C_1  and  C_2
REMARK    2  A    between atoms: C_2  and  N_3
REMARK    3  A    between atoms: C_9  and  N_10
REMARK    4  A    between atoms: C_11  and  C_13
REMARK    5  A    between atoms: C_16  and  S_17
REMARK    6  A    between atoms: S_17  and  N_20
REMARK    7  A    between atoms: C_28  and  C_29
REMARK    8  A    between atoms: C_29  and  O_31
REMARK    9  A    between atoms: O_31  and  C_32
REMARK                            x       y       z     vdW  Elec       q    Type
REMARK                         _______ _______ _______ _____ _____    ______ ____
ROOT
ATOM      1  N   UNL     1      -0.219   9.942  20.337  0.00  0.00    +0.000 N 
ATOM      2  C   UNL     1       0.906  10.184  19.565  0.00  0.00    +0.000 C 
ATOM      3  O   UNL     1       1.364  11.287  19.286  0.00  0.00    +0.000 OA
ATOM      4  H   UNL     1      -0.224   9.103  20.903  0.00  0.00    +0.000 HD
ENDROOT
BRANCH   1  11
ATOM      5  N   UNL     1      -3.248  14.355  23.402  0.00  0.00    +0.000 NA
ATOM      6  C   UNL     1      -3.038  15.108  22.143  0.00  0.00    +0.000 C 
ATOM      7  C   UNL     1      -2.931  14.233  20.872  0.00  0.00    +0.000 C 
ATOM      8  C   UNL     1      -2.117  12.988  21.120  0.00  0.00    +0.000 A 
ATOM      9  C   UNL     1      -1.743  12.657  22.412  0.00  0.00    +0.000 A 
ATOM     10  S   UNL     1      -0.915  11.178  22.494  0.00  0.00    +0.000 S 
ATOM     11  C   UNL     1      -0.962  11.008  20.804  0.00  0.00    +0.000 A 
ATOM     12  C   UNL     1      -1.749  11.957  20.169  0.00  0.00    +0.000 A 
ATOM     13  C   UNL     1      -2.068  13.475  23.634  0.00  0.00    +0.000 C 
BRANCH   5  15
ATOM     14  C   UNL     1      -4.601  12.593  24.598  0.00  0.00    +0.000 C 
ATOM     15  C   UNL     1      -4.490  13.558  23.422  0.00  0.00    +0.000 C 
ENDBRANCH   5  15
BRANCH  12  16
ATOM     16  C   UNL     1      -2.194  11.839  18.776  0.00  0.00    +0.000 C 
ATOM     17  O   UNL     1      -1.566  12.285  17.822  0.00  0.00    +0.000 OA
BRANCH  16  18
ATOM     18  O   UNL     1      -3.315  11.069  18.646  0.00  0.00    +0.000 OA
ATOM     19  C   UNL     1      -4.537  11.791  18.503  0.00  0.00    +0.000 C 
ENDBRANCH  16  18
ENDBRANCH  12  16
ENDBRANCH   1  11
BRANCH   2  20
ATOM     20  C   UNL     1       1.650   8.968  19.130  0.00  0.00    +0.000 A 
ATOM     21  C   UNL     1       2.269   8.928  17.876  0.00  0.00    +0.000 A 
ATOM     22  C   UNL     1       3.039   7.819  17.514  0.00  0.00    +0.000 A 
ATOM     23  C   UNL     1       3.187   6.745  18.403  0.00  0.00    +0.000 A 
ATOM     24  C   UNL     1       2.551   6.764  19.647  0.00  0.00    +0.000 A 
ATOM     25  C   UNL     1       1.793   7.885  20.014  0.00  0.00    +0.000 A 
BRANCH  23  26
ATOM     26  S   UNL     1       4.151   5.336  17.901  0.00  0.00    +0.000 S 
ATOM     27  O   UNL     1       4.843   4.856  19.079  0.00  0.00    +0.000 OA
ATOM     28  O   UNL     1       3.282   4.457  17.149  0.00  0.00    +0.000 OA
BRANCH  26  29
ATOM     29  N   UNL     1       5.323   5.946  16.824  0.00  0.00    +0.000 NA
ATOM     30  C   UNL     1       5.547   5.213  15.536  0.00  0.00    +0.000 C 
ATOM     31  C   UNL     1       6.433   3.977  15.714  0.00  0.00    +0.000 C 
ATOM     32  O   UNL     1       7.688   4.312  16.322  0.00  0.00    +0.000 OA
ATOM     33  C   UNL     1       7.491   4.930  17.598  0.00  0.00    +0.000 C 
ATOM     34  C   UNL     1       6.659   6.213  17.469  0.00  0.00    +0.000 C 
ENDBRANCH  26  29
ENDBRANCH  23  26
ENDBRANCH   2  20
TORSDOF 7
ENDMDL
MODEL 2
REMARK VINA RESULT:      -7.9      1.991      3.050
REMARK  Name = 
REMARK  9 active torsions:
REMARK  status: ('A' for Active; 'I' for Inactive)
REMARK    1  A    between atoms: C_1  and  C_2
REMARK    2  A    between atoms: C_2  and  N_3
REMARK    3  A    between atoms: C_9  and  N_10
REMARK    4  A    between atoms: C_11  and  C_13
REMARK    5  A    between atoms: C_16  and  S_17
REMARK    6  A    between atoms: S_17  and  N_20
REMARK    7  A    between atoms: C_28  and  C_29
REMARK    8  A    between atoms: C_29  and  O_31
REMARK    9  A    between atoms: O_31  and  C_32
REMARK                            x       y       z     vdW  Elec       q    Type
REMARK                         _______ _______ _______ _____ _____    ______ ____
ROOT
ATOM      1  N   UNL     1       0.961  11.225  20.369  0.00  0.00    +0.000 N 
ATOM      2  C   UNL     1       0.430  10.228  19.565  0.00  0.00    +0.000 C 
ATOM      3  O   UNL     1      -0.688  10.229  19.062  0.00  0.00    +0.000 OA
ATOM      4  H   UNL     1       1.958  11.388  20.310  0.00  0.00    +0.000 HD
ENDROOT
BRANCH   1  11
ATOM      5  N   UNL     1      -1.968  16.592  21.174  0.00  0.00    +0.000 NA
ATOM      6  C   UNL     1      -3.074  15.706  21.607  0.00  0.00    +0.000 C 
ATOM      7  C   UNL     1      -2.626  14.354  22.210  0.00  0.00    +0.000 C 
ATOM      8  C   UNL     1      -1.472  13.758  21.445  0.00  0.00    +0.000 A 
ATOM      9  C   UNL     1      -0.828  14.510  20.476  0.00  0.00    +0.000 A 
ATOM     10  S   UNL     1       0.500  13.699  19.795  0.00  0.00    +0.000 S 
ATOM     11  C   UNL     1       0.175  12.306  20.714  0.00  0.00    +0.000 A 
ATOM     12  C   UNL     1      -0.814  12.485  21.668  0.00  0.00    +0.000 A 
ATOM     13  C   UNL     1      -1.209  15.914  20.087  0.00  0.00    +0.000 C 
BRANCH   5  15
ATOM     14  C   UNL     1       0.167  17.776  21.811  0.00  0.00    +0.000 C 
ATOM     15  C   UNL     1      -1.055  16.984  22.266  0.00  0.00    +0.000 C 
ENDBRANCH   5  15
BRANCH  12  16
ATOM     16  C   UNL     1      -1.054  11.548  22.772  0.00  0.00    +0.000 C 
ATOM     17  O   UNL     1      -2.148  11.388  23.302  0.00  0.00    +0.000 OA
BRANCH  16  18
ATOM     18  O   UNL     1       0.041  10.781  23.057  0.00  0.00    +0.000 OA
ATOM     19  C   UNL     1      -0.223   9.393  23.253  0.00  0.00    +0.000 C 
ENDBRANCH  16  18
ENDBRANCH  12  16
ENDBRANCH   1  11
BRANCH   2  20
ATOM     20  C   UNL     1       1.366   9.116  19.232  0.00  0.00    +0.000 A 
ATOM     21  C   UNL     1       1.566   8.066  20.133  0.00  0.00    +0.000 A 
ATOM     22  C   UNL     1       2.376   6.985  19.774  0.00  0.00    +0.000 A 
ATOM     23  C   UNL     1       2.992   6.954  18.516  0.00  0.00    +0.000 A 
ATOM     24  C   UNL     1       2.818   8.011  17.618  0.00  0.00    +0.000 A 
ATOM     25  C   UNL     1       1.993   9.087  17.975  0.00  0.00    +0.000 A 
BRANCH  23  26
ATOM     26  S   UNL     1       4.039   5.577  18.100  0.00  0.00    +0.000 S 
ATOM     27  O   UNL     1       4.782   5.236  19.295  0.00  0.00    +0.000 OA
ATOM     28  O   UNL     1       3.218   4.589  17.435  0.00  0.00    +0.000 OA
BRANCH  26  29
ATOM     29  N   UNL     1       5.150   6.180  16.954  0.00  0.00    +0.000 NA
ATOM     30  C   UNL     1       5.377   5.383  15.706  0.00  0.00    +0.000 C 
ATOM     31  C   UNL     1       6.330   4.206  15.930  0.00  0.00    +0.000 C 
ATOM     32  O   UNL     1       7.582   4.639  16.480  0.00  0.00    +0.000 OA
ATOM     33  C   UNL     1       7.387   5.322  17.723  0.00  0.00    +0.000 C 
ATOM     34  C   UNL     1       6.486   6.552  17.544  0.00  0.00    +0.000 C 
ENDBRANCH  26  29
ENDBRANCH  23  26
ENDBRANCH   2  20
TORSDOF 7
ENDMDL
MODEL 3
REMARK VINA RESULT:      -7.9      1.452      2.101
REMARK  Name = 
REMARK  9 active torsions:
REMARK  status: ('A' for Active; 'I' for Inactive)
REMARK    1  A    between atoms: C_1  and  C_2
REMARK    2  A    between atoms: C_2  and  N_3
REMARK    3  A    between atoms: C_9  and  N_10
REMARK    4  A    between atoms: C_11  and  C_13
REMARK    5  A    between atoms: C_16  and  S_17
REMARK    6  A    between atoms: S_17  and  N_20
REMARK    7  A    between atoms: C_28  and  C_29
REMARK    8  A    between atoms: C_29  and  O_31
REMARK    9  A    between atoms: O_31  and  C_32
REMARK                            x       y       z     vdW  Elec       q    Type
REMARK                         _______ _______ _______ _____ _____    ______ ____
ROOT
ATOM      1  N   UNL     1       0.885  10.660  20.761  0.00  0.00    +0.000 N 
ATOM      2  C   UNL     1       0.529   9.890  19.665  0.00  0.00    +0.000 C 
ATOM      3  O   UNL     1      -0.450  10.068  18.948  0.00  0.00    +0.000 OA
ATOM      4  H   UNL     1       1.872  10.768  20.953  0.00  0.00    +0.000 HD
ENDROOT
BRANCH   1  11
ATOM      5  N   UNL     1      -3.193  14.565  23.244  0.00  0.00    +0.000 NA
ATOM      6  C   UNL     1      -2.219  15.579  22.778  0.00  0.00    +0.000 C 
ATOM      7  C   UNL     1      -1.388  15.163  21.541  0.00  0.00    +0.000 C 
ATOM      8  C   UNL     1      -0.956  13.721  21.620  0.00  0.00    +0.000 A 
ATOM      9  C   UNL     1      -1.474  12.901  22.610  0.00  0.00    +0.000 A 
ATOM     10  S   UNL     1      -0.939  11.295  22.474  0.00  0.00    +0.000 S 
ATOM     11  C   UNL     1       0.060  11.694  21.158  0.00  0.00    +0.000 A 
ATOM     12  C   UNL     1      -0.125  12.984  20.687  0.00  0.00    +0.000 A 
ATOM     13  C   UNL     1      -2.449  13.346  23.668  0.00  0.00    +0.000 C 
BRANCH   5  15
ATOM     14  C   UNL     1      -5.184  13.120  22.682  0.00  0.00    +0.000 C 
ATOM     15  C   UNL     1      -4.216  14.214  22.240  0.00  0.00    +0.000 C 
ENDBRANCH   5  15
BRANCH  12  16
ATOM     16  C   UNL     1       0.379  13.454  19.392  0.00  0.00    +0.000 C 
ATOM     17  O   UNL     1      -0.342  13.871  18.492  0.00  0.00    +0.000 OA
BRANCH  16  18
ATOM     18  O   UNL     1       1.745  13.499  19.345  0.00  0.00    +0.000 OA
ATOM     19  C   UNL     1       2.340  12.775  18.270  0.00  0.00    +0.000 C 
ENDBRANCH  16  18
ENDBRANCH  12  16
ENDBRANCH   1  11
BRANCH   2  20
ATOM     20  C   UNL     1       1.496   8.815  19.304  0.00  0.00    +0.000 A 
ATOM     21  C   UNL     1       1.721   7.744  20.175  0.00  0.00    +0.000 A 
ATOM     22  C   UNL     1       2.563   6.697  19.789  0.00  0.00    +0.000 A 
ATOM     23  C   UNL     1       3.185   6.721  18.534  0.00  0.00    +0.000 A 
ATOM     24  C   UNL     1       2.987   7.799  17.667  0.00  0.00    +0.000 A 
ATOM     25  C   UNL     1       2.130   8.840  18.051  0.00  0.00    +0.000 A 
BRANCH  23  26
ATOM     26  S   UNL     1       4.272   5.386  18.083  0.00  0.00    +0.000 S 
ATOM     27  O   UNL     1       4.855   4.883  19.309  0.00  0.00    +0.000 OA
ATOM     28  O   UNL     1       3.540   4.505  17.199  0.00  0.00    +0.000 OA
BRANCH  26  29
ATOM     29  N   UNL     1       5.522   6.105  17.172  0.00  0.00    +0.000 NA
ATOM     30  C   UNL     1       5.770   5.593  15.786  0.00  0.00    +0.000 C 
ATOM     31  C   UNL     1       6.585   4.296  15.780  0.00  0.00    +0.000 C 
ATOM     32  O   UNL     1       7.825   4.450  16.483  0.00  0.00    +0.000 OA
ATOM     33  C   UNL     1       7.599   4.850  17.839  0.00  0.00    +0.000 C 
ATOM     34  C   UNL     1       6.838   6.182  17.904  0.00  0.00    +0.000 C 
ENDBRANCH  26  29
ENDBRANCH  23  26
ENDBRANCH   2  20
TORSDOF 7
ENDMDL
MODEL 4
REMARK VINA RESULT:      -7.7      1.679      2.402
REMARK  Name = 
REMARK  9 active torsions:
REMARK  status: ('A' for Active; 'I' for Inactive)
REMARK    1  A    between atoms: C_1  and  C_2
REMARK    2  A    between atoms: C_2  and  N_3
REMARK    3  A    between atoms: C_9  and  N_10
REMARK    4  A    between atoms: C_11  and  C_13
REMARK    5  A    between atoms: C_16  and  S_17
REMARK    6  A    between atoms: S_17  and  N_20
REMARK    7  A    between atoms: C_28  and  C_29
REMARK    8  A    between atoms: C_29  and  O_31
REMARK    9  A    between atoms: O_31  and  C_32
REMARK                            x       y       z     vdW  Elec       q    Type
REMARK                         _______ _______ _______ _____ _____    ______ ____
ROOT
ATOM      1  N   UNL     1      -0.222   9.864  20.374  0.00  0.00    +0.000 N 
ATOM      2  C   UNL     1       0.944  10.049  19.647  0.00  0.00    +0.000 C 
ATOM      3  O   UNL     1       1.460  11.128  19.377  0.00  0.00    +0.000 OA
ATOM      4  H   UNL     1      -0.286   9.032  20.946  0.00  0.00    +0.000 HD
ENDROOT
BRANCH   1  11
ATOM      5  N   UNL     1      -3.074  14.509  23.259  0.00  0.00    +0.000 NA
ATOM      6  C   UNL     1      -2.931  15.166  21.938  0.00  0.00    +0.000 C 
ATOM      7  C   UNL     1      -2.893  14.199  20.732  0.00  0.00    +0.000 C 
ATOM      8  C   UNL     1      -2.069  12.971  21.028  0.00  0.00    +0.000 A 
ATOM      9  C   UNL     1      -1.627  12.734  22.320  0.00  0.00    +0.000 A 
ATOM     10  S   UNL     1      -0.799  11.260  22.467  0.00  0.00    +0.000 S 
ATOM     11  C   UNL     1      -0.937  10.967  20.799  0.00  0.00    +0.000 A 
ATOM     12  C   UNL     1      -1.754  11.870  20.139  0.00  0.00    +0.000 A 
ATOM     13  C   UNL     1      -1.886  13.642  23.494  0.00  0.00    +0.000 C 
BRANCH   5  15
ATOM     14  C   UNL     1      -4.317  12.760  24.586  0.00  0.00    +0.000 C 
ATOM     15  C   UNL     1      -4.316  13.724  23.404  0.00  0.00    +0.000 C 
ENDBRANCH   5  15
BRANCH  12  16
ATOM     16  C   UNL     1      -2.273  11.653  18.783  0.00  0.00    +0.000 C 
ATOM     17  O   UNL     1      -1.560  11.437  17.809  0.00  0.00    +0.000 OA
BRANCH  16  18
ATOM     18  O   UNL     1      -3.638  11.589  18.747  0.00  0.00    +0.000 OA
ATOM     19  C   UNL     1      -4.211  11.554  17.441  0.00  0.00    +0.000 C 
ENDBRANCH  16  18
ENDBRANCH  12  16
ENDBRANCH   1  11
BRANCH   2  20
ATOM     20  C   UNL     1       1.653   8.798  19.255  0.00  0.00    +0.000 A 
ATOM     21  C   UNL     1       2.235   8.681  17.989  0.00  0.00    +0.000 A 
ATOM     22  C   UNL     1       2.973   7.540  17.664  0.00  0.00    +0.000 A 
ATOM     23  C   UNL     1       3.126   6.510  18.602  0.00  0.00    +0.000 A 
ATOM     24  C   UNL     1       2.526   6.605  19.861  0.00  0.00    +0.000 A 
ATOM     25  C   UNL     1       1.799   7.758  20.190  0.00  0.00    +0.000 A 
BRANCH  23  26
ATOM     26  S   UNL     1       4.048   5.057  18.147  0.00  0.00    +0.000 S 
ATOM     27  O   UNL     1       5.007   5.464  17.141  0.00  0.00    +0.000 OA
ATOM     28  O   UNL     1       4.487   4.418  19.369  0.00  0.00    +0.000 OA
BRANCH  26  29
ATOM     29  N   UNL     1       2.921   4.019  17.399  0.00  0.00    +0.000 NA
ATOM     30  C   UNL     1       1.488   4.106  17.827  0.00  0.00    +0.000 C 
ATOM     31  C   UNL     1       1.224   3.359  19.138  0.00  0.00    +0.000 C 
ATOM     32  O   UNL     1       1.636   1.989  19.055  0.00  0.00    +0.000 OA
ATOM     33  C   UNL     1       3.029   1.890  18.737  0.00  0.00    +0.000 C 
ATOM     34  C   UNL     1       3.340   2.571  17.396  0.00  0.00    +0.000 C 
ENDBRANCH  26  29
ENDBRANCH  23  26
ENDBRANCH   2  20
TORSDOF 7
ENDMDL
MODEL 5
REMARK VINA RESULT:      -7.7      1.982      2.533
REMARK  Name = 
REMARK  9 active torsions:
REMARK  status: ('A' for Active; 'I' for Inactive)
REMARK    1  A    between atoms: C_1  and  C_2
REMARK    2  A    between atoms: C_2  and  N_3
REMARK    3  A    between atoms: C_9  and  N_10
REMARK    4  A    between atoms: C_11  and  C_13
REMARK    5  A    between atoms: C_16  and  S_17
REMARK    6  A    between atoms: S_17  and  N_20
REMARK    7  A    between atoms: C_28  and  C_29
REMARK    8  A    between atoms: C_29  and  O_31
REMARK    9  A    between atoms: O_31  and  C_32
REMARK                            x       y       z     vdW  Elec       q    Type
REMARK                         _______ _______ _______ _____ _____    ______ ____
ROOT
ATOM      1  N   UNL     1      -0.631  10.498  20.655  0.00  0.00    +0.000 N 
ATOM      2  C   UNL     1       0.511  10.647  19.884  0.00  0.00    +0.000 C 
ATOM      3  O   UNL     1       1.021  11.711  19.550  0.00  0.00    +0.000 OA
ATOM      4  H   UNL     1      -0.678   9.693  21.266  0.00  0.00    +0.000 HD
ENDROOT
BRANCH   1  11
ATOM      5  N   UNL     1      -3.283  15.341  23.404  0.00  0.00    +0.000 NA
ATOM      6  C   UNL     1      -3.314  15.868  22.019  0.00  0.00    +0.000 C 
ATOM      7  C   UNL     1      -3.384  14.788  20.914  0.00  0.00    +0.000 C 
ATOM      8  C   UNL     1      -2.492  13.613  21.226  0.00  0.00    +0.000 A 
ATOM      9  C   UNL     1      -1.896  13.514  22.473  0.00  0.00    +0.000 A 
ATOM     10  S   UNL     1      -1.008  12.080  22.660  0.00  0.00    +0.000 S 
ATOM     11  C   UNL     1      -1.327  11.622  21.055  0.00  0.00    +0.000 A 
ATOM     12  C   UNL     1      -2.245  12.438  20.414  0.00  0.00    +0.000 A 
ATOM     13  C   UNL     1      -2.047  14.527  23.578  0.00  0.00    +0.000 C 
BRANCH   5  15
ATOM     14  C   UNL     1      -5.780  15.332  23.765  0.00  0.00    +0.000 C 
ATOM     15  C   UNL     1      -4.473  14.547  23.768  0.00  0.00    +0.000 C 
ENDBRANCH   5  15
BRANCH  12  16
ATOM     16  C   UNL     1      -2.909  12.078  19.156  0.00  0.00    +0.000 C 
ATOM     17  O   UNL     1      -4.125  11.961  19.038  0.00  0.00    +0.000 OA
BRANCH  16  18
ATOM     18  O   UNL     1      -2.041  12.014  18.102  0.00  0.00    +0.000 OA
ATOM     19  C   UNL     1      -2.266  10.937  17.193  0.00  0.00    +0.000 C 
ENDBRANCH  16  18
ENDBRANCH  12  16
ENDBRANCH   1  11
BRANCH   2  20
ATOM     20  C   UNL     1       1.203   9.376  19.523  0.00  0.00    +0.000 A 
ATOM     21  C   UNL     1       1.746   9.204  18.246  0.00  0.00    +0.000 A 
ATOM     22  C   UNL     1       2.469   8.046  17.947  0.00  0.00    +0.000 A 
ATOM     23  C   UNL     1       2.646   7.055  18.922  0.00  0.00    +0.000 A 
ATOM     24  C   UNL     1       2.085   7.206  20.194  0.00  0.00    +0.000 A 
ATOM     25  C   UNL     1       1.374   8.376  20.496  0.00  0.00    +0.000 A 
BRANCH  23  26
ATOM     26  S   UNL     1       3.548   5.580  18.502  0.00  0.00    +0.000 S 
ATOM     27  O   UNL     1       3.913   5.693  17.105  0.00  0.00    +0.000 OA
ATOM     28  O   UNL     1       4.563   5.384  19.515  0.00  0.00    +0.000 OA
BRANCH  26  29
ATOM     29  N   UNL     1       2.426   4.304  18.643  0.00  0.00    +0.000 NA
ATOM     30  C   UNL     1       2.377   3.548  19.935  0.00  0.00    +0.000 C 
ATOM     31  C   UNL     1       3.493   2.505  20.043  0.00  0.00    +0.000 C 
ATOM     32  O   UNL     1       3.476   1.597  18.933  0.00  0.00    +0.000 OA
ATOM     33  C   UNL     1       3.615   2.300  17.693  0.00  0.00    +0.000 C 
ATOM     34  C   UNL     1       2.482   3.319  17.504  0.00  0.00    +0.000 C 
ENDBRANCH  26  29
ENDBRANCH  23  26
ENDBRANCH   2  20
TORSDOF 7
ENDMDL
MODEL 6
REMARK VINA RESULT:      -7.6      1.851      2.575
REMARK  Name = 
REMARK  9 active torsions:
REMARK  status: ('A' for Active; 'I' for Inactive)
REMARK    1  A    between atoms: C_1  and  C_2
REMARK    2  A    between atoms: C_2  and  N_3
REMARK    3  A    between atoms: C_9  and  N_10
REMARK    4  A    between atoms: C_11  and  C_13
REMARK    5  A    between atoms: C_16  and  S_17
REMARK    6  A    between atoms: S_17  and  N_20
REMARK    7  A    between atoms: C_28  and  C_29
REMARK    8  A    between atoms: C_29  and  O_31
REMARK    9  A    between atoms: O_31  and  C_32
REMARK                            x       y       z     vdW  Elec       q    Type
REMARK                         _______ _______ _______ _____ _____    ______ ____
ROOT
ATOM      1  N   UNL     1      -0.517  10.237  20.557  0.00  0.00    +0.000 N 
ATOM      2  C   UNL     1       0.695  10.470  19.927  0.00  0.00    +0.000 C 
ATOM      3  O   UNL     1       1.216  11.566  19.753  0.00  0.00    +0.000 OA
ATOM      4  H   UNL     1      -0.612   9.374  21.078  0.00  0.00    +0.000 HD
ENDROOT
BRANCH   1  11
ATOM      5  N   UNL     1      -3.600  14.709  23.478  0.00  0.00    +0.000 NA
ATOM      6  C   UNL     1      -3.397  15.424  22.196  0.00  0.00    +0.000 C 
ATOM      7  C   UNL     1      -3.278  14.511  20.954  0.00  0.00    +0.000 C 
ATOM      8  C   UNL     1      -2.451  13.284  21.241  0.00  0.00    +0.000 A 
ATOM      9  C   UNL     1      -2.074  12.998  22.544  0.00  0.00    +0.000 A 
ATOM     10  S   UNL     1      -1.230  11.531  22.673  0.00  0.00    +0.000 S 
ATOM     11  C   UNL     1      -1.273  11.309  20.989  0.00  0.00    +0.000 A 
ATOM     12  C   UNL     1      -2.069  12.228  20.324  0.00  0.00    +0.000 A 
ATOM     13  C   UNL     1      -2.411  13.850  23.740  0.00  0.00    +0.000 C 
BRANCH   5  15
ATOM     14  C   UNL     1      -4.788  12.734  24.505  0.00  0.00    +0.000 C 
ATOM     15  C   UNL     1      -4.834  13.899  23.522  0.00  0.00    +0.000 C 
ENDBRANCH   5  15
BRANCH  12  16
ATOM     16  C   UNL     1      -2.511  12.062  18.935  0.00  0.00    +0.000 C 
ATOM     17  O   UNL     1      -1.742  11.955  17.985  0.00  0.00    +0.000 OA
BRANCH  16  18
ATOM     18  O   UNL     1      -3.865  11.909  18.829  0.00  0.00    +0.000 OA
ATOM     19  C   UNL     1      -4.293  10.879  17.940  0.00  0.00    +0.000 C 
ENDBRANCH  16  18
ENDBRANCH  12  16
ENDBRANCH   1  11
BRANCH   2  20
ATOM     20  C   UNL     1       1.444   9.248  19.519  0.00  0.00    +0.000 A 
ATOM     21  C   UNL     1       1.629   8.197  20.423  0.00  0.00    +0.000 A 
ATOM     22  C   UNL     1       2.255   7.019  20.005  0.00  0.00    +0.000 A 
ATOM     23  C   UNL     1       2.702   6.892  18.683  0.00  0.00    +0.000 A 
ATOM     24  C   UNL     1       2.545   7.946  17.778  0.00  0.00    +0.000 A 
ATOM     25  C   UNL     1       1.903   9.120  18.197  0.00  0.00    +0.000 A 
BRANCH  23  26
ATOM     26  S   UNL     1       3.520   5.391  18.188  0.00  0.00    +0.000 S 
ATOM     27  O   UNL     1       4.215   5.677  16.951  0.00  0.00    +0.000 OA
ATOM     28  O   UNL     1       4.238   4.885  19.338  0.00  0.00    +0.000 OA
BRANCH  26  29
ATOM     29  N   UNL     1       2.269   4.286  17.836  0.00  0.00    +0.000 NA
ATOM     30  C   UNL     1       1.372   3.856  18.955  0.00  0.00    +0.000 C 
ATOM     31  C   UNL     1       2.007   2.773  19.831  0.00  0.00    +0.000 C 
ATOM     32  O   UNL     1       2.413   1.638  19.054  0.00  0.00    +0.000 OA
ATOM     33  C   UNL     1       3.345   2.020  18.036  0.00  0.00    +0.000 C 
ATOM     34  C   UNL     1       2.735   3.062  17.089  0.00  0.00    +0.000 C 
ENDBRANCH  26  29
ENDBRANCH  23  26
ENDBRANCH   2  20
TORSDOF 7
ENDMDL
MODEL 7
REMARK VINA RESULT:      -7.6      0.525      1.040
REMARK  Name = 
REMARK  9 active torsions:
REMARK  status: ('A' for Active; 'I' for Inactive)
REMARK    1  A    between atoms: C_1  and  C_2
REMARK    2  A    between atoms: C_2  and  N_3
REMARK    3  A    between atoms: C_9  and  N_10
REMARK    4  A    between atoms: C_11  and  C_13
REMARK    5  A    between atoms: C_16  and  S_17
REMARK    6  A    between atoms: S_17  and  N_20
REMARK    7  A    between atoms: C_28  and  C_29
REMARK    8  A    between atoms: C_29  and  O_31
REMARK    9  A    between atoms: O_31  and  C_32
REMARK                            x       y       z     vdW  Elec       q    Type
REMARK                         _______ _______ _______ _____ _____    ______ ____
ROOT
ATOM      1  N   UNL     1      -0.394  10.010  20.315  0.00  0.00    +0.000 N 
ATOM      2  C   UNL     1       0.821  10.310  19.720  0.00  0.00    +0.000 C 
ATOM      3  O   UNL     1       1.306  11.430  19.600  0.00  0.00    +0.000 OA
ATOM      4  H   UNL     1      -0.469   9.125  20.800  0.00  0.00    +0.000 HD
ENDROOT
BRANCH   1  11
ATOM      5  N   UNL     1      -3.661  14.279  23.338  0.00  0.00    +0.000 NA
ATOM      6  C   UNL     1      -3.506  15.024  22.067  0.00  0.00    +0.000 C 
ATOM      7  C   UNL     1      -3.354  14.138  20.808  0.00  0.00    +0.000 C 
ATOM      8  C   UNL     1      -2.466  12.948  21.068  0.00  0.00    +0.000 A 
ATOM      9  C   UNL     1      -2.064  12.660  22.362  0.00  0.00    +0.000 A 
ATOM     10  S   UNL     1      -1.148  11.234  22.459  0.00  0.00    +0.000 S 
ATOM     11  C   UNL     1      -1.196  11.037  20.772  0.00  0.00    +0.000 A 
ATOM     12  C   UNL     1      -2.043  11.927  20.130  0.00  0.00    +0.000 A 
ATOM     13  C   UNL     1      -2.430  13.475  23.575  0.00  0.00    +0.000 C 
BRANCH   5  15
ATOM     14  C   UNL     1      -6.180  14.162  23.443  0.00  0.00    +0.000 C 
ATOM     15  C   UNL     1      -4.853  13.410  23.379  0.00  0.00    +0.000 C 
ENDBRANCH   5  15
BRANCH  12  16
ATOM     16  C   UNL     1      -2.490  11.763  18.742  0.00  0.00    +0.000 C 
ATOM     17  O   UNL     1      -1.729  11.753  17.780  0.00  0.00    +0.000 OA
BRANCH  16  18
ATOM     18  O   UNL     1      -3.826  11.493  18.649  0.00  0.00    +0.000 OA
ATOM     19  C   UNL     1      -4.352  11.474  17.322  0.00  0.00    +0.000 C 
ENDBRANCH  16  18
ENDBRANCH  12  16
ENDBRANCH   1  11
BRANCH   2  20
ATOM     20  C   UNL     1       1.621   9.132  19.282  0.00  0.00    +0.000 A 
ATOM     21  C   UNL     1       1.816   8.048  20.145  0.00  0.00    +0.000 A 
ATOM     22  C   UNL     1       2.492   6.911  19.694  0.00  0.00    +0.000 A 
ATOM     23  C   UNL     1       2.980   6.857  18.381  0.00  0.00    +0.000 A 
ATOM     24  C   UNL     1       2.814   7.945  17.520  0.00  0.00    +0.000 A 
ATOM     25  C   UNL     1       2.121   9.078  17.970  0.00  0.00    +0.000 A 
BRANCH  23  26
ATOM     26  S   UNL     1       3.861   5.407  17.846  0.00  0.00    +0.000 S 
ATOM     27  O   UNL     1       4.682   4.976  18.959  0.00  0.00    +0.000 OA
ATOM     28  O   UNL     1       2.899   4.506  17.249  0.00  0.00    +0.000 OA
BRANCH  26  29
ATOM     29  N   UNL     1       4.906   5.939  16.608  0.00  0.00    +0.000 NA
ATOM     30  C   UNL     1       5.218   4.990  15.492  0.00  0.00    +0.000 C 
ATOM     31  C   UNL     1       6.288   3.965  15.879  0.00  0.00    +0.000 C 
ATOM     32  O   UNL     1       7.487   4.604  16.340  0.00  0.00    +0.000 OA
ATOM     33  C   UNL     1       7.219   5.444  17.468  0.00  0.00    +0.000 C 
ATOM     34  C   UNL     1       6.195   6.533  17.116  0.00  0.00    +0.000 C 
ENDBRANCH  26  29
ENDBRANCH  23  26
ENDBRANCH   2  20
TORSDOF 7
ENDMDL
MODEL 8
REMARK VINA RESULT:      -7.6      0.952      1.298
REMARK  Name = 
REMARK  9 active torsions:
REMARK  status: ('A' for Active; 'I' for Inactive)
REMARK    1  A    between atoms: C_1  and  C_2
REMARK    2  A    between atoms: C_2  and  N_3
REMARK    3  A    between atoms: C_9  and  N_10
REMARK    4  A    between atoms: C_11  and  C_13
REMARK    5  A    between atoms: C_16  and  S_17
REMARK    6  A    between atoms: S_17  and  N_20
REMARK    7  A    between atoms: C_28  and  C_29
REMARK    8  A    between atoms: C_29  and  O_31
REMARK    9  A    between atoms: O_31  and  C_32
REMARK                            x       y       z     vdW  Elec       q    Type
REMARK                         _______ _______ _______ _____ _____    ______ ____
ROOT
ATOM      1  N   UNL     1       0.283  10.253  20.157  0.00  0.00    +0.000 N 
ATOM      2  C   UNL     1       0.305   8.975  20.693  0.00  0.00    +0.000 C 
ATOM      3  O   UNL     1      -0.473   8.534  21.532  0.00  0.00    +0.000 OA
ATOM      4  H   UNL     1       0.581  10.359  19.196  0.00  0.00    +0.000 HD
ENDROOT
BRANCH   1  11
ATOM      5  N   UNL     1      -3.417  14.123  23.218  0.00  0.00    +0.000 NA
ATOM      6  C   UNL     1      -3.456  14.818  21.910  0.00  0.00    +0.000 C 
ATOM      7  C   UNL     1      -3.246  13.902  20.681  0.00  0.00    +0.000 C 
ATOM      8  C   UNL     1      -2.170  12.876  20.928  0.00  0.00    +0.000 A 
ATOM      9  C   UNL     1      -1.650  12.719  22.203  0.00  0.00    +0.000 A 
ATOM     10  S   UNL     1      -0.519  11.455  22.296  0.00  0.00    +0.000 S 
ATOM     11  C   UNL     1      -0.639  11.168  20.625  0.00  0.00    +0.000 A 
ATOM     12  C   UNL     1      -1.651  11.885  20.006  0.00  0.00    +0.000 A 
ATOM     13  C   UNL     1      -2.063  13.529  23.403  0.00  0.00    +0.000 C 
BRANCH   5  15
ATOM     14  C   UNL     1      -4.439  12.379  24.727  0.00  0.00    +0.000 C 
ATOM     15  C   UNL     1      -4.455  13.086  23.375  0.00  0.00    +0.000 C 
ENDBRANCH   5  15
BRANCH  12  16
ATOM     16  C   UNL     1      -2.150  11.584  18.659  0.00  0.00    +0.000 C 
ATOM     17  O   UNL     1      -1.454  11.627  17.651  0.00  0.00    +0.000 OA
BRANCH  16  18
ATOM     18  O   UNL     1      -3.438  11.125  18.667  0.00  0.00    +0.000 OA
ATOM     19  C   UNL     1      -4.271  11.636  17.628  0.00  0.00    +0.000 C 
ENDBRANCH  16  18
ENDBRANCH  12  16
ENDBRANCH   1  11
BRANCH   2  20
ATOM     20  C   UNL     1       1.321   8.057  20.105  0.00  0.00    +0.000 A 
ATOM     21  C   UNL     1       1.625   6.843  20.730  0.00  0.00    +0.000 A 
ATOM     22  C   UNL     1       2.513   5.951  20.125  0.00  0.00    +0.000 A 
ATOM     23  C   UNL     1       3.104   6.271  18.895  0.00  0.00    +0.000 A 
ATOM     24  C   UNL     1       2.828   7.493  18.275  0.00  0.00    +0.000 A 
ATOM     25  C   UNL     1       1.924   8.380  18.877  0.00  0.00    +0.000 A 
BRANCH  23  26
ATOM     26  S   UNL     1       4.252   5.126  18.164  0.00  0.00    +0.000 S 
ATOM     27  O   UNL     1       4.928   4.451  19.253  0.00  0.00    +0.000 OA
ATOM     28  O   UNL     1       3.536   4.369  17.160  0.00  0.00    +0.000 OA
BRANCH  26  29
ATOM     29  N   UNL     1       5.405   6.089  17.357  0.00  0.00    +0.000 NA
ATOM     30  C   UNL     1       5.446   6.035  15.860  0.00  0.00    +0.000 C 
ATOM     31  C   UNL     1       6.192   4.803  15.340  0.00  0.00    +0.000 C 
ATOM     32  O   UNL     1       7.519   4.725  15.878  0.00  0.00    +0.000 OA
ATOM     33  C   UNL     1       7.491   4.682  17.309  0.00  0.00    +0.000 C 
ATOM     34  C   UNL     1       6.807   5.929  17.887  0.00  0.00    +0.000 C 
ENDBRANCH  26  29
ENDBRANCH  23  26
ENDBRANCH   2  20
TORSDOF 7
ENDMDL
MODEL 9
REMARK VINA RESULT:      -7.6      1.616      2.451
REMARK  Name = 
REMARK  9 active torsions:
REMARK  status: ('A' for Active; 'I' for Inactive)
REMARK    1  A    between atoms: C_1  and  C_2
REMARK    2  A    between atoms: C_2  and  N_3
REMARK    3  A    between atoms: C_9  and  N_10
REMARK    4  A    between atoms: C_11  and  C_13
REMARK    5  A    between atoms: C_16  and  S_17
REMARK    6  A    between atoms: S_17  and  N_20
REMARK    7  A    between atoms: C_28  and  C_29
REMARK    8  A    between atoms: C_29  and  O_31
REMARK    9  A    between atoms: O_31  and  C_32
REMARK                            x       y       z     vdW  Elec       q    Type
REMARK                         _______ _______ _______ _____ _____    ______ ____
ROOT
ATOM      1  N   UNL     1       0.884  10.630  21.056  0.00  0.00    +0.000 N 
ATOM      2  C   UNL     1       0.565  10.115  19.810  0.00  0.00    +0.000 C 
ATOM      3  O   UNL     1      -0.263  10.575  19.031  0.00  0.00    +0.000 OA
ATOM      4  H   UNL     1       1.840  10.525  21.372  0.00  0.00    +0.000 HD
ENDROOT
BRANCH   1  11
ATOM      5  N   UNL     1      -2.906  14.780  23.596  0.00  0.00    +0.000 NA
ATOM      6  C   UNL     1      -1.676  15.606  23.621  0.00  0.00    +0.000 C 
ATOM      7  C   UNL     1      -0.647  15.275  22.514  0.00  0.00    +0.000 C 
ATOM      8  C   UNL     1      -0.522  13.789  22.296  0.00  0.00    +0.000 A 
ATOM      9  C   UNL     1      -1.417  12.926  22.909  0.00  0.00    +0.000 A 
ATOM     10  S   UNL     1      -1.169  11.306  22.468  0.00  0.00    +0.000 S 
ATOM     11  C   UNL     1       0.189  11.723  21.535  0.00  0.00    +0.000 A 
ATOM     12  C   UNL     1       0.370  13.089  21.392  0.00  0.00    +0.000 A 
ATOM     13  C   UNL     1      -2.531  13.357  23.827  0.00  0.00    +0.000 C 
BRANCH   5  15
ATOM     14  C   UNL     1      -4.880  13.964  22.254  0.00  0.00    +0.000 C 
ATOM     15  C   UNL     1      -3.685  14.907  22.348  0.00  0.00    +0.000 C 
ENDBRANCH   5  15
BRANCH  12  16
ATOM     16  C   UNL     1       1.267  13.689  20.397  0.00  0.00    +0.000 C 
ATOM     17  O   UNL     1       0.929  14.583  19.629  0.00  0.00    +0.000 OA
BRANCH  16  18
ATOM     18  O   UNL     1       2.551  13.235  20.507  0.00  0.00    +0.000 OA
ATOM     19  C   UNL     1       3.532  14.241  20.758  0.00  0.00    +0.000 C 
ENDBRANCH  16  18
ENDBRANCH  12  16
ENDBRANCH   1  11
BRANCH   2  20
ATOM     20  C   UNL     1       1.388   8.950  19.375  0.00  0.00    +0.000 A 
ATOM     21  C   UNL     1       2.032   8.964  18.133  0.00  0.00    +0.000 A 
ATOM     22  C   UNL     1       2.872   7.906  17.773  0.00  0.00    +0.000 A 
ATOM     23  C   UNL     1       3.065   6.831  18.650  0.00  0.00    +0.000 A 
ATOM     24  C   UNL     1       2.405   6.796  19.882  0.00  0.00    +0.000 A 
ATOM     25  C   UNL     1       1.576   7.865  20.247  0.00  0.00    +0.000 A 
BRANCH  23  26
ATOM     26  S   UNL     1       4.119   5.487  18.151  0.00  0.00    +0.000 S 
ATOM     27  O   UNL     1       4.853   5.066  19.326  0.00  0.00    +0.000 OA
ATOM     28  O   UNL     1       3.306   4.544  17.414  0.00  0.00    +0.000 OA
BRANCH  26  29
ATOM     29  N   UNL     1       5.237   6.167  17.058  0.00  0.00    +0.000 NA
ATOM     30  C   UNL     1       5.417   5.502  15.727  0.00  0.00    +0.000 C 
ATOM     31  C   UNL     1       6.326   4.272  15.807  0.00  0.00    +0.000 C 
ATOM     32  O   UNL     1       7.600   4.596  16.379  0.00  0.00    +0.000 OA
ATOM     33  C   UNL     1       7.449   5.148  17.692  0.00  0.00    +0.000 C 
ATOM     34  C   UNL     1       6.595   6.423  17.661  0.00  0.00    +0.000 C 
ENDBRANCH  26  29
ENDBRANCH  23  26
ENDBRANCH   2  20
TORSDOF 7
ENDMDL
