MODEL 1
REMARK VINA RESULT:      -8.1      0.000      0.000
REMARK  Name = 
REMARK  9 active torsions:
REMARK  status: ('A' for Active; 'I' for Inactive)
REMARK    1  A    between atoms: C_1  and  N_2
REMARK    2  A    between atoms: N_2  and  C_3
REMARK    3  A    between atoms: C_4  and  C_6
REMARK    4  A    between atoms: C_6  and  O_7
REMARK    5  A    between atoms: O_7  and  C_8
REMARK    6  A    between atoms: C_11  and  C_12
REMARK    7  A    between atoms: C_12  and  C_14
REMARK    8  A    between atoms: C_15  and  C_16
REMARK    9  A    between atoms: C_21  and  C_22
REMARK                            x       y       z     vdW  Elec       q    Type
REMARK                         _______ _______ _______ _____ _____    ______ ____
ROOT
ATOM      1  C   UNL     1       5.904   4.535  16.245  0.00  0.00    +0.000 C 
ATOM      2  O   UNL     1       6.169   4.254  15.081  0.00  0.00    +0.000 OA
ENDROOT
BRANCH   1   6
ATOM      3  C   UNL     1       8.125   7.532  18.365  0.00  0.00    +0.000 A 
ATOM      4  C   UNL     1       8.050   6.223  18.834  0.00  0.00    +0.000 A 
ATOM      5  C   UNL     1       7.331   5.264  18.118  0.00  0.00    +0.000 A 
ATOM      6  C   UNL     1       6.666   5.610  16.935  0.00  0.00    +0.000 A 
ATOM      7  C   UNL     1       6.712   6.933  16.481  0.00  0.00    +0.000 A 
ATOM      8  C   UNL     1       7.437   7.891  17.204  0.00  0.00    +0.000 A 
BRANCH   3   9
ATOM      9  O   UNL     1       8.834   8.531  18.976  0.00  0.00    +0.000 OA
BRANCH   9  10
ATOM     10  C   UNL     1       8.504   9.847  18.544  0.00  0.00    +0.000 C 
BRANCH  10  14
ATOM     11  C   UNL     1      11.139  12.253  19.928  0.00  0.00    +0.000 C 
ATOM     12  N   UNL     1      10.014  11.338  19.872  0.00  0.00    +0.000 N 
ATOM     13  C   UNL     1       9.224  11.125  21.072  0.00  0.00    +0.000 C 
ATOM     14  C   UNL     1       9.713  10.777  18.635  0.00  0.00    +0.000 C 
ATOM     15  O   UNL     1      10.410  10.981  17.640  0.00  0.00    +0.000 OA
ENDBRANCH  10  14
ENDBRANCH   9  10
ENDBRANCH   3   9
ENDBRANCH   1   6
BRANCH   1  16
ATOM     16  C   UNL     1       4.778   3.888  16.969  0.00  0.00    +0.000 C 
ATOM     17  C   UNL     1       3.759   4.647  17.400  0.00  0.00    +0.000 C 
BRANCH  17  18
ATOM     18  C   UNL     1       2.698   4.091  18.241  0.00  0.00    +0.000 A 
ATOM     19  C   UNL     1       2.303   2.774  17.947  0.00  0.00    +0.000 A 
ATOM     20  C   UNL     1       1.276   2.156  18.658  0.00  0.00    +0.000 A 
ATOM     21  C   UNL     1       0.633   2.843  19.679  0.00  0.00    +0.000 A 
ATOM     22  C   UNL     1       1.023   4.148  19.987  0.00  0.00    +0.000 A 
ATOM     23  C   UNL     1       2.057   4.794  19.274  0.00  0.00    +0.000 A 
BRANCH  23  24
ATOM     24  C   UNL     1       2.389   6.212  19.676  0.00  0.00    +0.000 C 
ATOM     25  F   UNL     1       2.112   7.174  18.755  0.00  0.00    +0.000 F 
ATOM     26  F   UNL     1       1.717   6.586  20.803  0.00  0.00    +0.000 F 
ATOM     27  F   UNL     1       3.711   6.364  19.976  0.00  0.00    +0.000 F 
ENDBRANCH  23  24
ENDBRANCH  17  18
ENDBRANCH   1  16
TORSDOF 7
ENDMDL
MODEL 2
REMARK VINA RESULT:      -8.0      0.793      1.560
REMARK  Name = 
REMARK  9 active torsions:
REMARK  status: ('A' for Active; 'I' for Inactive)
REMARK    1  A    between atoms: C_1  and  N_2
REMARK    2  A    between atoms: N_2  and  C_3
REMARK    3  A    between atoms: C_4  and  C_6
REMARK    4  A    between atoms: C_6  and  O_7
REMARK    5  A    between atoms: O_7  and  C_8
REMARK    6  A    between atoms: C_11  and  C_12
REMARK    7  A    between atoms: C_12  and  C_14
REMARK    8  A    between atoms: C_15  and  C_16
REMARK    9  A    between atoms: C_21  and  C_22
REMARK                            x       y       z     vdW  Elec       q    Type
REMARK                         _______ _______ _______ _____ _____    ______ ____
ROOT
ATOM      1  C   UNL     1       5.944   4.537  16.268  0.00  0.00    +0.000 C 
ATOM      2  O   UNL     1       6.240   4.327  15.096  0.00  0.00    +0.000 OA
ENDROOT
BRANCH   1   6
ATOM      3  C   UNL     1       8.115   7.565  18.395  0.00  0.00    +0.000 A 
ATOM      4  C   UNL     1       7.448   7.855  17.207  0.00  0.00    +0.000 A 
ATOM      5  C   UNL     1       6.738   6.854  16.542  0.00  0.00    +0.000 A 
ATOM      6  C   UNL     1       6.703   5.549  17.049  0.00  0.00    +0.000 A 
ATOM      7  C   UNL     1       7.401   5.249  18.224  0.00  0.00    +0.000 A 
ATOM      8  C   UNL     1       8.111   6.259  18.888  0.00  0.00    +0.000 A 
BRANCH   3   9
ATOM      9  O   UNL     1       8.805   8.485  19.136  0.00  0.00    +0.000 OA
BRANCH   9  10
ATOM     10  C   UNL     1       8.903   9.776  18.545  0.00  0.00    +0.000 C 
BRANCH  10  14
ATOM     11  C   UNL     1      10.490  12.926  20.031  0.00  0.00    +0.000 C 
ATOM     12  N   UNL     1       9.977  11.979  19.059  0.00  0.00    +0.000 N 
ATOM     13  C   UNL     1      10.155  12.259  17.645  0.00  0.00    +0.000 C 
ATOM     14  C   UNL     1       9.408  10.808  19.551  0.00  0.00    +0.000 C 
ATOM     15  O   UNL     1       9.272  10.609  20.760  0.00  0.00    +0.000 OA
ENDBRANCH  10  14
ENDBRANCH   9  10
ENDBRANCH   3   9
ENDBRANCH   1   6
BRANCH   1  16
ATOM     16  C   UNL     1       4.784   3.867  16.913  0.00  0.00    +0.000 C 
ATOM     17  C   UNL     1       3.810   4.621  17.446  0.00  0.00    +0.000 C 
BRANCH  17  18
ATOM     18  C   UNL     1       2.720   4.023  18.219  0.00  0.00    +0.000 A 
ATOM     19  C   UNL     1       2.318   2.734  17.824  0.00  0.00    +0.000 A 
ATOM     20  C   UNL     1       1.266   2.082  18.464  0.00  0.00    +0.000 A 
ATOM     21  C   UNL     1       0.604   2.707  19.514  0.00  0.00    +0.000 A 
ATOM     22  C   UNL     1       1.000   3.982  19.921  0.00  0.00    +0.000 A 
ATOM     23  C   UNL     1       2.060   4.661  19.282  0.00  0.00    +0.000 A 
BRANCH  23  24
ATOM     24  C   UNL     1       2.398   6.043  19.789  0.00  0.00    +0.000 C 
ATOM     25  F   UNL     1       3.709   6.269  20.076  0.00  0.00    +0.000 F 
ATOM     26  F   UNL     1       2.055   7.009  18.887  0.00  0.00    +0.000 F 
ATOM     27  F   UNL     1       1.716   6.354  20.928  0.00  0.00    +0.000 F 
ENDBRANCH  23  24
ENDBRANCH  17  18
ENDBRANCH   1  16
TORSDOF 7
ENDMDL
MODEL 3
REMARK VINA RESULT:      -8.0      5.960      7.835
REMARK  Name = 
REMARK  9 active torsions:
REMARK  status: ('A' for Active; 'I' for Inactive)
REMARK    1  A    between atoms: C_1  and  N_2
REMARK    2  A    between atoms: N_2  and  C_3
REMARK    3  A    between atoms: C_4  and  C_6
REMARK    4  A    between atoms: C_6  and  O_7
REMARK    5  A    between atoms: O_7  and  C_8
REMARK    6  A    between atoms: C_11  and  C_12
REMARK    7  A    between atoms: C_12  and  C_14
REMARK    8  A    between atoms: C_15  and  C_16
REMARK    9  A    between atoms: C_21  and  C_22
REMARK                            x       y       z     vdW  Elec       q    Type
REMARK                         _______ _______ _______ _____ _____    ______ ____
ROOT
ATOM      1  C   UNL     1       2.164   8.179  18.415  0.00  0.00    +0.000 C 
ATOM      2  O   UNL     1       2.293   8.783  17.355  0.00  0.00    +0.000 OA
ENDROOT
BRANCH   1   6
ATOM      3  C   UNL     1      -0.155   9.758  21.660  0.00  0.00    +0.000 A 
ATOM      4  C   UNL     1       0.697   8.672  21.844  0.00  0.00    +0.000 A 
ATOM      5  C   UNL     1       1.450   8.186  20.774  0.00  0.00    +0.000 A 
ATOM      6  C   UNL     1       1.345   8.771  19.505  0.00  0.00    +0.000 A 
ATOM      7  C   UNL     1       0.463   9.840  19.312  0.00  0.00    +0.000 A 
ATOM      8  C   UNL     1      -0.289  10.324  20.391  0.00  0.00    +0.000 A 
BRANCH   3   9
ATOM      9  O   UNL     1      -0.905  10.327  22.654  0.00  0.00    +0.000 OA
BRANCH   9  10
ATOM     10  C   UNL     1      -0.855  11.749  22.700  0.00  0.00    +0.000 C 
BRANCH  10  14
ATOM     11  C   UNL     1      -3.328  14.203  24.285  0.00  0.00    +0.000 C 
ATOM     12  N   UNL     1      -2.135  13.684  23.641  0.00  0.00    +0.000 N 
ATOM     13  C   UNL     1      -1.009  14.576  23.428  0.00  0.00    +0.000 C 
ATOM     14  C   UNL     1      -2.118  12.326  23.336  0.00  0.00    +0.000 C 
ATOM     15  O   UNL     1      -3.096  11.603  23.531  0.00  0.00    +0.000 OA
ENDBRANCH  10  14
ENDBRANCH   9  10
ENDBRANCH   3   9
ENDBRANCH   1   6
BRANCH   1  16
ATOM     16  C   UNL     1       2.736   6.821  18.614  0.00  0.00    +0.000 C 
ATOM     17  C   UNL     1       2.109   5.765  18.074  0.00  0.00    +0.000 C 
BRANCH  17  18
ATOM     18  C   UNL     1       2.541   4.395  18.358  0.00  0.00    +0.000 A 
ATOM     19  C   UNL     1       3.276   3.757  17.342  0.00  0.00    +0.000 A 
ATOM     20  C   UNL     1       3.708   2.440  17.487  0.00  0.00    +0.000 A 
ATOM     21  C   UNL     1       3.417   1.743  18.652  0.00  0.00    +0.000 A 
ATOM     22  C   UNL     1       2.696   2.369  19.671  0.00  0.00    +0.000 A 
ATOM     23  C   UNL     1       2.245   3.700  19.542  0.00  0.00    +0.000 A 
BRANCH  23  24
ATOM     24  C   UNL     1       1.459   4.277  20.696  0.00  0.00    +0.000 C 
ATOM     25  F   UNL     1       0.322   4.948  20.367  0.00  0.00    +0.000 F 
ATOM     26  F   UNL     1       1.066   3.307  21.572  0.00  0.00    +0.000 F 
ATOM     27  F   UNL     1       2.199   5.153  21.435  0.00  0.00    +0.000 F 
ENDBRANCH  23  24
ENDBRANCH  17  18
ENDBRANCH   1  16
TORSDOF 7
ENDMDL
MODEL 4
REMARK VINA RESULT:      -8.0      5.782      7.706
REMARK  Name = 
REMARK  9 active torsions:
REMARK  status: ('A' for Active; 'I' for Inactive)
REMARK    1  A    between atoms: C_1  and  N_2
REMARK    2  A    between atoms: N_2  and  C_3
REMARK    3  A    between atoms: C_4  and  C_6
REMARK    4  A    between atoms: C_6  and  O_7
REMARK    5  A    between atoms: O_7  and  C_8
REMARK    6  A    between atoms: C_11  and  C_12
REMARK    7  A    between atoms: C_12  and  C_14
REMARK    8  A    between atoms: C_15  and  C_16
REMARK    9  A    between atoms: C_21  and  C_22
REMARK                            x       y       z     vdW  Elec       q    Type
REMARK                         _______ _______ _______ _____ _____    ______ ____
ROOT
ATOM      1  C   UNL     1       2.140   8.167  18.450  0.00  0.00    +0.000 C 
ATOM      2  O   UNL     1       2.080   8.700  17.347  0.00  0.00    +0.000 OA
ENDROOT
BRANCH   1   6
ATOM      3  C   UNL     1       0.382   9.955  21.931  0.00  0.00    +0.000 A 
ATOM      4  C   UNL     1       0.963   8.691  21.984  0.00  0.00    +0.000 A 
ATOM      5  C   UNL     1       1.539   8.137  20.840  0.00  0.00    +0.000 A 
ATOM      6  C   UNL     1       1.525   8.836  19.626  0.00  0.00    +0.000 A 
ATOM      7  C   UNL     1       0.911  10.091  19.563  0.00  0.00    +0.000 A 
ATOM      8  C   UNL     1       0.334  10.642  20.717  0.00  0.00    +0.000 A 
BRANCH   3   9
ATOM      9  O   UNL     1      -0.175  10.594  23.005  0.00  0.00    +0.000 OA
BRANCH   9  10
ATOM     10  C   UNL     1      -1.388  11.286  22.726  0.00  0.00    +0.000 C 
BRANCH  10  14
ATOM     11  C   UNL     1      -2.377  14.685  24.181  0.00  0.00    +0.000 C 
ATOM     12  N   UNL     1      -2.451  13.291  23.782  0.00  0.00    +0.000 N 
ATOM     13  C   UNL     1      -3.710  12.584  23.936  0.00  0.00    +0.000 C 
ATOM     14  C   UNL     1      -1.317  12.737  23.196  0.00  0.00    +0.000 C 
ATOM     15  O   UNL     1      -0.266  13.371  23.085  0.00  0.00    +0.000 OA
ENDBRANCH  10  14
ENDBRANCH   9  10
ENDBRANCH   3   9
ENDBRANCH   1   6
BRANCH   1  16
ATOM     16  C   UNL     1       2.739   6.819  18.634  0.00  0.00    +0.000 C 
ATOM     17  C   UNL     1       2.125   5.754  18.095  0.00  0.00    +0.000 C 
BRANCH  17  18
ATOM     18  C   UNL     1       2.587   4.391  18.365  0.00  0.00    +0.000 A 
ATOM     19  C   UNL     1       3.330   3.777  17.341  0.00  0.00    +0.000 A 
ATOM     20  C   UNL     1       3.789   2.468  17.472  0.00  0.00    +0.000 A 
ATOM     21  C   UNL     1       3.517   1.755  18.632  0.00  0.00    +0.000 A 
ATOM     22  C   UNL     1       2.788   2.357  19.660  0.00  0.00    +0.000 A 
ATOM     23  C   UNL     1       2.310   3.680  19.544  0.00  0.00    +0.000 A 
BRANCH  23  24
ATOM     24  C   UNL     1       1.518   4.231  20.706  0.00  0.00    +0.000 C 
ATOM     25  F   UNL     1       1.074   3.318  21.612  0.00  0.00    +0.000 F 
ATOM     26  F   UNL     1       2.246   5.132  21.429  0.00  0.00    +0.000 F 
ATOM     27  F   UNL     1       0.408   4.909  20.297  0.00  0.00    +0.000 F 
ENDBRANCH  23  24
ENDBRANCH  17  18
ENDBRANCH   1  16
TORSDOF 7
ENDMDL
MODEL 5
REMARK VINA RESULT:      -7.9      5.893      7.874
REMARK  Name = 
REMARK  9 active torsions:
REMARK  status: ('A' for Active; 'I' for Inactive)
REMARK    1  A    between atoms: C_1  and  N_2
REMARK    2  A    between atoms: N_2  and  C_3
REMARK    3  A    between atoms: C_4  and  C_6
REMARK    4  A    between atoms: C_6  and  O_7
REMARK    5  A    between atoms: O_7  and  C_8
REMARK    6  A    between atoms: C_11  and  C_12
REMARK    7  A    between atoms: C_12  and  C_14
REMARK    8  A    between atoms: C_15  and  C_16
REMARK    9  A    between atoms: C_21  and  C_22
REMARK                            x       y       z     vdW  Elec       q    Type
REMARK                         _______ _______ _______ _____ _____    ______ ____
ROOT
ATOM      1  C   UNL     1       1.963   8.443  18.376  0.00  0.00    +0.000 C 
ATOM      2  O   UNL     1       2.326   9.198  17.479  0.00  0.00    +0.000 OA
ENDROOT
BRANCH   1   6
ATOM      3  C   UNL     1       0.298  10.218  21.909  0.00  0.00    +0.000 A 
ATOM      4  C   UNL     1       0.307  10.899  20.694  0.00  0.00    +0.000 A 
ATOM      5  C   UNL     1       0.843  10.294  19.557  0.00  0.00    +0.000 A 
ATOM      6  C   UNL     1       1.392   9.007  19.627  0.00  0.00    +0.000 A 
ATOM      7  C   UNL     1       1.415   8.336  20.854  0.00  0.00    +0.000 A 
ATOM      8  C   UNL     1       0.873   8.949  21.993  0.00  0.00    +0.000 A 
BRANCH   3   9
ATOM      9  O   UNL     1      -0.237  10.714  23.067  0.00  0.00    +0.000 OA
BRANCH   9  10
ATOM     10  C   UNL     1      -1.500  11.352  22.917  0.00  0.00    +0.000 C 
BRANCH  10  14
ATOM     11  C   UNL     1      -2.480  14.880  24.032  0.00  0.00    +0.000 C 
ATOM     12  N   UNL     1      -2.570  13.462  23.736  0.00  0.00    +0.000 N 
ATOM     13  C   UNL     1      -3.858  12.802  23.854  0.00  0.00    +0.000 C 
ATOM     14  C   UNL     1      -1.416  12.834  23.277  0.00  0.00    +0.000 C 
ATOM     15  O   UNL     1      -0.341  13.430  23.194  0.00  0.00    +0.000 OA
ENDBRANCH  10  14
ENDBRANCH   9  10
ENDBRANCH   3   9
ENDBRANCH   1   6
BRANCH   1  16
ATOM     16  C   UNL     1       1.997   6.966  18.214  0.00  0.00    +0.000 C 
ATOM     17  C   UNL     1       2.921   6.259  18.881  0.00  0.00    +0.000 C 
BRANCH  17  18
ATOM     18  C   UNL     1       3.096   4.823  18.650  0.00  0.00    +0.000 A 
ATOM     19  C   UNL     1       3.852   4.467  17.519  0.00  0.00    +0.000 A 
ATOM     20  C   UNL     1       4.052   3.131  17.180  0.00  0.00    +0.000 A 
ATOM     21  C   UNL     1       3.505   2.129  17.972  0.00  0.00    +0.000 A 
ATOM     22  C   UNL     1       2.760   2.470  19.102  0.00  0.00    +0.000 A 
ATOM     23  C   UNL     1       2.541   3.818  19.460  0.00  0.00    +0.000 A 
BRANCH  23  24
ATOM     24  C   UNL     1       1.708   4.078  20.692  0.00  0.00    +0.000 C 
ATOM     25  F   UNL     1       0.607   4.857  20.515  0.00  0.00    +0.000 F 
ATOM     26  F   UNL     1       1.245   2.917  21.241  0.00  0.00    +0.000 F 
ATOM     27  F   UNL     1       2.427   4.682  21.681  0.00  0.00    +0.000 F 
ENDBRANCH  23  24
ENDBRANCH  17  18
ENDBRANCH   1  16
TORSDOF 7
ENDMDL
MODEL 6
REMARK VINA RESULT:      -7.9      6.276      8.532
REMARK  Name = 
REMARK  9 active torsions:
REMARK  status: ('A' for Active; 'I' for Inactive)
REMARK    1  A    between atoms: C_1  and  N_2
REMARK    2  A    between atoms: N_2  and  C_3
REMARK    3  A    between atoms: C_4  and  C_6
REMARK    4  A    between atoms: C_6  and  O_7
REMARK    5  A    between atoms: O_7  and  C_8
REMARK    6  A    between atoms: C_11  and  C_12
REMARK    7  A    between atoms: C_12  and  C_14
REMARK    8  A    between atoms: C_15  and  C_16
REMARK    9  A    between atoms: C_21  and  C_22
REMARK                            x       y       z     vdW  Elec       q    Type
REMARK                         _______ _______ _______ _____ _____    ______ ____
ROOT
ATOM      1  C   UNL     1       1.942   8.582  18.892  0.00  0.00    +0.000 C 
ATOM      2  O   UNL     1       2.171   9.300  17.924  0.00  0.00    +0.000 OA
ENDROOT
BRANCH   1   6
ATOM      3  C   UNL     1      -0.399  10.246  22.080  0.00  0.00    +0.000 A 
ATOM      4  C   UNL     1      -0.423  10.799  20.802  0.00  0.00    +0.000 A 
ATOM      5  C   UNL     1       0.338  10.230  19.780  0.00  0.00    +0.000 A 
ATOM      6  C   UNL     1       1.145   9.113  20.030  0.00  0.00    +0.000 A 
ATOM      7  C   UNL     1       1.197   8.578  21.322  0.00  0.00    +0.000 A 
ATOM      8  C   UNL     1       0.429   9.153  22.344  0.00  0.00    +0.000 A 
BRANCH   3   9
ATOM      9  O   UNL     1      -1.136  10.710  23.136  0.00  0.00    +0.000 OA
BRANCH   9  10
ATOM     10  C   UNL     1      -1.526  12.075  23.037  0.00  0.00    +0.000 C 
BRANCH  10  14
ATOM     11  C   UNL     1      -5.125  12.948  22.073  0.00  0.00    +0.000 C 
ATOM     12  N   UNL     1      -3.687  12.777  21.986  0.00  0.00    +0.000 N 
ATOM     13  C   UNL     1      -2.993  13.265  20.807  0.00  0.00    +0.000 C 
ATOM     14  C   UNL     1      -3.045  12.221  23.089  0.00  0.00    +0.000 C 
ATOM     15  O   UNL     1      -3.671  11.818  24.070  0.00  0.00    +0.000 OA
ENDBRANCH  10  14
ENDBRANCH   9  10
ENDBRANCH   3   9
ENDBRANCH   1   6
BRANCH   1  16
ATOM     16  C   UNL     1       2.367   7.158  18.927  0.00  0.00    +0.000 C 
ATOM     17  C   UNL     1       2.277   6.425  17.807  0.00  0.00    +0.000 C 
BRANCH  17  18
ATOM     18  C   UNL     1       2.542   4.985  17.816  0.00  0.00    +0.000 A 
ATOM     19  C   UNL     1       1.479   4.164  18.234  0.00  0.00    +0.000 A 
ATOM     20  C   UNL     1       1.629   2.781  18.318  0.00  0.00    +0.000 A 
ATOM     21  C   UNL     1       2.843   2.197  17.979  0.00  0.00    +0.000 A 
ATOM     22  C   UNL     1       3.902   3.001  17.553  0.00  0.00    +0.000 A 
ATOM     23  C   UNL     1       3.773   4.404  17.467  0.00  0.00    +0.000 A 
BRANCH  23  24
ATOM     24  C   UNL     1       4.984   5.182  17.011  0.00  0.00    +0.000 C 
ATOM     25  F   UNL     1       4.794   6.018  15.955  0.00  0.00    +0.000 F 
ATOM     26  F   UNL     1       5.483   5.968  18.010  0.00  0.00    +0.000 F 
ATOM     27  F   UNL     1       6.014   4.364  16.648  0.00  0.00    +0.000 F 
ENDBRANCH  23  24
ENDBRANCH  17  18
ENDBRANCH   1  16
TORSDOF 7
ENDMDL
MODEL 7
REMARK VINA RESULT:      -7.8      3.166      5.954
REMARK  Name = 
REMARK  9 active torsions:
REMARK  status: ('A' for Active; 'I' for Inactive)
REMARK    1  A    between atoms: C_1  and  N_2
REMARK    2  A    between atoms: N_2  and  C_3
REMARK    3  A    between atoms: C_4  and  C_6
REMARK    4  A    between atoms: C_6  and  O_7
REMARK    5  A    between atoms: O_7  and  C_8
REMARK    6  A    between atoms: C_11  and  C_12
REMARK    7  A    between atoms: C_12  and  C_14
REMARK    8  A    between atoms: C_15  and  C_16
REMARK    9  A    between atoms: C_21  and  C_22
REMARK                            x       y       z     vdW  Elec       q    Type
REMARK                         _______ _______ _______ _____ _____    ______ ____
ROOT
ATOM      1  C   UNL     1       1.738   4.581  20.492  0.00  0.00    +0.000 C 
ATOM      2  O   UNL     1       1.407   3.734  21.316  0.00  0.00    +0.000 OA
ENDROOT
BRANCH   1   6
ATOM      3  C   UNL     1       4.480   3.615  17.337  0.00  0.00    +0.000 A 
ATOM      4  C   UNL     1       3.228   4.160  17.063  0.00  0.00    +0.000 A 
ATOM      5  C   UNL     1       2.360   4.476  18.109  0.00  0.00    +0.000 A 
ATOM      6  C   UNL     1       2.729   4.236  19.439  0.00  0.00    +0.000 A 
ATOM      7  C   UNL     1       3.972   3.656  19.712  0.00  0.00    +0.000 A 
ATOM      8  C   UNL     1       4.840   3.341  18.657  0.00  0.00    +0.000 A 
BRANCH   3   9
ATOM      9  O   UNL     1       5.412   3.305  16.383  0.00  0.00    +0.000 OA
BRANCH   9  10
ATOM     10  C   UNL     1       6.149   4.416  15.885  0.00  0.00    +0.000 C 
BRANCH  10  14
ATOM     11  C   UNL     1       7.910   6.644  18.451  0.00  0.00    +0.000 C 
ATOM     12  N   UNL     1       6.922   6.163  17.503  0.00  0.00    +0.000 N 
ATOM     13  C   UNL     1       5.805   7.025  17.157  0.00  0.00    +0.000 C 
ATOM     14  C   UNL     1       7.152   4.921  16.920  0.00  0.00    +0.000 C 
ATOM     15  O   UNL     1       8.111   4.218  17.244  0.00  0.00    +0.000 OA
ENDBRANCH  10  14
ENDBRANCH   9  10
ENDBRANCH   3   9
ENDBRANCH   1   6
BRANCH   1  16
ATOM     16  C   UNL     1       1.109   5.927  20.460  0.00  0.00    +0.000 C 
ATOM     17  C   UNL     1       1.890   7.013  20.560  0.00  0.00    +0.000 C 
BRANCH  17  18
ATOM     18  C   UNL     1       1.318   8.355  20.681  0.00  0.00    +0.000 A 
ATOM     19  C   UNL     1       0.776   8.685  21.936  0.00  0.00    +0.000 A 
ATOM     20  C   UNL     1       0.171   9.921  22.156  0.00  0.00    +0.000 A 
ATOM     21  C   UNL     1       0.106  10.850  21.126  0.00  0.00    +0.000 A 
ATOM     22  C   UNL     1       0.649  10.538  19.878  0.00  0.00    +0.000 A 
ATOM     23  C   UNL     1       1.261   9.289  19.633  0.00  0.00    +0.000 A 
BRANCH  23  24
ATOM     24  C   UNL     1       1.802   9.047  18.244  0.00  0.00    +0.000 C 
ATOM     25  F   UNL     1       2.055  10.158  17.501  0.00  0.00    +0.000 F 
ATOM     26  F   UNL     1       2.980   8.358  18.276  0.00  0.00    +0.000 F 
ATOM     27  F   UNL     1       0.959   8.286  17.489  0.00  0.00    +0.000 F 
ENDBRANCH  23  24
ENDBRANCH  17  18
ENDBRANCH   1  16
TORSDOF 7
ENDMDL
MODEL 8
REMARK VINA RESULT:      -7.8      6.377      8.597
REMARK  Name = 
REMARK  9 active torsions:
REMARK  status: ('A' for Active; 'I' for Inactive)
REMARK    1  A    between atoms: C_1  and  N_2
REMARK    2  A    between atoms: N_2  and  C_3
REMARK    3  A    between atoms: C_4  and  C_6
REMARK    4  A    between atoms: C_6  and  O_7
REMARK    5  A    between atoms: O_7  and  C_8
REMARK    6  A    between atoms: C_11  and  C_12
REMARK    7  A    between atoms: C_12  and  C_14
REMARK    8  A    between atoms: C_15  and  C_16
REMARK    9  A    between atoms: C_21  and  C_22
REMARK                            x       y       z     vdW  Elec       q    Type
REMARK                         _______ _______ _______ _____ _____    ______ ____
ROOT
ATOM      1  C   UNL     1       1.739   9.416  18.353  0.00  0.00    +0.000 C 
ATOM      2  O   UNL     1       2.157  10.221  17.527  0.00  0.00    +0.000 OA
ENDROOT
BRANCH   1   6
ATOM      3  C   UNL     1      -0.190  10.675  21.972  0.00  0.00    +0.000 A 
ATOM      4  C   UNL     1       0.143   9.339  21.758  0.00  0.00    +0.000 A 
ATOM      5  C   UNL     1       0.781   8.959  20.577  0.00  0.00    +0.000 A 
ATOM      6  C   UNL     1       1.078   9.907  19.590  0.00  0.00    +0.000 A 
ATOM      7  C   UNL     1       0.712  11.243  19.789  0.00  0.00    +0.000 A 
ATOM      8  C   UNL     1       0.072  11.619  20.978  0.00  0.00    +0.000 A 
BRANCH   3   9
ATOM      9  O   UNL     1      -0.784  11.149  23.110  0.00  0.00    +0.000 OA
BRANCH   9  10
ATOM     10  C   UNL     1      -1.375  12.438  22.983  0.00  0.00    +0.000 C 
BRANCH  10  14
ATOM     11  C   UNL     1      -5.046  12.823  21.970  0.00  0.00    +0.000 C 
ATOM     12  N   UNL     1      -3.596  12.877  21.915  0.00  0.00    +0.000 N 
ATOM     13  C   UNL     1      -2.961  13.541  20.790  0.00  0.00    +0.000 C 
ATOM     14  C   UNL     1      -2.900  12.350  22.999  0.00  0.00    +0.000 C 
ATOM     15  O   UNL     1      -3.476  11.792  23.934  0.00  0.00    +0.000 OA
ENDBRANCH  10  14
ENDBRANCH   9  10
ENDBRANCH   3   9
ENDBRANCH   1   6
BRANCH   1  16
ATOM     16  C   UNL     1       1.795   7.950  18.113  0.00  0.00    +0.000 C 
ATOM     17  C   UNL     1       2.972   7.317  18.224  0.00  0.00    +0.000 C 
BRANCH  17  18
ATOM     18  C   UNL     1       3.116   5.906  17.858  0.00  0.00    +0.000 A 
ATOM     19  C   UNL     1       2.124   5.037  18.348  0.00  0.00    +0.000 A 
ATOM     20  C   UNL     1       2.179   3.668  18.094  0.00  0.00    +0.000 A 
ATOM     21  C   UNL     1       3.224   3.148  17.341  0.00  0.00    +0.000 A 
ATOM     22  C   UNL     1       4.210   4.001  16.842  0.00  0.00    +0.000 A 
ATOM     23  C   UNL     1       4.175   5.390  17.093  0.00  0.00    +0.000 A 
BRANCH  23  24
ATOM     24  C   UNL     1       5.298   6.223  16.521  0.00  0.00    +0.000 C 
ATOM     25  F   UNL     1       6.323   5.531  15.952  0.00  0.00    +0.000 F 
ATOM     26  F   UNL     1       4.852   7.072  15.550  0.00  0.00    +0.000 F 
ATOM     27  F   UNL     1       5.876   7.023  17.462  0.00  0.00    +0.000 F 
ENDBRANCH  23  24
ENDBRANCH  17  18
ENDBRANCH   1  16
TORSDOF 7
ENDMDL
MODEL 9
REMARK VINA RESULT:      -7.6      6.073      8.037
REMARK  Name = 
REMARK  9 active torsions:
REMARK  status: ('A' for Active; 'I' for Inactive)
REMARK    1  A    between atoms: C_1  and  N_2
REMARK    2  A    between atoms: N_2  and  C_3
REMARK    3  A    between atoms: C_4  and  C_6
REMARK    4  A    between atoms: C_6  and  O_7
REMARK    5  A    between atoms: O_7  and  C_8
REMARK    6  A    between atoms: C_11  and  C_12
REMARK    7  A    between atoms: C_12  and  C_14
REMARK    8  A    between atoms: C_15  and  C_16
REMARK    9  A    between atoms: C_21  and  C_22
REMARK                            x       y       z     vdW  Elec       q    Type
REMARK                         _______ _______ _______ _____ _____    ______ ____
ROOT
ATOM      1  C   UNL     1       2.063   8.392  18.646  0.00  0.00    +0.000 C 
ATOM      2  O   UNL     1       2.173   9.037  17.608  0.00  0.00    +0.000 OA
ENDROOT
BRANCH   1   6
ATOM      3  C   UNL     1       0.107  10.295  21.957  0.00  0.00    +0.000 A 
ATOM      4  C   UNL     1       0.087  10.861  20.685  0.00  0.00    +0.000 A 
ATOM      5  C   UNL     1       0.721  10.214  19.623  0.00  0.00    +0.000 A 
ATOM      6  C   UNL     1       1.395   9.004  19.826  0.00  0.00    +0.000 A 
ATOM      7  C   UNL     1       1.446   8.453  21.111  0.00  0.00    +0.000 A 
ATOM      8  C   UNL     1       0.806   9.106  22.174  0.00  0.00    +0.000 A 
BRANCH   3   9
ATOM      9  O   UNL     1      -0.514  10.834  23.052  0.00  0.00    +0.000 OA
BRANCH   9  10
ATOM     10  C   UNL     1      -1.629  11.667  22.755  0.00  0.00    +0.000 C 
BRANCH  10  14
ATOM     11  C   UNL     1      -2.419  14.914  24.621  0.00  0.00    +0.000 C 
ATOM     12  N   UNL     1      -2.572  13.585  24.059  0.00  0.00    +0.000 N 
ATOM     13  C   UNL     1      -3.867  12.932  24.147  0.00  0.00    +0.000 C 
ATOM     14  C   UNL     1      -1.475  13.045  23.394  0.00  0.00    +0.000 C 
ATOM     15  O   UNL     1      -0.392  13.631  23.344  0.00  0.00    +0.000 OA
ENDBRANCH  10  14
ENDBRANCH   9  10
ENDBRANCH   3   9
ENDBRANCH   1   6
BRANCH   1  16
ATOM     16  C   UNL     1       2.503   6.975  18.737  0.00  0.00    +0.000 C 
ATOM     17  C   UNL     1       2.180   6.129  17.748  0.00  0.00    +0.000 C 
BRANCH  17  18
ATOM     18  C   UNL     1       2.459   4.695  17.850  0.00  0.00    +0.000 A 
ATOM     19  C   UNL     1       1.405   3.893  18.324  0.00  0.00    +0.000 A 
ATOM     20  C   UNL     1       1.569   2.520  18.497  0.00  0.00    +0.000 A 
ATOM     21  C   UNL     1       2.788   1.927  18.193  0.00  0.00    +0.000 A 
ATOM     22  C   UNL     1       3.838   2.711  17.713  0.00  0.00    +0.000 A 
ATOM     23  C   UNL     1       3.694   4.105  17.536  0.00  0.00    +0.000 A 
BRANCH  23  24
ATOM     24  C   UNL     1       4.897   4.863  17.028  0.00  0.00    +0.000 C 
ATOM     25  F   UNL     1       4.668   5.727  16.001  0.00  0.00    +0.000 F 
ATOM     26  F   UNL     1       5.471   5.615  18.011  0.00  0.00    +0.000 F 
ATOM     27  F   UNL     1       5.884   4.029  16.589  0.00  0.00    +0.000 F 
ENDBRANCH  23  24
ENDBRANCH  17  18
ENDBRANCH   1  16
TORSDOF 7
ENDMDL
