MODEL 1
REMARK VINA RESULT:      -7.2      0.000      0.000
REMARK  Name = 
REMARK  3 active torsions:
REMARK  status: ('A' for Active; 'I' for Inactive)
REMARK    1  A    between atoms: O_1  and  C_2
REMARK    2  A    between atoms: C_7  and  N_8
REMARK    3  A    between atoms: N_11  and  C_12
REMARK                            x       y       z     vdW  Elec       q    Type
REMARK                         _______ _______ _______ _____ _____    ______ ____
ROOT
ATOM      1  N   UNL     1       5.685   5.761  18.521  0.00  0.00    +0.000 NA
ATOM      2  C   UNL     1       6.996   5.157  18.215  0.00  0.00    +0.000 C 
ATOM      3  C   UNL     1       7.072   4.402  16.858  0.00  0.00    +0.000 C 
ATOM      4  N   UNL     1       6.558   5.253  15.773  0.00  0.00    +0.000 N 
ATOM      5  C   UNL     1       5.224   5.829  16.034  0.00  0.00    +0.000 C 
ATOM      6  C   UNL     1       5.229   6.568  17.386  0.00  0.00    +0.000 C 
ENDROOT
BRANCH   1  12
ATOM      7  C   UNL     1       4.549   3.438  18.971  0.00  0.00    +0.000 C 
ATOM      8  C   UNL     1       3.524   3.196  17.855  0.00  0.00    +0.000 C 
ATOM      9  N   UNL     1       2.218   3.797  18.160  0.00  0.00    +0.000 NA
ATOM     10  C   UNL     1       2.335   5.236  18.401  0.00  0.00    +0.000 C 
ATOM     11  C   UNL     1       3.325   5.566  19.519  0.00  0.00    +0.000 C 
ATOM     12  C   UNL     1       4.730   4.948  19.305  0.00  0.00    +0.000 C 
ATOM     13  H   UNL     1       1.879   3.365  19.023  0.00  0.00    +0.000 HD
BRANCH   7  14
ATOM     14  O   UNL     1       4.094   2.758  20.161  0.00  0.00    +0.000 OA
ATOM     15  H   UNL     1       3.279   2.282  19.926  0.00  0.00    +0.000 HD
ENDBRANCH   7  14
ENDBRANCH   1  12
BRANCH   4  16
ATOM     16  C   UNL     1       6.730   4.864  14.445  0.00  0.00    +0.000 A 
ATOM     17  C   UNL     1       7.692   5.403  13.585  0.00  0.00    +0.000 A 
ATOM     18  C   UNL     1       7.802   4.957  12.263  0.00  0.00    +0.000 A 
ATOM     19  C   UNL     1       6.945   3.965  11.783  0.00  0.00    +0.000 A 
ATOM     20  C   UNL     1       5.986   3.412  12.621  0.00  0.00    +0.000 A 
ATOM     21  C   UNL     1       5.886   3.862  13.937  0.00  0.00    +0.000 A 
ENDBRANCH   4  16
TORSDOF 3
ENDMDL
MODEL 2
REMARK VINA RESULT:      -7.1      0.132      1.109
REMARK  Name = 
REMARK  3 active torsions:
REMARK  status: ('A' for Active; 'I' for Inactive)
REMARK    1  A    between atoms: O_1  and  C_2
REMARK    2  A    between atoms: C_7  and  N_8
REMARK    3  A    between atoms: N_11  and  C_12
REMARK                            x       y       z     vdW  Elec       q    Type
REMARK                         _______ _______ _______ _____ _____    ______ ____
ROOT
ATOM      1  N   UNL     1       5.580   5.741  18.546  0.00  0.00    +0.000 NA
ATOM      2  C   UNL     1       6.898   5.153  18.241  0.00  0.00    +0.000 C 
ATOM      3  C   UNL     1       6.978   4.379  16.895  0.00  0.00    +0.000 C 
ATOM      4  N   UNL     1       6.445   5.207  15.801  0.00  0.00    +0.000 N 
ATOM      5  C   UNL     1       5.103   5.765  16.061  0.00  0.00    +0.000 C 
ATOM      6  C   UNL     1       5.104   6.524  17.402  0.00  0.00    +0.000 C 
ENDROOT
BRANCH   1  12
ATOM      7  C   UNL     1       4.496   3.404  19.048  0.00  0.00    +0.000 C 
ATOM      8  C   UNL     1       3.477   3.114  17.938  0.00  0.00    +0.000 C 
ATOM      9  N   UNL     1       2.158   3.692  18.228  0.00  0.00    +0.000 NA
ATOM     10  C   UNL     1       2.242   5.139  18.436  0.00  0.00    +0.000 C 
ATOM     11  C   UNL     1       3.223   5.516  19.546  0.00  0.00    +0.000 C 
ATOM     12  C   UNL     1       4.642   4.925  19.348  0.00  0.00    +0.000 C 
ATOM     13  H   UNL     1       1.827   3.272  19.100  0.00  0.00    +0.000 HD
BRANCH   7  14
ATOM     14  O   UNL     1       4.054   2.741  20.253  0.00  0.00    +0.000 OA
ATOM     15  H   UNL     1       3.662   3.422  20.827  0.00  0.00    +0.000 HD
ENDBRANCH   7  14
ENDBRANCH   1  12
BRANCH   4  16
ATOM     16  C   UNL     1       6.615   4.800  14.477  0.00  0.00    +0.000 A 
ATOM     17  C   UNL     1       5.846   3.812  13.853  0.00  0.00    +0.000 A 
ATOM     18  C   UNL     1       6.078   3.460  12.519  0.00  0.00    +0.000 A 
ATOM     19  C   UNL     1       7.087   4.094  11.791  0.00  0.00    +0.000 A 
ATOM     20  C   UNL     1       7.857   5.083  12.389  0.00  0.00    +0.000 A 
ATOM     21  C   UNL     1       7.618   5.426  13.719  0.00  0.00    +0.000 A 
ENDBRANCH   4  16
TORSDOF 3
ENDMDL
MODEL 3
REMARK VINA RESULT:      -6.9      2.527      6.289
REMARK  Name = 
REMARK  3 active torsions:
REMARK  status: ('A' for Active; 'I' for Inactive)
REMARK    1  A    between atoms: O_1  and  C_2
REMARK    2  A    between atoms: C_7  and  N_8
REMARK    3  A    between atoms: N_11  and  C_12
REMARK                            x       y       z     vdW  Elec       q    Type
REMARK                         _______ _______ _______ _____ _____    ______ ____
ROOT
ATOM      1  N   UNL     1       4.466   3.629  17.949  0.00  0.00    +0.000 NA
ATOM      2  C   UNL     1       4.498   3.984  19.381  0.00  0.00    +0.000 C 
ATOM      3  C   UNL     1       4.135   5.460  19.702  0.00  0.00    +0.000 C 
ATOM      4  N   UNL     1       2.871   5.828  19.042  0.00  0.00    +0.000 N 
ATOM      5  C   UNL     1       2.833   5.529  17.597  0.00  0.00    +0.000 C 
ATOM      6  C   UNL     1       3.193   4.050  17.358  0.00  0.00    +0.000 C 
ENDROOT
BRANCH   1  12
ATOM      7  C   UNL     1       6.892   4.613  17.767  0.00  0.00    +0.000 C 
ATOM      8  C   UNL     1       6.767   6.098  17.400  0.00  0.00    +0.000 C 
ATOM      9  N   UNL     1       6.667   6.306  15.949  0.00  0.00    +0.000 NA
ATOM     10  C   UNL     1       5.533   5.574  15.381  0.00  0.00    +0.000 C 
ATOM     11  C   UNL     1       5.591   4.076  15.682  0.00  0.00    +0.000 C 
ATOM     12  C   UNL     1       5.730   3.751  17.191  0.00  0.00    +0.000 C 
ATOM     13  H   UNL     1       7.520   5.930  15.528  0.00  0.00    +0.000 HD
BRANCH   7  14
ATOM     14  O   UNL     1       8.138   4.116  17.231  0.00  0.00    +0.000 OA
ATOM     15  H   UNL     1       8.604   4.874  16.838  0.00  0.00    +0.000 HD
ENDBRANCH   7  14
ENDBRANCH   1  12
BRANCH   4  16
ATOM     16  C   UNL     1       2.244   7.032  19.363  0.00  0.00    +0.000 A 
ATOM     17  C   UNL     1       1.720   7.333  20.624  0.00  0.00    +0.000 A 
ATOM     18  C   UNL     1       1.106   8.567  20.868  0.00  0.00    +0.000 A 
ATOM     19  C   UNL     1       1.007   9.516  19.849  0.00  0.00    +0.000 A 
ATOM     20  C   UNL     1       1.525   9.239  18.591  0.00  0.00    +0.000 A 
ATOM     21  C   UNL     1       2.137   8.007  18.358  0.00  0.00    +0.000 A 
ENDBRANCH   4  16
TORSDOF 3
ENDMDL
MODEL 4
REMARK VINA RESULT:      -6.9      2.688      6.305
REMARK  Name = 
REMARK  3 active torsions:
REMARK  status: ('A' for Active; 'I' for Inactive)
REMARK    1  A    between atoms: O_1  and  C_2
REMARK    2  A    between atoms: C_7  and  N_8
REMARK    3  A    between atoms: N_11  and  C_12
REMARK                            x       y       z     vdW  Elec       q    Type
REMARK                         _______ _______ _______ _____ _____    ______ ____
ROOT
ATOM      1  N   UNL     1       5.295   5.569  16.574  0.00  0.00    +0.000 NA
ATOM      2  C   UNL     1       4.572   4.334  16.217  0.00  0.00    +0.000 C 
ATOM      3  C   UNL     1       4.040   3.510  17.423  0.00  0.00    +0.000 C 
ATOM      4  N   UNL     1       3.285   4.380  18.339  0.00  0.00    +0.000 N 
ATOM      5  C   UNL     1       4.007   5.599  18.752  0.00  0.00    +0.000 C 
ATOM      6  C   UNL     1       4.494   6.366  17.507  0.00  0.00    +0.000 C 
ENDROOT
BRANCH   1  12
ATOM      7  C   UNL     1       7.366   4.689  17.925  0.00  0.00    +0.000 C 
ATOM      8  C   UNL     1       7.495   5.546  19.191  0.00  0.00    +0.000 C 
ATOM      9  N   UNL     1       8.275   6.769  18.959  0.00  0.00    +0.000 NA
ATOM     10  C   UNL     1       7.692   7.580  17.888  0.00  0.00    +0.000 C 
ATOM     11  C   UNL     1       7.548   6.805  16.578  0.00  0.00    +0.000 C 
ATOM     12  C   UNL     1       6.763   5.477  16.724  0.00  0.00    +0.000 C 
ATOM     13  H   UNL     1       9.208   6.481  18.656  0.00  0.00    +0.000 HD
BRANCH   7  14
ATOM     14  O   UNL     1       8.682   4.227  17.554  0.00  0.00    +0.000 OA
ATOM     15  H   UNL     1       8.567   3.393  17.066  0.00  0.00    +0.000 HD
ENDBRANCH   7  14
ENDBRANCH   1  12
BRANCH   4  16
ATOM     16  C   UNL     1       2.538   3.816  19.374  0.00  0.00    +0.000 A 
ATOM     17  C   UNL     1       1.147   3.670  19.350  0.00  0.00    +0.000 A 
ATOM     18  C   UNL     1       0.469   3.093  20.430  0.00  0.00    +0.000 A 
ATOM     19  C   UNL     1       1.178   2.655  21.550  0.00  0.00    +0.000 A 
ATOM     20  C   UNL     1       2.559   2.785  21.592  0.00  0.00    +0.000 A 
ATOM     21  C   UNL     1       3.226   3.361  20.510  0.00  0.00    +0.000 A 
ENDBRANCH   4  16
TORSDOF 3
ENDMDL
MODEL 5
REMARK VINA RESULT:      -6.9      2.535      6.294
REMARK  Name = 
REMARK  3 active torsions:
REMARK  status: ('A' for Active; 'I' for Inactive)
REMARK    1  A    between atoms: O_1  and  C_2
REMARK    2  A    between atoms: C_7  and  N_8
REMARK    3  A    between atoms: N_11  and  C_12
REMARK                            x       y       z     vdW  Elec       q    Type
REMARK                         _______ _______ _______ _____ _____    ______ ____
ROOT
ATOM      1  N   UNL     1       4.458   3.641  17.972  0.00  0.00    +0.000 NA
ATOM      2  C   UNL     1       4.481   4.005  19.402  0.00  0.00    +0.000 C 
ATOM      3  C   UNL     1       4.121   5.485  19.710  0.00  0.00    +0.000 C 
ATOM      4  N   UNL     1       2.865   5.854  19.038  0.00  0.00    +0.000 N 
ATOM      5  C   UNL     1       2.837   5.546  17.594  0.00  0.00    +0.000 C 
ATOM      6  C   UNL     1       3.192   4.064  17.368  0.00  0.00    +0.000 C 
ENDROOT
BRANCH   1  12
ATOM      7  C   UNL     1       6.879   4.639  17.787  0.00  0.00    +0.000 C 
ATOM      8  C   UNL     1       6.746   6.112  17.378  0.00  0.00    +0.000 C 
ATOM      9  N   UNL     1       6.658   6.280  15.922  0.00  0.00    +0.000 NA
ATOM     10  C   UNL     1       5.536   5.524  15.362  0.00  0.00    +0.000 C 
ATOM     11  C   UNL     1       5.603   4.035  15.705  0.00  0.00    +0.000 C 
ATOM     12  C   UNL     1       5.729   3.752  17.224  0.00  0.00    +0.000 C 
ATOM     13  H   UNL     1       7.518   5.900  15.519  0.00  0.00    +0.000 HD
BRANCH   7  14
ATOM     14  O   UNL     1       8.133   4.138  17.278  0.00  0.00    +0.000 OA
ATOM     15  H   UNL     1       8.426   4.752  16.582  0.00  0.00    +0.000 HD
ENDBRANCH   7  14
ENDBRANCH   1  12
BRANCH   4  16
ATOM     16  C   UNL     1       2.241   7.063  19.346  0.00  0.00    +0.000 A 
ATOM     17  C   UNL     1       2.089   8.122  18.445  0.00  0.00    +0.000 A 
ATOM     18  C   UNL     1       1.449   9.304  18.832  0.00  0.00    +0.000 A 
ATOM     19  C   UNL     1       0.954   9.443  20.130  0.00  0.00    +0.000 A 
ATOM     20  C   UNL     1       1.088   8.402  21.038  0.00  0.00    +0.000 A 
ATOM     21  C   UNL     1       1.727   7.227  20.643  0.00  0.00    +0.000 A 
ENDBRANCH   4  16
TORSDOF 3
ENDMDL
MODEL 6
REMARK VINA RESULT:      -6.9      1.311      1.379
REMARK  Name = 
REMARK  3 active torsions:
REMARK  status: ('A' for Active; 'I' for Inactive)
REMARK    1  A    between atoms: O_1  and  C_2
REMARK    2  A    between atoms: C_7  and  N_8
REMARK    3  A    between atoms: N_11  and  C_12
REMARK                            x       y       z     vdW  Elec       q    Type
REMARK                         _______ _______ _______ _____ _____    ______ ____
ROOT
ATOM      1  N   UNL     1       4.514   4.964  18.666  0.00  0.00    +0.000 NA
ATOM      2  C   UNL     1       5.901   5.412  18.440  0.00  0.00    +0.000 C 
ATOM      3  C   UNL     1       6.587   4.820  17.178  0.00  0.00    +0.000 C 
ATOM      4  N   UNL     1       5.723   4.996  16.000  0.00  0.00    +0.000 N 
ATOM      5  C   UNL     1       4.341   4.508  16.183  0.00  0.00    +0.000 C 
ATOM      6  C   UNL     1       3.725   5.144  17.444  0.00  0.00    +0.000 C 
ENDROOT
BRANCH   1  12
ATOM      7  C   UNL     1       4.652   2.361  18.977  0.00  0.00    +0.000 C 
ATOM      8  C   UNL     1       3.487   1.736  18.197  0.00  0.00    +0.000 C 
ATOM      9  N   UNL     1       2.252   1.679  18.992  0.00  0.00    +0.000 NA
ATOM     10  C   UNL     1       1.857   3.008  19.462  0.00  0.00    +0.000 C 
ATOM     11  C   UNL     1       2.957   3.697  20.271  0.00  0.00    +0.000 C 
ATOM     12  C   UNL     1       4.315   3.779  19.528  0.00  0.00    +0.000 C 
ATOM     13  H   UNL     1       2.447   1.105  19.816  0.00  0.00    +0.000 HD
BRANCH   7  14
ATOM     14  O   UNL     1       4.965   1.500  20.092  0.00  0.00    +0.000 OA
ATOM     15  H   UNL     1       5.309   0.667  19.725  0.00  0.00    +0.000 HD
ENDBRANCH   7  14
ENDBRANCH   1  12
BRANCH   4  16
ATOM     16  C   UNL     1       6.225   4.735  14.725  0.00  0.00    +0.000 A 
ATOM     17  C   UNL     1       7.383   5.319  14.201  0.00  0.00    +0.000 A 
ATOM     18  C   UNL     1       7.823   5.003  12.911  0.00  0.00    +0.000 A 
ATOM     19  C   UNL     1       7.106   4.098  12.125  0.00  0.00    +0.000 A 
ATOM     20  C   UNL     1       5.957   3.503  12.628  0.00  0.00    +0.000 A 
ATOM     21  C   UNL     1       5.527   3.823  13.916  0.00  0.00    +0.000 A 
ENDBRANCH   4  16
TORSDOF 3
ENDMDL
MODEL 7
REMARK VINA RESULT:      -6.8      3.121      4.426
REMARK  Name = 
REMARK  3 active torsions:
REMARK  status: ('A' for Active; 'I' for Inactive)
REMARK    1  A    between atoms: O_1  and  C_2
REMARK    2  A    between atoms: C_7  and  N_8
REMARK    3  A    between atoms: N_11  and  C_12
REMARK                            x       y       z     vdW  Elec       q    Type
REMARK                         _______ _______ _______ _____ _____    ______ ____
ROOT
ATOM      1  N   UNL     1       3.513   1.932  19.113  0.00  0.00    +0.000 NA
ATOM      2  C   UNL     1       3.798   2.200  17.690  0.00  0.00    +0.000 C 
ATOM      3  C   UNL     1       4.254   3.651  17.372  0.00  0.00    +0.000 C 
ATOM      4  N   UNL     1       5.353   4.046  18.268  0.00  0.00    +0.000 N 
ATOM      5  C   UNL     1       5.072   3.835  19.702  0.00  0.00    +0.000 C 
ATOM      6  C   UNL     1       4.637   2.376  19.941  0.00  0.00    +0.000 C 
ENDROOT
BRANCH   1  12
ATOM      7  C   UNL     1       1.160   3.045  18.775  0.00  0.00    +0.000 C 
ATOM      8  C   UNL     1       1.273   4.514  19.204  0.00  0.00    +0.000 C 
ATOM      9  N   UNL     1       1.054   4.691  20.645  0.00  0.00    +0.000 NA
ATOM     10  C   UNL     1       1.992   3.888  21.432  0.00  0.00    +0.000 C 
ATOM     11  C   UNL     1       1.929   2.401  21.082  0.00  0.00    +0.000 C 
ATOM     12  C   UNL     1       2.118   2.110  19.571  0.00  0.00    +0.000 C 
ATOM     13  H   UNL     1       0.110   4.356  20.853  0.00  0.00    +0.000 HD
BRANCH   7  14
ATOM     14  O   UNL     1      -0.197   2.608  19.002  0.00  0.00    +0.000 OA
ATOM     15  H   UNL     1      -0.592   3.221  19.647  0.00  0.00    +0.000 HD
ENDBRANCH   7  14
ENDBRANCH   1  12
BRANCH   4  16
ATOM     16  C   UNL     1       6.060   5.223  18.023  0.00  0.00    +0.000 A 
ATOM     17  C   UNL     1       5.671   6.195  17.095  0.00  0.00    +0.000 A 
ATOM     18  C   UNL     1       6.436   7.352  16.907  0.00  0.00    +0.000 A 
ATOM     19  C   UNL     1       7.604   7.550  17.645  0.00  0.00    +0.000 A 
ATOM     20  C   UNL     1       8.005   6.600  18.575  0.00  0.00    +0.000 A 
ATOM     21  C   UNL     1       7.236   5.451  18.757  0.00  0.00    +0.000 A 
ENDBRANCH   4  16
TORSDOF 3
ENDMDL
MODEL 8
REMARK VINA RESULT:      -6.8      3.111      4.403
REMARK  Name = 
REMARK  3 active torsions:
REMARK  status: ('A' for Active; 'I' for Inactive)
REMARK    1  A    between atoms: O_1  and  C_2
REMARK    2  A    between atoms: C_7  and  N_8
REMARK    3  A    between atoms: N_11  and  C_12
REMARK                            x       y       z     vdW  Elec       q    Type
REMARK                         _______ _______ _______ _____ _____    ______ ____
ROOT
ATOM      1  N   UNL     1       3.505   1.931  19.075  0.00  0.00    +0.000 NA
ATOM      2  C   UNL     1       3.741   2.299  17.666  0.00  0.00    +0.000 C 
ATOM      3  C   UNL     1       4.258   3.747  17.442  0.00  0.00    +0.000 C 
ATOM      4  N   UNL     1       5.414   4.015  18.313  0.00  0.00    +0.000 N 
ATOM      5  C   UNL     1       5.186   3.702  19.737  0.00  0.00    +0.000 C 
ATOM      6  C   UNL     1       4.686   2.251  19.881  0.00  0.00    +0.000 C 
ENDROOT
BRANCH   1  12
ATOM      7  C   UNL     1       1.144   3.054  18.844  0.00  0.00    +0.000 C 
ATOM      8  C   UNL     1       1.295   4.536  19.213  0.00  0.00    +0.000 C 
ATOM      9  N   UNL     1       1.168   4.766  20.658  0.00  0.00    +0.000 NA
ATOM     10  C   UNL     1       2.147   3.982  21.413  0.00  0.00    +0.000 C 
ATOM     11  C   UNL     1       2.050   2.484  21.121  0.00  0.00    +0.000 C 
ATOM     12  C   UNL     1       2.143   2.138  19.613  0.00  0.00    +0.000 C 
ATOM     13  H   UNL     1       0.236   4.448  20.936  0.00  0.00    +0.000 HD
BRANCH   7  14
ATOM     14  O   UNL     1      -0.200   2.640  19.171  0.00  0.00    +0.000 OA
ATOM     15  H   UNL     1      -0.229   2.491  20.132  0.00  0.00    +0.000 HD
ENDBRANCH   7  14
ENDBRANCH   1  12
BRANCH   4  16
ATOM     16  C   UNL     1       6.170   5.172  18.127  0.00  0.00    +0.000 A 
ATOM     17  C   UNL     1       7.304   5.500  18.877  0.00  0.00    +0.000 A 
ATOM     18  C   UNL     1       8.011   6.681  18.628  0.00  0.00    +0.000 A 
ATOM     19  C   UNL     1       7.588   7.554  17.623  0.00  0.00    +0.000 A 
ATOM     20  C   UNL     1       6.468   7.245  16.862  0.00  0.00    +0.000 A 
ATOM     21  C   UNL     1       5.772   6.064  17.118  0.00  0.00    +0.000 A 
ENDBRANCH   4  16
TORSDOF 3
ENDMDL
MODEL 9
REMARK VINA RESULT:      -6.8      1.729      2.281
REMARK  Name = 
REMARK  3 active torsions:
REMARK  status: ('A' for Active; 'I' for Inactive)
REMARK    1  A    between atoms: O_1  and  C_2
REMARK    2  A    between atoms: C_7  and  N_8
REMARK    3  A    between atoms: N_11  and  C_12
REMARK                            x       y       z     vdW  Elec       q    Type
REMARK                         _______ _______ _______ _____ _____    ______ ____
ROOT
ATOM      1  N   UNL     1       4.339   4.259  18.909  0.00  0.00    +0.000 NA
ATOM      2  C   UNL     1       4.265   3.051  18.066  0.00  0.00    +0.000 C 
ATOM      3  C   UNL     1       4.474   3.296  16.545  0.00  0.00    +0.000 C 
ATOM      4  N   UNL     1       5.696   4.085  16.321  0.00  0.00    +0.000 N 
ATOM      5  C   UNL     1       5.770   5.327  17.116  0.00  0.00    +0.000 C 
ATOM      6  C   UNL     1       5.565   5.004  18.609  0.00  0.00    +0.000 C 
ENDROOT
BRANCH   1  12
ATOM      7  C   UNL     1       2.587   5.114  20.666  0.00  0.00    +0.000 C 
ATOM      8  C   UNL     1       1.780   3.901  21.147  0.00  0.00    +0.000 C 
ATOM      9  N   UNL     1       0.635   3.613  20.274  0.00  0.00    +0.000 NA
ATOM     10  C   UNL     1       1.060   3.388  18.891  0.00  0.00    +0.000 C 
ATOM     11  C   UNL     1       1.856   4.563  18.323  0.00  0.00    +0.000 C 
ATOM     12  C   UNL     1       3.073   4.967  19.193  0.00  0.00    +0.000 C 
ATOM     13  H   UNL     1       0.031   4.438  20.281  0.00  0.00    +0.000 HD
BRANCH   7  14
ATOM     14  O   UNL     1       1.746   6.284  20.756  0.00  0.00    +0.000 OA
ATOM     15  H   UNL     1       1.972   6.738  21.586  0.00  0.00    +0.000 HD
ENDBRANCH   7  14
ENDBRANCH   1  12
BRANCH   4  16
ATOM     16  C   UNL     1       6.194   4.240  15.027  0.00  0.00    +0.000 A 
ATOM     17  C   UNL     1       7.277   5.061  14.694  0.00  0.00    +0.000 A 
ATOM     18  C   UNL     1       7.718   5.162  13.370  0.00  0.00    +0.000 A 
ATOM     19  C   UNL     1       7.078   4.443  12.359  0.00  0.00    +0.000 A 
ATOM     20  C   UNL     1       6.005   3.618  12.668  0.00  0.00    +0.000 A 
ATOM     21  C   UNL     1       5.573   3.523  13.991  0.00  0.00    +0.000 A 
ENDBRANCH   4  16
TORSDOF 3
ENDMDL
