MODEL 1
REMARK VINA RESULT:      -8.5      0.000      0.000
REMARK  Name = 
REMARK  6 active torsions:
REMARK  status: ('A' for Active; 'I' for Inactive)
REMARK    1  A    between atoms: C_1  and  N_2
REMARK    2  A    between atoms: N_2  and  C_16
REMARK    3  A    between atoms: C_3  and  C_5
REMARK    4  A    between atoms: C_5  and  O_6
REMARK    5  A    between atoms: O_6  and  C_7
REMARK    6  A    between atoms: C_9  and  C_10
REMARK                            x       y       z     vdW  Elec       q    Type
REMARK                         _______ _______ _______ _____ _____    ______ ____
ROOT
ATOM      1  C   UNL     1       6.680   5.520  18.069  0.00  0.00    +0.000 C 
ENDROOT
BRANCH   1   4
ATOM      2  C   UNL     1       3.911   6.340  17.464  0.00  0.00    +0.000 C 
ATOM      3  N   UNL     1       4.174   5.210  18.360  0.00  0.00    +0.000 N 
ATOM      4  C   UNL     1       5.473   4.769  18.654  0.00  0.00    +0.000 C 
ATOM      5  O   UNL     1       5.739   3.772  19.335  0.00  0.00    +0.000 OA
BRANCH   3   6
ATOM      6  C   UNL     1       3.002   4.518  18.878  0.00  0.00    +0.000 A 
ATOM      7  C   UNL     1       2.340   3.512  18.156  0.00  0.00    +0.000 A 
ATOM      8  C   UNL     1       1.191   2.881  18.652  0.00  0.00    +0.000 A 
ATOM      9  C   UNL     1       0.680   3.232  19.893  0.00  0.00    +0.000 A 
ATOM     10  C   UNL     1       1.329   4.202  20.645  0.00  0.00    +0.000 A 
ATOM     11  C   UNL     1       2.479   4.830  20.147  0.00  0.00    +0.000 A 
ENDBRANCH   3   6
ENDBRANCH   1   4
BRANCH   1  12
ATOM     12  O   UNL     1       7.514   4.703  17.259  0.00  0.00    +0.000 OA
BRANCH  12  13
ATOM     13  C   UNL     1       7.150   4.601  15.980  0.00  0.00    +0.000 A 
ATOM     14  C   UNL     1       6.380   3.755  15.220  0.00  0.00    +0.000 A 
ATOM     15  C   UNL     1       6.521   4.229  13.890  0.00  0.00    +0.000 A 
ATOM     16  N   UNL     1       7.303   5.321  13.858  0.00  0.00    +0.000 NA
ATOM     17  O   UNL     1       7.679   5.558  15.171  0.00  0.00    +0.000 OA
BRANCH  15  18
ATOM     18  C   UNL     1       5.932   3.640  12.653  0.00  0.00    +0.000 C 
ATOM     19  F   UNL     1       6.130   2.294  12.589  0.00  0.00    +0.000 F 
ATOM     20  F   UNL     1       4.591   3.834  12.560  0.00  0.00    +0.000 F 
ATOM     21  F   UNL     1       6.486   4.157  11.522  0.00  0.00    +0.000 F 
ENDBRANCH  15  18
ENDBRANCH  12  13
ENDBRANCH   1  12
TORSDOF 5
ENDMDL
MODEL 2
REMARK VINA RESULT:      -8.4      0.155      1.333
REMARK  Name = 
REMARK  6 active torsions:
REMARK  status: ('A' for Active; 'I' for Inactive)
REMARK    1  A    between atoms: C_1  and  N_2
REMARK    2  A    between atoms: N_2  and  C_16
REMARK    3  A    between atoms: C_3  and  C_5
REMARK    4  A    between atoms: C_5  and  O_6
REMARK    5  A    between atoms: O_6  and  C_7
REMARK    6  A    between atoms: C_9  and  C_10
REMARK                            x       y       z     vdW  Elec       q    Type
REMARK                         _______ _______ _______ _____ _____    ______ ____
ROOT
ATOM      1  C   UNL     1       6.741   5.480  18.244  0.00  0.00    +0.000 C 
ENDROOT
BRANCH   1   4
ATOM      2  C   UNL     1       4.024   6.306  17.444  0.00  0.00    +0.000 C 
ATOM      3  N   UNL     1       4.218   5.217  18.407  0.00  0.00    +0.000 N 
ATOM      4  C   UNL     1       5.491   4.775  18.795  0.00  0.00    +0.000 C 
ATOM      5  O   UNL     1       5.703   3.808  19.538  0.00  0.00    +0.000 OA
BRANCH   3   6
ATOM      6  C   UNL     1       3.009   4.567  18.890  0.00  0.00    +0.000 A 
ATOM      7  C   UNL     1       2.431   4.875  20.133  0.00  0.00    +0.000 A 
ATOM      8  C   UNL     1       1.287   4.215  20.601  0.00  0.00    +0.000 A 
ATOM      9  C   UNL     1       0.682   3.233  19.831  0.00  0.00    +0.000 A 
ATOM     10  C   UNL     1       1.210   2.926  18.584  0.00  0.00    +0.000 A 
ATOM     11  C   UNL     1       2.353   3.589  18.118  0.00  0.00    +0.000 A 
ENDBRANCH   3   6
ENDBRANCH   1   4
BRANCH   1  12
ATOM     12  O   UNL     1       7.533   4.650  17.405  0.00  0.00    +0.000 OA
BRANCH  12  13
ATOM     13  C   UNL     1       7.154   4.595  16.128  0.00  0.00    +0.000 A 
ATOM     14  C   UNL     1       6.470   3.720  15.321  0.00  0.00    +0.000 A 
ATOM     15  C   UNL     1       6.524   4.299  14.027  0.00  0.00    +0.000 A 
ATOM     16  N   UNL     1       7.172   5.476  14.062  0.00  0.00    +0.000 NA
ATOM     17  O   UNL     1       7.548   5.663  15.383  0.00  0.00    +0.000 OA
BRANCH  15  18
ATOM     18  C   UNL     1       5.979   3.733  12.759  0.00  0.00    +0.000 C 
ATOM     19  F   UNL     1       6.592   4.262  11.663  0.00  0.00    +0.000 F 
ATOM     20  F   UNL     1       6.135   2.386  12.671  0.00  0.00    +0.000 F 
ATOM     21  F   UNL     1       4.652   3.989  12.608  0.00  0.00    +0.000 F 
ENDBRANCH  15  18
ENDBRANCH  12  13
ENDBRANCH   1  12
TORSDOF 5
ENDMDL
MODEL 3
REMARK VINA RESULT:      -8.1      3.103      6.431
REMARK  Name = 
REMARK  6 active torsions:
REMARK  status: ('A' for Active; 'I' for Inactive)
REMARK    1  A    between atoms: C_1  and  N_2
REMARK    2  A    between atoms: N_2  and  C_16
REMARK    3  A    between atoms: C_3  and  C_5
REMARK    4  A    between atoms: C_5  and  O_6
REMARK    5  A    between atoms: O_6  and  C_7
REMARK    6  A    between atoms: C_9  and  C_10
REMARK                            x       y       z     vdW  Elec       q    Type
REMARK                         _______ _______ _______ _____ _____    ______ ____
ROOT
ATOM      1  C   UNL     1       6.679   5.497  18.422  0.00  0.00    +0.000 C 
ENDROOT
BRANCH   1   4
ATOM      2  C   UNL     1       5.176   6.381  16.042  0.00  0.00    +0.000 C 
ATOM      3  N   UNL     1       6.246   5.387  15.920  0.00  0.00    +0.000 N 
ATOM      4  C   UNL     1       7.004   4.958  17.020  0.00  0.00    +0.000 C 
ATOM      5  O   UNL     1       7.968   4.186  16.951  0.00  0.00    +0.000 OA
BRANCH   3   6
ATOM      6  C   UNL     1       6.531   4.915  14.572  0.00  0.00    +0.000 A 
ATOM      7  C   UNL     1       7.566   5.449  13.789  0.00  0.00    +0.000 A 
ATOM      8  C   UNL     1       7.805   5.011  12.479  0.00  0.00    +0.000 A 
ATOM      9  C   UNL     1       7.018   4.013  11.921  0.00  0.00    +0.000 A 
ATOM     10  C   UNL     1       6.005   3.442  12.681  0.00  0.00    +0.000 A 
ATOM     11  C   UNL     1       5.771   3.883  13.990  0.00  0.00    +0.000 A 
ENDBRANCH   3   6
ENDBRANCH   1   4
BRANCH   1  12
ATOM     12  O   UNL     1       6.296   4.484  19.342  0.00  0.00    +0.000 OA
BRANCH  12  13
ATOM     13  C   UNL     1       5.040   4.050  19.229  0.00  0.00    +0.000 A 
ATOM     14  C   UNL     1       3.837   4.557  18.805  0.00  0.00    +0.000 A 
ATOM     15  C   UNL     1       2.897   3.525  19.058  0.00  0.00    +0.000 A 
ATOM     16  N   UNL     1       3.508   2.444  19.571  0.00  0.00    +0.000 NA
ATOM     17  O   UNL     1       4.851   2.774  19.659  0.00  0.00    +0.000 OA
BRANCH  15  18
ATOM     18  C   UNL     1       1.423   3.569  18.831  0.00  0.00    +0.000 C 
ATOM     19  F   UNL     1       0.895   2.321  18.688  0.00  0.00    +0.000 F 
ATOM     20  F   UNL     1       0.747   4.156  19.854  0.00  0.00    +0.000 F 
ATOM     21  F   UNL     1       1.096   4.249  17.699  0.00  0.00    +0.000 F 
ENDBRANCH  15  18
ENDBRANCH  12  13
ENDBRANCH   1  12
TORSDOF 5
ENDMDL
MODEL 4
REMARK VINA RESULT:      -7.9      2.941      6.230
REMARK  Name = 
REMARK  6 active torsions:
REMARK  status: ('A' for Active; 'I' for Inactive)
REMARK    1  A    between atoms: C_1  and  N_2
REMARK    2  A    between atoms: N_2  and  C_16
REMARK    3  A    between atoms: C_3  and  C_5
REMARK    4  A    between atoms: C_5  and  O_6
REMARK    5  A    between atoms: O_6  and  C_7
REMARK    6  A    between atoms: C_9  and  C_10
REMARK                            x       y       z     vdW  Elec       q    Type
REMARK                         _______ _______ _______ _____ _____    ______ ____
ROOT
ATOM      1  C   UNL     1       6.930   5.547  18.423  0.00  0.00    +0.000 C 
ENDROOT
BRANCH   1   4
ATOM      2  C   UNL     1       5.285   6.389  16.123  0.00  0.00    +0.000 C 
ATOM      3  N   UNL     1       6.340   5.384  15.956  0.00  0.00    +0.000 N 
ATOM      4  C   UNL     1       7.162   4.974  17.015  0.00  0.00    +0.000 C 
ATOM      5  O   UNL     1       8.116   4.193  16.903  0.00  0.00    +0.000 OA
BRANCH   3   6
ATOM      6  C   UNL     1       6.536   4.880  14.604  0.00  0.00    +0.000 A 
ATOM      7  C   UNL     1       7.552   5.358  13.761  0.00  0.00    +0.000 A 
ATOM      8  C   UNL     1       7.706   4.890  12.449  0.00  0.00    +0.000 A 
ATOM      9  C   UNL     1       6.851   3.919  11.948  0.00  0.00    +0.000 A 
ATOM     10  C   UNL     1       5.855   3.403  12.766  0.00  0.00    +0.000 A 
ATOM     11  C   UNL     1       5.705   3.873  14.078  0.00  0.00    +0.000 A 
ENDBRANCH   3   6
ENDBRANCH   1   4
BRANCH   1  12
ATOM     12  O   UNL     1       6.335   4.618  19.318  0.00  0.00    +0.000 OA
BRANCH  12  13
ATOM     13  C   UNL     1       5.018   4.453  19.184  0.00  0.00    +0.000 A 
ATOM     14  C   UNL     1       4.177   3.595  18.521  0.00  0.00    +0.000 A 
ATOM     15  C   UNL     1       2.872   4.088  18.782  0.00  0.00    +0.000 A 
ATOM     16  N   UNL     1       2.926   5.162  19.588  0.00  0.00    +0.000 NA
ATOM     17  O   UNL     1       4.270   5.374  19.850  0.00  0.00    +0.000 OA
BRANCH  15  18
ATOM     18  C   UNL     1       1.582   3.556  18.256  0.00  0.00    +0.000 C 
ATOM     19  F   UNL     1       0.651   3.418  19.242  0.00  0.00    +0.000 F 
ATOM     20  F   UNL     1       1.024   4.359  17.312  0.00  0.00    +0.000 F 
ATOM     21  F   UNL     1       1.723   2.324  17.695  0.00  0.00    +0.000 F 
ENDBRANCH  15  18
ENDBRANCH  12  13
ENDBRANCH   1  12
TORSDOF 5
ENDMDL
MODEL 5
REMARK VINA RESULT:      -7.9      3.143      6.425
REMARK  Name = 
REMARK  6 active torsions:
REMARK  status: ('A' for Active; 'I' for Inactive)
REMARK    1  A    between atoms: C_1  and  N_2
REMARK    2  A    between atoms: N_2  and  C_16
REMARK    3  A    between atoms: C_3  and  C_5
REMARK    4  A    between atoms: C_5  and  O_6
REMARK    5  A    between atoms: O_6  and  C_7
REMARK    6  A    between atoms: C_9  and  C_10
REMARK                            x       y       z     vdW  Elec       q    Type
REMARK                         _______ _______ _______ _____ _____    ______ ____
ROOT
ATOM      1  C   UNL     1       6.832   5.431  18.454  0.00  0.00    +0.000 C 
ENDROOT
BRANCH   1   4
ATOM      2  C   UNL     1       5.164   6.281  16.173  0.00  0.00    +0.000 C 
ATOM      3  N   UNL     1       6.262   5.329  15.979  0.00  0.00    +0.000 N 
ATOM      4  C   UNL     1       7.096   4.919  17.029  0.00  0.00    +0.000 C 
ATOM      5  O   UNL     1       8.084   4.184  16.896  0.00  0.00    +0.000 OA
BRANCH   3   6
ATOM      6  C   UNL     1       6.488   4.882  14.611  0.00  0.00    +0.000 A 
ATOM      7  C   UNL     1       5.704   3.888  14.004  0.00  0.00    +0.000 A 
ATOM      8  C   UNL     1       5.956   3.441  12.700  0.00  0.00    +0.000 A 
ATOM      9  C   UNL     1       6.995   3.988  11.962  0.00  0.00    +0.000 A 
ATOM     10  C   UNL     1       7.770   4.995  12.522  0.00  0.00    +0.000 A 
ATOM     11  C   UNL     1       7.514   5.440  13.826  0.00  0.00    +0.000 A 
ENDBRANCH   3   6
ENDBRANCH   1   4
BRANCH   1  12
ATOM     12  O   UNL     1       6.320   4.433  19.326  0.00  0.00    +0.000 OA
BRANCH  12  13
ATOM     13  C   UNL     1       4.992   4.325  19.360  0.00  0.00    +0.000 A 
ATOM     14  C   UNL     1       4.062   3.324  19.222  0.00  0.00    +0.000 A 
ATOM     15  C   UNL     1       2.806   3.979  19.297  0.00  0.00    +0.000 A 
ATOM     16  N   UNL     1       2.972   5.296  19.505  0.00  0.00    +0.000 NA
ATOM     17  O   UNL     1       4.342   5.502  19.561  0.00  0.00    +0.000 OA
BRANCH  15  18
ATOM     18  C   UNL     1       1.455   3.364  19.154  0.00  0.00    +0.000 C 
ATOM     19  F   UNL     1       1.504   2.006  19.250  0.00  0.00    +0.000 F 
ATOM     20  F   UNL     1       0.579   3.783  20.104  0.00  0.00    +0.000 F 
ATOM     21  F   UNL     1       0.890   3.636  17.947  0.00  0.00    +0.000 F 
ENDBRANCH  15  18
ENDBRANCH  12  13
ENDBRANCH   1  12
TORSDOF 5
ENDMDL
MODEL 6
REMARK VINA RESULT:      -7.9      3.333      6.591
REMARK  Name = 
REMARK  6 active torsions:
REMARK  status: ('A' for Active; 'I' for Inactive)
REMARK    1  A    between atoms: C_1  and  N_2
REMARK    2  A    between atoms: N_2  and  C_16
REMARK    3  A    between atoms: C_3  and  C_5
REMARK    4  A    between atoms: C_5  and  O_6
REMARK    5  A    between atoms: O_6  and  C_7
REMARK    6  A    between atoms: C_9  and  C_10
REMARK                            x       y       z     vdW  Elec       q    Type
REMARK                         _______ _______ _______ _____ _____    ______ ____
ROOT
ATOM      1  C   UNL     1       6.713   5.698  18.399  0.00  0.00    +0.000 C 
ENDROOT
BRANCH   1   4
ATOM      2  C   UNL     1       5.078   6.419  16.051  0.00  0.00    +0.000 C 
ATOM      3  N   UNL     1       6.182   5.462  15.925  0.00  0.00    +0.000 N 
ATOM      4  C   UNL     1       7.001   5.112  17.008  0.00  0.00    +0.000 C 
ATOM      5  O   UNL     1       7.993   4.376  16.930  0.00  0.00    +0.000 OA
BRANCH   3   6
ATOM      6  C   UNL     1       6.430   4.943  14.587  0.00  0.00    +0.000 A 
ATOM      7  C   UNL     1       5.637   3.940  14.008  0.00  0.00    +0.000 A 
ATOM      8  C   UNL     1       5.909   3.425  12.733  0.00  0.00    +0.000 A 
ATOM      9  C   UNL     1       6.981   3.910  11.997  0.00  0.00    +0.000 A 
ATOM     10  C   UNL     1       7.767   4.923  12.529  0.00  0.00    +0.000 A 
ATOM     11  C   UNL     1       7.490   5.437  13.803  0.00  0.00    +0.000 A 
ENDBRANCH   3   6
ENDBRANCH   1   4
BRANCH   1  12
ATOM     12  O   UNL     1       6.424   4.711  19.379  0.00  0.00    +0.000 OA
BRANCH  12  13
ATOM     13  C   UNL     1       5.152   4.314  19.438  0.00  0.00    +0.000 A 
ATOM     14  C   UNL     1       3.913   4.902  19.369  0.00  0.00    +0.000 A 
ATOM     15  C   UNL     1       2.995   3.845  19.600  0.00  0.00    +0.000 A 
ATOM     16  N   UNL     1       3.645   2.681  19.763  0.00  0.00    +0.000 NA
ATOM     17  O   UNL     1       4.994   2.979  19.643  0.00  0.00    +0.000 OA
BRANCH  15  18
ATOM     18  C   UNL     1       1.509   3.941  19.685  0.00  0.00    +0.000 C 
ATOM     19  F   UNL     1       0.965   2.850  20.295  0.00  0.00    +0.000 F 
ATOM     20  F   UNL     1       1.087   5.023  20.390  0.00  0.00    +0.000 F 
ATOM     21  F   UNL     1       0.926   4.016  18.458  0.00  0.00    +0.000 F 
ENDBRANCH  15  18
ENDBRANCH  12  13
ENDBRANCH   1  12
TORSDOF 5
ENDMDL
MODEL 7
REMARK VINA RESULT:      -7.6      3.631      6.919
REMARK  Name = 
REMARK  6 active torsions:
REMARK  status: ('A' for Active; 'I' for Inactive)
REMARK    1  A    between atoms: C_1  and  N_2
REMARK    2  A    between atoms: N_2  and  C_16
REMARK    3  A    between atoms: C_3  and  C_5
REMARK    4  A    between atoms: C_5  and  O_6
REMARK    5  A    between atoms: O_6  and  C_7
REMARK    6  A    between atoms: C_9  and  C_10
REMARK                            x       y       z     vdW  Elec       q    Type
REMARK                         _______ _______ _______ _____ _____    ______ ____
ROOT
ATOM      1  C   UNL     1       6.343   5.691  18.383  0.00  0.00    +0.000 C 
ENDROOT
BRANCH   1   4
ATOM      2  C   UNL     1       4.967   6.462  15.889  0.00  0.00    +0.000 C 
ATOM      3  N   UNL     1       6.069   5.495  15.863  0.00  0.00    +0.000 N 
ATOM      4  C   UNL     1       6.768   5.120  17.020  0.00  0.00    +0.000 C 
ATOM      5  O   UNL     1       7.754   4.373  17.034  0.00  0.00    +0.000 OA
BRANCH   3   6
ATOM      6  C   UNL     1       6.448   4.991  14.551  0.00  0.00    +0.000 A 
ATOM      7  C   UNL     1       7.519   5.528  13.818  0.00  0.00    +0.000 A 
ATOM      8  C   UNL     1       7.849   5.058  12.540  0.00  0.00    +0.000 A 
ATOM      9  C   UNL     1       7.122   4.026  11.963  0.00  0.00    +0.000 A 
ATOM     10  C   UNL     1       6.075   3.454  12.675  0.00  0.00    +0.000 A 
ATOM     11  C   UNL     1       5.749   3.925  13.953  0.00  0.00    +0.000 A 
ENDBRANCH   3   6
ENDBRANCH   1   4
BRANCH   1  12
ATOM     12  O   UNL     1       6.205   4.700  19.391  0.00  0.00    +0.000 OA
BRANCH  12  13
ATOM     13  C   UNL     1       4.962   4.266  19.605  0.00  0.00    +0.000 A 
ATOM     14  C   UNL     1       3.716   4.824  19.754  0.00  0.00    +0.000 A 
ATOM     15  C   UNL     1       2.859   3.730  20.042  0.00  0.00    +0.000 A 
ATOM     16  N   UNL     1       3.546   2.576  20.030  0.00  0.00    +0.000 NA
ATOM     17  O   UNL     1       4.857   2.917  19.739  0.00  0.00    +0.000 OA
BRANCH  15  18
ATOM     18  C   UNL     1       1.400   3.781  20.346  0.00  0.00    +0.000 C 
ATOM     19  F   UNL     1       0.980   5.050  20.607  0.00  0.00    +0.000 F 
ATOM     20  F   UNL     1       0.630   3.327  19.322  0.00  0.00    +0.000 F 
ATOM     21  F   UNL     1       1.076   3.043  21.442  0.00  0.00    +0.000 F 
ENDBRANCH  15  18
ENDBRANCH  12  13
ENDBRANCH   1  12
TORSDOF 5
ENDMDL
MODEL 8
REMARK VINA RESULT:      -7.6      1.281      1.672
REMARK  Name = 
REMARK  6 active torsions:
REMARK  status: ('A' for Active; 'I' for Inactive)
REMARK    1  A    between atoms: C_1  and  N_2
REMARK    2  A    between atoms: N_2  and  C_16
REMARK    3  A    between atoms: C_3  and  C_5
REMARK    4  A    between atoms: C_5  and  O_6
REMARK    5  A    between atoms: O_6  and  C_7
REMARK    6  A    between atoms: C_9  and  C_10
REMARK                            x       y       z     vdW  Elec       q    Type
REMARK                         _______ _______ _______ _____ _____    ______ ____
ROOT
ATOM      1  C   UNL     1       6.528   4.687  17.721  0.00  0.00    +0.000 C 
ENDROOT
BRANCH   1   4
ATOM      2  C   UNL     1       4.284   2.798  17.406  0.00  0.00    +0.000 C 
ATOM      3  N   UNL     1       4.355   3.682  18.573  0.00  0.00    +0.000 N 
ATOM      4  C   UNL     1       5.416   4.576  18.776  0.00  0.00    +0.000 C 
ATOM      5  O   UNL     1       5.560   5.279  19.784  0.00  0.00    +0.000 OA
BRANCH   3   6
ATOM      6  C   UNL     1       3.290   3.532  19.555  0.00  0.00    +0.000 A 
ATOM      7  C   UNL     1       3.399   2.673  20.660  0.00  0.00    +0.000 A 
ATOM      8  C   UNL     1       2.351   2.511  21.577  0.00  0.00    +0.000 A 
ATOM      9  C   UNL     1       1.168   3.217  21.419  0.00  0.00    +0.000 A 
ATOM     10  C   UNL     1       1.040   4.098  20.354  0.00  0.00    +0.000 A 
ATOM     11  C   UNL     1       2.090   4.259  19.440  0.00  0.00    +0.000 A 
ENDBRANCH   3   6
ENDBRANCH   1   4
BRANCH   1  12
ATOM     12  O   UNL     1       6.243   5.632  16.698  0.00  0.00    +0.000 OA
BRANCH  12  13
ATOM     13  C   UNL     1       6.381   5.187  15.449  0.00  0.00    +0.000 A 
ATOM     14  C   UNL     1       5.712   4.334  14.607  0.00  0.00    +0.000 A 
ATOM     15  C   UNL     1       6.506   4.282  13.433  0.00  0.00    +0.000 A 
ATOM     16  N   UNL     1       7.574   5.089  13.549  0.00  0.00    +0.000 NA
ATOM     17  O   UNL     1       7.480   5.665  14.806  0.00  0.00    +0.000 OA
BRANCH  15  18
ATOM     18  C   UNL     1       6.264   3.459  12.213  0.00  0.00    +0.000 C 
ATOM     19  F   UNL     1       7.344   3.455  11.382  0.00  0.00    +0.000 F 
ATOM     20  F   UNL     1       5.996   2.158  12.497  0.00  0.00    +0.000 F 
ATOM     21  F   UNL     1       5.221   3.926  11.474  0.00  0.00    +0.000 F 
ENDBRANCH  15  18
ENDBRANCH  12  13
ENDBRANCH   1  12
TORSDOF 5
ENDMDL
MODEL 9
REMARK VINA RESULT:      -7.6      2.707      5.968
REMARK  Name = 
REMARK  6 active torsions:
REMARK  status: ('A' for Active; 'I' for Inactive)
REMARK    1  A    between atoms: C_1  and  N_2
REMARK    2  A    between atoms: N_2  and  C_16
REMARK    3  A    between atoms: C_3  and  C_5
REMARK    4  A    between atoms: C_5  and  O_6
REMARK    5  A    between atoms: O_6  and  C_7
REMARK    6  A    between atoms: C_9  and  C_10
REMARK                            x       y       z     vdW  Elec       q    Type
REMARK                         _______ _______ _______ _____ _____    ______ ____
ROOT
ATOM      1  C   UNL     1       7.146   5.782  18.624  0.00  0.00    +0.000 C 
ENDROOT
BRANCH   1   4
ATOM      2  C   UNL     1       5.435   6.676  16.393  0.00  0.00    +0.000 C 
ATOM      3  N   UNL     1       6.377   5.567  16.211  0.00  0.00    +0.000 N 
ATOM      4  C   UNL     1       7.228   5.128  17.235  0.00  0.00    +0.000 C 
ATOM      5  O   UNL     1       8.095   4.255  17.103  0.00  0.00    +0.000 OA
BRANCH   3   6
ATOM      6  C   UNL     1       6.433   4.988  14.877  0.00  0.00    +0.000 A 
ATOM      7  C   UNL     1       5.447   4.114  14.392  0.00  0.00    +0.000 A 
ATOM      8  C   UNL     1       5.533   3.534  13.119  0.00  0.00    +0.000 A 
ATOM      9  C   UNL     1       6.606   3.824  12.289  0.00  0.00    +0.000 A 
ATOM     10  C   UNL     1       7.583   4.709  12.727  0.00  0.00    +0.000 A 
ATOM     11  C   UNL     1       7.493   5.287  14.000  0.00  0.00    +0.000 A 
ENDBRANCH   3   6
ENDBRANCH   1   4
BRANCH   1  12
ATOM     12  O   UNL     1       6.501   4.969  19.594  0.00  0.00    +0.000 OA
BRANCH  12  13
ATOM     13  C   UNL     1       5.246   4.619  19.308  0.00  0.00    +0.000 A 
ATOM     14  C   UNL     1       4.604   3.524  18.785  0.00  0.00    +0.000 A 
ATOM     15  C   UNL     1       3.242   3.909  18.694  0.00  0.00    +0.000 A 
ATOM     16  N   UNL     1       3.069   5.154  19.170  0.00  0.00    +0.000 NA
ATOM     17  O   UNL     1       4.325   5.585  19.568  0.00  0.00    +0.000 OA
BRANCH  15  18
ATOM     18  C   UNL     1       2.111   3.109  18.141  0.00  0.00    +0.000 C 
ATOM     19  F   UNL     1       0.935   3.797  18.184  0.00  0.00    +0.000 F 
ATOM     20  F   UNL     1       2.298   2.753  16.843  0.00  0.00    +0.000 F 
ATOM     21  F   UNL     1       1.902   1.961  18.840  0.00  0.00    +0.000 F 
ENDBRANCH  15  18
ENDBRANCH  12  13
ENDBRANCH   1  12
TORSDOF 5
ENDMDL
