MODEL 1
REMARK VINA RESULT:      -8.4      0.000      0.000
REMARK  Name = 
REMARK  4 active torsions:
REMARK  status: ('A' for Active; 'I' for Inactive)
REMARK    1  A    between atoms: C_1  and  C_2
REMARK    2  A    between atoms: N_4  and  C_5
REMARK    3  A    between atoms: C_8  and  C_9
REMARK    4  A    between atoms: C_15  and  C_16
REMARK                            x       y       z     vdW  Elec       q    Type
REMARK                         _______ _______ _______ _____ _____    ______ ____
ROOT
ATOM      1  C   UNL     1       6.620   5.239  15.873  0.00  0.00    +0.000 A 
ATOM      2  C   UNL     1       7.380   5.220  14.709  0.00  0.00    +0.000 A 
ATOM      3  N   UNL     1       7.127   4.503  13.606  0.00  0.00    +0.000 NA
ATOM      4  C   UNL     1       6.043   3.748  13.648  0.00  0.00    +0.000 A 
ATOM      5  N   UNL     1       5.712   3.072  12.497  0.00  0.00    +0.000 N 
ATOM      6  N   UNL     1       5.270   3.608  14.722  0.00  0.00    +0.000 NA
ATOM      7  C   UNL     1       5.549   4.353  15.830  0.00  0.00    +0.000 A 
ATOM      8  H   UNL     1       6.530   2.960  11.922  0.00  0.00    +0.000 HD
ATOM      9  H   UNL     1       5.164   2.246  12.715  0.00  0.00    +0.000 HD
ENDROOT
BRANCH   7  10
ATOM     10  C   UNL     1       4.482   4.243  16.837  0.00  0.00    +0.000 A 
ATOM     11  C   UNL     1       4.226   3.000  17.399  0.00  0.00    +0.000 A 
ATOM     12  N   UNL     1       3.101   3.113  18.155  0.00  0.00    +0.000 N 
ATOM     13  C   UNL     1       2.963   4.424  18.531  0.00  0.00    +0.000 A 
ATOM     14  C   UNL     1       2.272   4.985  19.611  0.00  0.00    +0.000 A 
ATOM     15 BR   UNL     1       1.534   3.895  20.967  0.00  0.00    +0.000 Br
ATOM     16  C   UNL     1       2.226   6.372  19.711  0.00  0.00    +0.000 A 
ATOM     17  C   UNL     1       2.796   7.160  18.711  0.00  0.00    +0.000 A 
ATOM     18  C   UNL     1       3.518   6.583  17.646  0.00  0.00    +0.000 A 
ATOM     19  C   UNL     1       3.680   5.181  17.588  0.00  0.00    +0.000 A 
ATOM     20  H   UNL     1       2.540   2.349  18.505  0.00  0.00    +0.000 HD
ENDBRANCH   7  10
BRANCH   1  24
ATOM     21  C   UNL     1       8.225   8.173  18.591  0.00  0.00    +0.000 A 
ATOM     22  C   UNL     1       7.454   8.572  17.497  0.00  0.00    +0.000 A 
ATOM     23  C   UNL     1       6.849   7.624  16.658  0.00  0.00    +0.000 A 
ATOM     24  C   UNL     1       6.970   6.254  16.899  0.00  0.00    +0.000 A 
ATOM     25  C   UNL     1       7.656   5.877  18.078  0.00  0.00    +0.000 A 
ATOM     26  C   UNL     1       8.300   6.816  18.890  0.00  0.00    +0.000 A 
BRANCH  21  30
ATOM     27  C   UNL     1      10.359  10.941  19.975  0.00  0.00    +0.000 C 
ATOM     28  C   UNL     1       9.295  10.374  19.074  0.00  0.00    +0.000 C 
ATOM     29  O   UNL     1       8.811  11.052  18.173  0.00  0.00    +0.000 OA
ATOM     30  N   UNL     1       8.996   9.058  19.371  0.00  0.00    +0.000 N 
ATOM     31  H   UNL     1       9.393   8.676  20.221  0.00  0.00    +0.000 HD
ENDBRANCH  21  30
ENDBRANCH   1  24
TORSDOF 3
ENDMDL
MODEL 2
REMARK VINA RESULT:      -7.9      3.549      6.047
REMARK  Name = 
REMARK  4 active torsions:
REMARK  status: ('A' for Active; 'I' for Inactive)
REMARK    1  A    between atoms: C_1  and  C_2
REMARK    2  A    between atoms: N_4  and  C_5
REMARK    3  A    between atoms: C_8  and  C_9
REMARK    4  A    between atoms: C_15  and  C_16
REMARK                            x       y       z     vdW  Elec       q    Type
REMARK                         _______ _______ _______ _____ _____    ______ ____
ROOT
ATOM      1  C   UNL     1       3.867   3.863  19.617  0.00  0.00    +0.000 A 
ATOM      2  C   UNL     1       3.816   2.596  20.188  0.00  0.00    +0.000 A 
ATOM      3  N   UNL     1       2.920   2.163  21.084  0.00  0.00    +0.000 NA
ATOM      4  C   UNL     1       2.001   3.041  21.447  0.00  0.00    +0.000 A 
ATOM      5  N   UNL     1       1.016   2.594  22.297  0.00  0.00    +0.000 N 
ATOM      6  N   UNL     1       1.977   4.309  21.044  0.00  0.00    +0.000 NA
ATOM      7  C   UNL     1       2.899   4.721  20.128  0.00  0.00    +0.000 A 
ATOM      8  H   UNL     1       1.344   1.787  22.801  0.00  0.00    +0.000 HD
ATOM      9  H   UNL     1       0.630   3.366  22.830  0.00  0.00    +0.000 HD
ENDROOT
BRANCH   7  10
ATOM     10  C   UNL     1       2.600   6.073  19.632  0.00  0.00    +0.000 A 
ATOM     11  C   UNL     1       2.582   6.288  18.261  0.00  0.00    +0.000 A 
ATOM     12  N   UNL     1       2.462   7.628  18.055  0.00  0.00    +0.000 N 
ATOM     13  C   UNL     1       1.867   8.183  19.158  0.00  0.00    +0.000 A 
ATOM     14  C   UNL     1       1.149   9.377  19.291  0.00  0.00    +0.000 A 
ATOM     15 BR   UNL     1       0.659  10.393  17.775  0.00  0.00    +0.000 Br
ATOM     16  C   UNL     1       0.721   9.745  20.562  0.00  0.00    +0.000 A 
ATOM     17  C   UNL     1       1.074   8.970  21.667  0.00  0.00    +0.000 A 
ATOM     18  C   UNL     1       1.769   7.753  21.515  0.00  0.00    +0.000 A 
ATOM     19  C   UNL     1       2.110   7.298  20.223  0.00  0.00    +0.000 A 
ATOM     20  H   UNL     1       2.641   8.115  17.188  0.00  0.00    +0.000 HD
ENDBRANCH   7  10
BRANCH   1  24
ATOM     21  C   UNL     1       6.267   4.964  16.212  0.00  0.00    +0.000 A 
ATOM     22  C   UNL     1       6.668   5.320  17.502  0.00  0.00    +0.000 A 
ATOM     23  C   UNL     1       5.946   4.889  18.625  0.00  0.00    +0.000 A 
ATOM     24  C   UNL     1       4.822   4.069  18.499  0.00  0.00    +0.000 A 
ATOM     25  C   UNL     1       4.505   3.626  17.193  0.00  0.00    +0.000 A 
ATOM     26  C   UNL     1       5.194   4.091  16.068  0.00  0.00    +0.000 A 
BRANCH  21  30
ATOM     27  C   UNL     1       7.898   5.601  12.886  0.00  0.00    +0.000 C 
ATOM     28  C   UNL     1       7.014   4.839  13.835  0.00  0.00    +0.000 C 
ATOM     29  O   UNL     1       6.556   3.744  13.522  0.00  0.00    +0.000 OA
ATOM     30  N   UNL     1       6.840   5.495  15.039  0.00  0.00    +0.000 N 
ATOM     31  H   UNL     1       7.183   6.446  15.099  0.00  0.00    +0.000 HD
ENDBRANCH  21  30
ENDBRANCH   1  24
TORSDOF 3
ENDMDL
MODEL 3
REMARK VINA RESULT:      -7.8      7.259     10.773
REMARK  Name = 
REMARK  4 active torsions:
REMARK  status: ('A' for Active; 'I' for Inactive)
REMARK    1  A    between atoms: C_1  and  C_2
REMARK    2  A    between atoms: N_4  and  C_5
REMARK    3  A    between atoms: C_8  and  C_9
REMARK    4  A    between atoms: C_15  and  C_16
REMARK                            x       y       z     vdW  Elec       q    Type
REMARK                         _______ _______ _______ _____ _____    ______ ____
ROOT
ATOM      1  C   UNL     1      -1.820  11.693  19.991  0.00  0.00    +0.000 A 
ATOM      2  C   UNL     1      -2.447  12.878  20.362  0.00  0.00    +0.000 A 
ATOM      3  N   UNL     1      -2.190  13.604  21.457  0.00  0.00    +0.000 NA
ATOM      4  C   UNL     1      -1.244  13.132  22.250  0.00  0.00    +0.000 A 
ATOM      5  N   UNL     1      -0.898  13.906  23.334  0.00  0.00    +0.000 N 
ATOM      6  N   UNL     1      -0.618  11.974  22.061  0.00  0.00    +0.000 NA
ATOM      7  C   UNL     1      -0.896  11.257  20.935  0.00  0.00    +0.000 A 
ATOM      8  H   UNL     1      -1.659  14.523  23.566  0.00  0.00    +0.000 HD
ATOM      9  H   UNL     1      -0.508  13.330  24.072  0.00  0.00    +0.000 HD
ENDROOT
BRANCH   7  10
ATOM     10  C   UNL     1       0.029  10.125  20.774  0.00  0.00    +0.000 A 
ATOM     11  C   UNL     1      -0.028   9.085  21.691  0.00  0.00    +0.000 A 
ATOM     12  N   UNL     1       1.023   8.257  21.443  0.00  0.00    +0.000 N 
ATOM     13  C   UNL     1       1.392   8.410  20.131  0.00  0.00    +0.000 A 
ATOM     14  C   UNL     1       2.084   7.539  19.282  0.00  0.00    +0.000 A 
ATOM     15 BR   UNL     1       2.456   5.761  19.803  0.00  0.00    +0.000 Br
ATOM     16  C   UNL     1       2.405   7.987  18.004  0.00  0.00    +0.000 A 
ATOM     17  C   UNL     1       2.102   9.296  17.630  0.00  0.00    +0.000 A 
ATOM     18  C   UNL     1       1.376  10.152  18.483  0.00  0.00    +0.000 A 
ATOM     19  C   UNL     1       0.936   9.680  19.739  0.00  0.00    +0.000 A 
ATOM     20  H   UNL     1       1.381   7.546  22.065  0.00  0.00    +0.000 HD
ENDBRANCH   7  10
BRANCH   1  24
ATOM     21  C   UNL     1      -3.270  10.402  16.144  0.00  0.00    +0.000 A 
ATOM     22  C   UNL     1      -2.450  11.528  16.247  0.00  0.00    +0.000 A 
ATOM     23  C   UNL     1      -1.896  11.905  17.480  0.00  0.00    +0.000 A 
ATOM     24  C   UNL     1      -2.119  11.158  18.639  0.00  0.00    +0.000 A 
ATOM     25  C   UNL     1      -2.855   9.959  18.487  0.00  0.00    +0.000 A 
ATOM     26  C   UNL     1      -3.447   9.605  17.271  0.00  0.00    +0.000 A 
BRANCH  21  30
ATOM     27  C   UNL     1      -4.540   9.771  12.663  0.00  0.00    +0.000 C 
ATOM     28  C   UNL     1      -3.473   9.841  13.723  0.00  0.00    +0.000 C 
ATOM     29  O   UNL     1      -2.287   9.736  13.425  0.00  0.00    +0.000 OA
ATOM     30  N   UNL     1      -3.993  10.063  14.983  0.00  0.00    +0.000 N 
ATOM     31  H   UNL     1      -5.000  10.005  15.083  0.00  0.00    +0.000 HD
ENDBRANCH  21  30
ENDBRANCH   1  24
TORSDOF 3
ENDMDL
MODEL 4
REMARK VINA RESULT:      -7.7      3.669      6.022
REMARK  Name = 
REMARK  4 active torsions:
REMARK  status: ('A' for Active; 'I' for Inactive)
REMARK    1  A    between atoms: C_1  and  C_2
REMARK    2  A    between atoms: N_4  and  C_5
REMARK    3  A    between atoms: C_8  and  C_9
REMARK    4  A    between atoms: C_15  and  C_16
REMARK                            x       y       z     vdW  Elec       q    Type
REMARK                         _______ _______ _______ _____ _____    ______ ____
ROOT
ATOM      1  C   UNL     1       3.775   4.781  19.390  0.00  0.00    +0.000 A 
ATOM      2  C   UNL     1       3.855   3.443  19.760  0.00  0.00    +0.000 A 
ATOM      3  N   UNL     1       2.991   2.780  20.539  0.00  0.00    +0.000 NA
ATOM      4  C   UNL     1       1.966   3.484  20.988  0.00  0.00    +0.000 A 
ATOM      5  N   UNL     1       1.016   2.804  21.715  0.00  0.00    +0.000 N 
ATOM      6  N   UNL     1       1.806   4.788  20.779  0.00  0.00    +0.000 NA
ATOM      7  C   UNL     1       2.699   5.437  19.979  0.00  0.00    +0.000 A 
ATOM      8  H   UNL     1       1.422   1.970  22.106  0.00  0.00    +0.000 HD
ATOM      9  H   UNL     1       0.527   3.437  22.340  0.00  0.00    +0.000 HD
ENDROOT
BRANCH   7  10
ATOM     10  C   UNL     1       2.258   6.808  19.678  0.00  0.00    +0.000 A 
ATOM     11  C   UNL     1       2.059   7.165  18.352  0.00  0.00    +0.000 A 
ATOM     12  N   UNL     1       1.832   8.506  18.315  0.00  0.00    +0.000 N 
ATOM     13  C   UNL     1       1.343   8.894  19.536  0.00  0.00    +0.000 A 
ATOM     14  C   UNL     1       0.575  10.010  19.887  0.00  0.00    +0.000 A 
ATOM     15 BR   UNL     1      -0.160  11.142  18.563  0.00  0.00    +0.000 Br
ATOM     16  C   UNL     1       0.283  10.209  21.232  0.00  0.00    +0.000 A 
ATOM     17  C   UNL     1       0.816   9.350  22.193  0.00  0.00    +0.000 A 
ATOM     18  C   UNL     1       1.561   8.211  21.824  0.00  0.00    +0.000 A 
ATOM     19  C   UNL     1       1.769   7.922  20.457  0.00  0.00    +0.000 A 
ATOM     20  H   UNL     1       1.873   9.095  17.495  0.00  0.00    +0.000 HD
ENDBRANCH   7  10
BRANCH   1  24
ATOM     21  C   UNL     1       6.406   5.633  16.085  0.00  0.00    +0.000 A 
ATOM     22  C   UNL     1       5.149   6.237  16.160  0.00  0.00    +0.000 A 
ATOM     23  C   UNL     1       4.321   6.041  17.275  0.00  0.00    +0.000 A 
ATOM     24  C   UNL     1       4.730   5.262  18.360  0.00  0.00    +0.000 A 
ATOM     25  C   UNL     1       6.051   4.757  18.313  0.00  0.00    +0.000 A 
ATOM     26  C   UNL     1       6.861   4.911  17.184  0.00  0.00    +0.000 A 
BRANCH  21  30
ATOM     27  C   UNL     1       8.262   4.925  12.894  0.00  0.00    +0.000 C 
ATOM     28  C   UNL     1       7.075   4.844  13.816  0.00  0.00    +0.000 C 
ATOM     29  O   UNL     1       6.134   4.100  13.559  0.00  0.00    +0.000 OA
ATOM     30  N   UNL     1       7.215   5.647  14.932  0.00  0.00    +0.000 N 
ATOM     31  H   UNL     1       7.995   6.293  14.939  0.00  0.00    +0.000 HD
ENDBRANCH  21  30
ENDBRANCH   1  24
TORSDOF 3
ENDMDL
MODEL 5
REMARK VINA RESULT:      -7.7      6.784      9.552
REMARK  Name = 
REMARK  4 active torsions:
REMARK  status: ('A' for Active; 'I' for Inactive)
REMARK    1  A    between atoms: C_1  and  C_2
REMARK    2  A    between atoms: N_4  and  C_5
REMARK    3  A    between atoms: C_8  and  C_9
REMARK    4  A    between atoms: C_15  and  C_16
REMARK                            x       y       z     vdW  Elec       q    Type
REMARK                         _______ _______ _______ _____ _____    ______ ____
ROOT
ATOM      1  C   UNL     1       1.293  11.944  18.703  0.00  0.00    +0.000 A 
ATOM      2  C   UNL     1       2.506  12.624  18.673  0.00  0.00    +0.000 A 
ATOM      3  N   UNL     1       2.673  13.952  18.662  0.00  0.00    +0.000 NA
ATOM      4  C   UNL     1       1.564  14.671  18.683  0.00  0.00    +0.000 A 
ATOM      5  N   UNL     1       1.710  16.037  18.764  0.00  0.00    +0.000 N 
ATOM      6  N   UNL     1       0.338  14.156  18.633  0.00  0.00    +0.000 NA
ATOM      7  C   UNL     1       0.198  12.800  18.650  0.00  0.00    +0.000 A 
ATOM      8  H   UNL     1       2.620  16.301  18.425  0.00  0.00    +0.000 HD
ATOM      9  H   UNL     1       0.899  16.504  18.371  0.00  0.00    +0.000 HD
ENDROOT
BRANCH   7  10
ATOM     10  C   UNL     1      -1.210  12.405  18.808  0.00  0.00    +0.000 A 
ATOM     11  C   UNL     1      -2.030  13.179  19.618  0.00  0.00    +0.000 A 
ATOM     12  N   UNL     1      -3.216  12.526  19.748  0.00  0.00    +0.000 N 
ATOM     13  C   UNL     1      -3.378  11.703  18.664  0.00  0.00    +0.000 A 
ATOM     14  C   UNL     1      -4.543  11.169  18.103  0.00  0.00    +0.000 A 
ATOM     15 BR   UNL     1      -6.251  11.735  18.681  0.00  0.00    +0.000 Br
ATOM     16  C   UNL     1      -4.411  10.282  17.039  0.00  0.00    +0.000 A 
ATOM     17  C   UNL     1      -3.142   9.894  16.611  0.00  0.00    +0.000 A 
ATOM     18  C   UNL     1      -1.977  10.464  17.163  0.00  0.00    +0.000 A 
ATOM     19  C   UNL     1      -2.088  11.455  18.163  0.00  0.00    +0.000 A 
ATOM     20  H   UNL     1      -3.927  12.716  20.441  0.00  0.00    +0.000 HD
ENDBRANCH   7  10
BRANCH   1  24
ATOM     21  C   UNL     1       2.023   7.780  19.534  0.00  0.00    +0.000 A 
ATOM     22  C   UNL     1       1.267   8.553  20.417  0.00  0.00    +0.000 A 
ATOM     23  C   UNL     1       0.944   9.884  20.114  0.00  0.00    +0.000 A 
ATOM     24  C   UNL     1       1.340  10.475  18.912  0.00  0.00    +0.000 A 
ATOM     25  C   UNL     1       2.003   9.638  17.984  0.00  0.00    +0.000 A 
ATOM     26  C   UNL     1       2.367   8.326  18.302  0.00  0.00    +0.000 A 
BRANCH  21  30
ATOM     27  C   UNL     1       2.771   4.112  19.875  0.00  0.00    +0.000 C 
ATOM     28  C   UNL     1       2.331   5.339  19.123  0.00  0.00    +0.000 C 
ATOM     29  O   UNL     1       1.833   5.244  18.006  0.00  0.00    +0.000 OA
ATOM     30  N   UNL     1       2.526   6.501  19.845  0.00  0.00    +0.000 N 
ATOM     31  H   UNL     1       3.060   6.425  20.703  0.00  0.00    +0.000 HD
ENDBRANCH  21  30
ENDBRANCH   1  24
TORSDOF 3
ENDMDL
MODEL 6
REMARK VINA RESULT:      -7.5      3.456      6.545
REMARK  Name = 
REMARK  4 active torsions:
REMARK  status: ('A' for Active; 'I' for Inactive)
REMARK    1  A    between atoms: C_1  and  C_2
REMARK    2  A    between atoms: N_4  and  C_5
REMARK    3  A    between atoms: C_8  and  C_9
REMARK    4  A    between atoms: C_15  and  C_16
REMARK                            x       y       z     vdW  Elec       q    Type
REMARK                         _______ _______ _______ _____ _____    ______ ____
ROOT
ATOM      1  C   UNL     1       2.426   5.008  20.086  0.00  0.00    +0.000 A 
ATOM      2  C   UNL     1       1.704   4.652  21.220  0.00  0.00    +0.000 A 
ATOM      3  N   UNL     1       1.758   3.477  21.860  0.00  0.00    +0.000 NA
ATOM      4  C   UNL     1       2.585   2.582  21.350  0.00  0.00    +0.000 A 
ATOM      5  N   UNL     1       2.726   1.400  22.040  0.00  0.00    +0.000 N 
ATOM      6  N   UNL     1       3.276   2.758  20.227  0.00  0.00    +0.000 NA
ATOM      7  C   UNL     1       3.206   3.965  19.598  0.00  0.00    +0.000 A 
ATOM      8  H   UNL     1       1.916   1.246  22.617  0.00  0.00    +0.000 HD
ATOM      9  H   UNL     1       3.018   0.656  21.415  0.00  0.00    +0.000 HD
ENDROOT
BRANCH   7  10
ATOM     10  C   UNL     1       4.188   4.063  18.507  0.00  0.00    +0.000 A 
ATOM     11  C   UNL     1       3.867   3.514  17.273  0.00  0.00    +0.000 A 
ATOM     12  N   UNL     1       4.981   3.571  16.494  0.00  0.00    +0.000 N 
ATOM     13  C   UNL     1       5.780   4.585  16.956  0.00  0.00    +0.000 A 
ATOM     14  C   UNL     1       6.772   5.321  16.299  0.00  0.00    +0.000 A 
ATOM     15 BR   UNL     1       7.030   5.161  14.433  0.00  0.00    +0.000 Br
ATOM     16  C   UNL     1       7.498   6.249  17.039  0.00  0.00    +0.000 A 
ATOM     17  C   UNL     1       7.277   6.369  18.411  0.00  0.00    +0.000 A 
ATOM     18  C   UNL     1       6.252   5.644  19.054  0.00  0.00    +0.000 A 
ATOM     19  C   UNL     1       5.423   4.785  18.300  0.00  0.00    +0.000 A 
ATOM     20  H   UNL     1       5.134   3.059  15.636  0.00  0.00    +0.000 HD
ENDBRANCH   7  10
BRANCH   1  24
ATOM     21  C   UNL     1       1.633   9.005  18.686  0.00  0.00    +0.000 A 
ATOM     22  C   UNL     1       1.634   8.724  20.054  0.00  0.00    +0.000 A 
ATOM     23  C   UNL     1       1.981   7.450  20.527  0.00  0.00    +0.000 A 
ATOM     24  C   UNL     1       2.364   6.427  19.656  0.00  0.00    +0.000 A 
ATOM     25  C   UNL     1       2.469   6.769  18.287  0.00  0.00    +0.000 A 
ATOM     26  C   UNL     1       2.079   8.023  17.807  0.00  0.00    +0.000 A 
BRANCH  21  30
ATOM     27  C   UNL     1       0.199  12.408  17.982  0.00  0.00    +0.000 C 
ATOM     28  C   UNL     1       1.017  11.420  18.771  0.00  0.00    +0.000 C 
ATOM     29  O   UNL     1       1.472  11.721  19.870  0.00  0.00    +0.000 OA
ATOM     30  N   UNL     1       1.136  10.201  18.131  0.00  0.00    +0.000 N 
ATOM     31  H   UNL     1       0.806  10.149  17.175  0.00  0.00    +0.000 HD
ENDBRANCH  21  30
ENDBRANCH   1  24
TORSDOF 3
ENDMDL
MODEL 7
REMARK VINA RESULT:      -7.5      3.377      4.792
REMARK  Name = 
REMARK  4 active torsions:
REMARK  status: ('A' for Active; 'I' for Inactive)
REMARK    1  A    between atoms: C_1  and  C_2
REMARK    2  A    between atoms: N_4  and  C_5
REMARK    3  A    between atoms: C_8  and  C_9
REMARK    4  A    between atoms: C_15  and  C_16
REMARK                            x       y       z     vdW  Elec       q    Type
REMARK                         _______ _______ _______ _____ _____    ______ ____
ROOT
ATOM      1  C   UNL     1       4.575   6.117  16.975  0.00  0.00    +0.000 A 
ATOM      2  C   UNL     1       5.169   6.585  15.807  0.00  0.00    +0.000 A 
ATOM      3  N   UNL     1       5.801   5.846  14.887  0.00  0.00    +0.000 NA
ATOM      4  C   UNL     1       5.856   4.548  15.130  0.00  0.00    +0.000 A 
ATOM      5  N   UNL     1       6.420   3.757  14.156  0.00  0.00    +0.000 N 
ATOM      6  N   UNL     1       5.401   3.976  16.242  0.00  0.00    +0.000 NA
ATOM      7  C   UNL     1       4.758   4.751  17.160  0.00  0.00    +0.000 A 
ATOM      8  H   UNL     1       7.032   4.312  13.581  0.00  0.00    +0.000 HD
ATOM      9  H   UNL     1       6.789   2.903  14.562  0.00  0.00    +0.000 HD
ENDROOT
BRANCH   7  10
ATOM     10  C   UNL     1       4.135   3.935  18.214  0.00  0.00    +0.000 A 
ATOM     11  C   UNL     1       4.879   3.630  19.345  0.00  0.00    +0.000 A 
ATOM     12  N   UNL     1       4.166   2.734  20.079  0.00  0.00    +0.000 N 
ATOM     13  C   UNL     1       2.838   2.882  19.770  0.00  0.00    +0.000 A 
ATOM     14  C   UNL     1       1.698   2.542  20.506  0.00  0.00    +0.000 A 
ATOM     15 BR   UNL     1       1.832   1.976  22.305  0.00  0.00    +0.000 Br
ATOM     16  C   UNL     1       0.455   2.727  19.910  0.00  0.00    +0.000 A 
ATOM     17  C   UNL     1       0.376   3.167  18.589  0.00  0.00    +0.000 A 
ATOM     18  C   UNL     1       1.530   3.536  17.870  0.00  0.00    +0.000 A 
ATOM     19  C   UNL     1       2.795   3.471  18.495  0.00  0.00    +0.000 A 
ATOM     20  H   UNL     1       4.525   2.160  20.829  0.00  0.00    +0.000 HD
ENDBRANCH   7  10
BRANCH   1  24
ATOM     21  C   UNL     1       1.689   8.636  18.948  0.00  0.00    +0.000 A 
ATOM     22  C   UNL     1       2.239   7.538  19.614  0.00  0.00    +0.000 A 
ATOM     23  C   UNL     1       3.247   6.766  19.018  0.00  0.00    +0.000 A 
ATOM     24  C   UNL     1       3.756   7.078  17.755  0.00  0.00    +0.000 A 
ATOM     25  C   UNL     1       3.266   8.261  17.152  0.00  0.00    +0.000 A 
ATOM     26  C   UNL     1       2.230   9.007  17.721  0.00  0.00    +0.000 A 
BRANCH  21  30
ATOM     27  C   UNL     1      -0.753  11.022  20.521  0.00  0.00    +0.000 C 
ATOM     28  C   UNL     1       0.542  10.662  19.843  0.00  0.00    +0.000 C 
ATOM     29  O   UNL     1       1.448  11.483  19.747  0.00  0.00    +0.000 OA
ATOM     30  N   UNL     1       0.565   9.350  19.410  0.00  0.00    +0.000 N 
ATOM     31  H   UNL     1      -0.306   8.835  19.454  0.00  0.00    +0.000 HD
ENDBRANCH  21  30
ENDBRANCH   1  24
TORSDOF 3
ENDMDL
MODEL 8
REMARK VINA RESULT:      -7.4      3.827      6.648
REMARK  Name = 
REMARK  4 active torsions:
REMARK  status: ('A' for Active; 'I' for Inactive)
REMARK    1  A    between atoms: C_1  and  C_2
REMARK    2  A    between atoms: N_4  and  C_5
REMARK    3  A    between atoms: C_8  and  C_9
REMARK    4  A    between atoms: C_15  and  C_16
REMARK                            x       y       z     vdW  Elec       q    Type
REMARK                         _______ _______ _______ _____ _____    ______ ____
ROOT
ATOM      1  C   UNL     1       2.280   5.411  18.687  0.00  0.00    +0.000 A 
ATOM      2  C   UNL     1       1.357   4.393  18.900  0.00  0.00    +0.000 A 
ATOM      3  N   UNL     1       1.477   3.117  18.514  0.00  0.00    +0.000 NA
ATOM      4  C   UNL     1       2.591   2.814  17.870  0.00  0.00    +0.000 A 
ATOM      5  N   UNL     1       2.780   1.491  17.542  0.00  0.00    +0.000 N 
ATOM      6  N   UNL     1       3.522   3.701  17.528  0.00  0.00    +0.000 NA
ATOM      7  C   UNL     1       3.376   4.993  17.938  0.00  0.00    +0.000 A 
ATOM      8  H   UNL     1       1.891   1.020  17.511  0.00  0.00    +0.000 HD
ATOM      9  H   UNL     1       3.394   1.408  16.739  0.00  0.00    +0.000 HD
ENDROOT
BRANCH   7  10
ATOM     10  C   UNL     1       4.585   5.786  17.667  0.00  0.00    +0.000 A 
ATOM     11  C   UNL     1       4.481   6.890  16.833  0.00  0.00    +0.000 A 
ATOM     12  N   UNL     1       5.741   7.347  16.595  0.00  0.00    +0.000 N 
ATOM     13  C   UNL     1       6.546   6.954  17.633  0.00  0.00    +0.000 A 
ATOM     14  C   UNL     1       7.754   7.491  18.090  0.00  0.00    +0.000 A 
ATOM     15 BR   UNL     1       8.408   9.132  17.417  0.00  0.00    +0.000 Br
ATOM     16  C   UNL     1       8.413   6.835  19.125  0.00  0.00    +0.000 A 
ATOM     17  C   UNL     1       7.903   5.636  19.624  0.00  0.00    +0.000 A 
ATOM     18  C   UNL     1       6.668   5.123  19.177  0.00  0.00    +0.000 A 
ATOM     19  C   UNL     1       5.923   5.835  18.212  0.00  0.00    +0.000 A 
ATOM     20  H   UNL     1       6.013   7.987  15.862  0.00  0.00    +0.000 HD
ENDBRANCH   7  10
BRANCH   1  24
ATOM     21  C   UNL     1       0.964   9.094  20.494  0.00  0.00    +0.000 A 
ATOM     22  C   UNL     1       1.159   7.955  21.278  0.00  0.00    +0.000 A 
ATOM     23  C   UNL     1       1.676   6.776  20.719  0.00  0.00    +0.000 A 
ATOM     24  C   UNL     1       2.038   6.706  19.371  0.00  0.00    +0.000 A 
ATOM     25  C   UNL     1       1.941   7.905  18.627  0.00  0.00    +0.000 A 
ATOM     26  C   UNL     1       1.384   9.068  19.168  0.00  0.00    +0.000 A 
BRANCH  21  30
ATOM     27  C   UNL     1      -0.975  11.725  22.351  0.00  0.00    +0.000 C 
ATOM     28  C   UNL     1      -0.030  10.558  22.252  0.00  0.00    +0.000 C 
ATOM     29  O   UNL     1       0.345   9.970  23.261  0.00  0.00    +0.000 OA
ATOM     30  N   UNL     1       0.296  10.250  20.945  0.00  0.00    +0.000 N 
ATOM     31  H   UNL     1       0.002  10.906  20.231  0.00  0.00    +0.000 HD
ENDBRANCH  21  30
ENDBRANCH   1  24
TORSDOF 3
ENDMDL
MODEL 9
REMARK VINA RESULT:      -7.4      3.051      4.399
REMARK  Name = 
REMARK  4 active torsions:
REMARK  status: ('A' for Active; 'I' for Inactive)
REMARK    1  A    between atoms: C_1  and  C_2
REMARK    2  A    between atoms: N_4  and  C_5
REMARK    3  A    between atoms: C_8  and  C_9
REMARK    4  A    between atoms: C_15  and  C_16
REMARK                            x       y       z     vdW  Elec       q    Type
REMARK                         _______ _______ _______ _____ _____    ______ ____
ROOT
ATOM      1  C   UNL     1       4.582   4.885  18.891  0.00  0.00    +0.000 A 
ATOM      2  C   UNL     1       4.774   3.511  18.976  0.00  0.00    +0.000 A 
ATOM      3  N   UNL     1       3.836   2.592  19.240  0.00  0.00    +0.000 NA
ATOM      4  C   UNL     1       2.615   3.058  19.435  0.00  0.00    +0.000 A 
ATOM      5  N   UNL     1       1.617   2.128  19.619  0.00  0.00    +0.000 N 
ATOM      6  N   UNL     1       2.303   4.351  19.462  0.00  0.00    +0.000 NA
ATOM      7  C   UNL     1       3.277   5.264  19.185  0.00  0.00    +0.000 A 
ATOM      8  H   UNL     1       2.016   1.263  19.943  0.00  0.00    +0.000 HD
ATOM      9  H   UNL     1       0.850   2.530  20.148  0.00  0.00    +0.000 HD
ENDROOT
BRANCH   7  10
ATOM     10  C   UNL     1       2.722   6.619  19.043  0.00  0.00    +0.000 A 
ATOM     11  C   UNL     1       2.535   7.130  17.767  0.00  0.00    +0.000 A 
ATOM     12  N   UNL     1       2.186   8.439  17.892  0.00  0.00    +0.000 N 
ATOM     13  C   UNL     1       1.623   8.619  19.130  0.00  0.00    +0.000 A 
ATOM     14  C   UNL     1       0.745   9.608  19.586  0.00  0.00    +0.000 A 
ATOM     15 BR   UNL     1      -0.047  10.836  18.386  0.00  0.00    +0.000 Br
ATOM     16  C   UNL     1       0.392   9.601  20.931  0.00  0.00    +0.000 A 
ATOM     17  C   UNL     1       0.970   8.672  21.796  0.00  0.00    +0.000 A 
ATOM     18  C   UNL     1       1.828   7.661  21.319  0.00  0.00    +0.000 A 
ATOM     19  C   UNL     1       2.106   7.574  19.937  0.00  0.00    +0.000 A 
ATOM     20  H   UNL     1       2.200   9.132  17.157  0.00  0.00    +0.000 HD
ENDBRANCH   7  10
BRANCH   1  24
ATOM     21  C   UNL     1       7.637   7.726  17.813  0.00  0.00    +0.000 A 
ATOM     22  C   UNL     1       7.899   6.735  18.761  0.00  0.00    +0.000 A 
ATOM     23  C   UNL     1       6.946   5.749  19.054  0.00  0.00    +0.000 A 
ATOM     24  C   UNL     1       5.717   5.702  18.391  0.00  0.00    +0.000 A 
ATOM     25  C   UNL     1       5.522   6.645  17.354  0.00  0.00    +0.000 A 
ATOM     26  C   UNL     1       6.449   7.657  17.092  0.00  0.00    +0.000 A 
BRANCH  21  30
ATOM     27  C   UNL     1       9.555  10.957  17.925  0.00  0.00    +0.000 C 
ATOM     28  C   UNL     1       8.911   9.744  18.540  0.00  0.00    +0.000 C 
ATOM     29  O   UNL     1       8.792   9.648  19.757  0.00  0.00    +0.000 OA
ATOM     30  N   UNL     1       8.472   8.840  17.592  0.00  0.00    +0.000 N 
ATOM     31  H   UNL     1       8.753   9.006  16.632  0.00  0.00    +0.000 HD
ENDBRANCH  21  30
ENDBRANCH   1  24
TORSDOF 3
ENDMDL
