MODEL 1
REMARK VINA RESULT:      -8.9      0.000      0.000
REMARK  Name = 
REMARK  5 active torsions:
REMARK  status: ('A' for Active; 'I' for Inactive)
REMARK    1  A    between atoms: C_1  and  O_2
REMARK    2  A    between atoms: O_2  and  C_3
REMARK    3  A    between atoms: C_6  and  C_7
REMARK    4  A    between atoms: C_12  and  C_14
REMARK    5  A    between atoms: C_17  and  N_18
REMARK                            x       y       z     vdW  Elec       q    Type
REMARK                         _______ _______ _______ _____ _____    ______ ____
ROOT
ATOM      1  C   UNL     1       3.421   5.475  18.667  0.00  0.00    +0.000 A 
ATOM      2  C   UNL     1       3.137   4.458  19.561  0.00  0.00    +0.000 A 
ATOM      3  S   UNL     1       2.179   5.064  20.854  0.00  0.00    +0.000 S 
ATOM      4  C   UNL     1       2.135   6.580  20.076  0.00  0.00    +0.000 A 
ATOM      5  N   UNL     1       1.385   7.526  20.724  0.00  0.00    +0.000 N 
ATOM      6  C   UNL     1       1.103   8.737  20.133  0.00  0.00    +0.000 C 
ATOM      7  O   UNL     1       1.396   9.069  18.989  0.00  0.00    +0.000 OA
ATOM      8  N   UNL     1       2.811   6.681  18.962  0.00  0.00    +0.000 NA
ATOM      9  H   UNL     1       1.068   7.285  21.647  0.00  0.00    +0.000 HD
ENDROOT
BRANCH   1  13
ATOM     10  C   UNL     1       5.871   4.981  15.194  0.00  0.00    +0.000 A 
ATOM     11  C   UNL     1       5.462   3.878  15.941  0.00  0.00    +0.000 A 
ATOM     12  C   UNL     1       4.649   4.043  17.066  0.00  0.00    +0.000 A 
ATOM     13  C   UNL     1       4.259   5.323  17.483  0.00  0.00    +0.000 A 
ATOM     14  C   UNL     1       4.682   6.428  16.730  0.00  0.00    +0.000 A 
ATOM     15  C   UNL     1       5.486   6.260  15.595  0.00  0.00    +0.000 A 
BRANCH  10  17
ATOM     16  C   UNL     1       6.174   3.702  13.231  0.00  0.00    +0.000 C 
ATOM     17  O   UNL     1       6.667   4.701  14.117  0.00  0.00    +0.000 OA
ENDBRANCH  10  17
ENDBRANCH   1  13
BRANCH   6  18
ATOM     18  C   UNL     1       0.375   9.733  20.974  0.00  0.00    +0.000 A 
ATOM     19  C   UNL     1      -0.055  10.906  20.343  0.00  0.00    +0.000 A 
ATOM     20  C   UNL     1      -0.735  11.897  21.054  0.00  0.00    +0.000 A 
ATOM     21  C   UNL     1      -1.003  11.760  22.424  0.00  0.00    +0.000 A 
ATOM     22  C   UNL     1      -0.578  10.569  23.043  0.00  0.00    +0.000 A 
ATOM     23  C   UNL     1       0.090   9.560  22.330  0.00  0.00    +0.000 A 
BRANCH  21  24
ATOM     24  N   UNL     1      -1.679  12.783  23.152  0.00  0.00    +0.000 N 
ATOM     25  C   UNL     1      -1.142  14.014  23.446  0.00  0.00    +0.000 C 
ATOM     26  O   UNL     1      -0.051  14.478  23.138  0.00  0.00    +0.000 OA
ATOM     27  C   UNL     1      -2.142  14.828  24.209  0.00  0.00    +0.000 C 
ATOM     28  C   UNL     1      -3.329  13.915  24.380  0.00  0.00    +0.000 C 
ATOM     29  C   UNL     1      -2.946  12.649  23.675  0.00  0.00    +0.000 C 
ATOM     30  O   UNL     1      -3.686  11.674  23.661  0.00  0.00    +0.000 OA
ENDBRANCH  21  24
ENDBRANCH   6  18
TORSDOF 4
ENDMDL
MODEL 2
REMARK VINA RESULT:      -8.8      0.314      1.687
REMARK  Name = 
REMARK  5 active torsions:
REMARK  status: ('A' for Active; 'I' for Inactive)
REMARK    1  A    between atoms: C_1  and  O_2
REMARK    2  A    between atoms: O_2  and  C_3
REMARK    3  A    between atoms: C_6  and  C_7
REMARK    4  A    between atoms: C_12  and  C_14
REMARK    5  A    between atoms: C_17  and  N_18
REMARK                            x       y       z     vdW  Elec       q    Type
REMARK                         _______ _______ _______ _____ _____    ______ ____
ROOT
ATOM      1  C   UNL     1       3.230   5.578  18.770  0.00  0.00    +0.000 A 
ATOM      2  C   UNL     1       2.884   4.543  19.621  0.00  0.00    +0.000 A 
ATOM      3  S   UNL     1       1.897   5.137  20.897  0.00  0.00    +0.000 S 
ATOM      4  C   UNL     1       1.925   6.678  20.166  0.00  0.00    +0.000 A 
ATOM      5  N   UNL     1       1.180   7.625  20.817  0.00  0.00    +0.000 N 
ATOM      6  C   UNL     1       0.955   8.861  20.256  0.00  0.00    +0.000 C 
ATOM      7  O   UNL     1       1.298   9.220  19.134  0.00  0.00    +0.000 OA
ATOM      8  N   UNL     1       2.644   6.792  19.081  0.00  0.00    +0.000 NA
ATOM      9  H   UNL     1       0.822   7.365  21.720  0.00  0.00    +0.000 HD
ENDROOT
BRANCH   1  13
ATOM     10  C   UNL     1       5.819   5.212  15.383  0.00  0.00    +0.000 A 
ATOM     11  C   UNL     1       5.653   6.438  16.024  0.00  0.00    +0.000 A 
ATOM     12  C   UNL     1       4.817   6.549  17.141  0.00  0.00    +0.000 A 
ATOM     13  C   UNL     1       4.106   5.438  17.612  0.00  0.00    +0.000 A 
ATOM     14  C   UNL     1       4.273   4.210  16.955  0.00  0.00    +0.000 A 
ATOM     15  C   UNL     1       5.120   4.098  15.846  0.00  0.00    +0.000 A 
BRANCH  10  17
ATOM     16  C   UNL     1       6.600   4.070  13.468  0.00  0.00    +0.000 C 
ATOM     17  O   UNL     1       6.656   5.223  14.300  0.00  0.00    +0.000 OA
ENDBRANCH  10  17
ENDBRANCH   1  13
BRANCH   6  18
ATOM     18  C   UNL     1       0.225   9.852  21.101  0.00  0.00    +0.000 A 
ATOM     19  C   UNL     1      -0.217  11.022  20.473  0.00  0.00    +0.000 A 
ATOM     20  C   UNL     1      -0.900  12.009  21.189  0.00  0.00    +0.000 A 
ATOM     21  C   UNL     1      -1.157  11.870  22.561  0.00  0.00    +0.000 A 
ATOM     22  C   UNL     1      -0.720  10.681  23.177  0.00  0.00    +0.000 A 
ATOM     23  C   UNL     1      -0.049   9.677  22.459  0.00  0.00    +0.000 A 
BRANCH  21  24
ATOM     24  N   UNL     1      -1.836  12.888  23.293  0.00  0.00    +0.000 N 
ATOM     25  C   UNL     1      -3.123  12.782  23.764  0.00  0.00    +0.000 C 
ATOM     26  O   UNL     1      -3.901  11.838  23.689  0.00  0.00    +0.000 OA
ATOM     27  C   UNL     1      -3.495  14.035  24.493  0.00  0.00    +0.000 C 
ATOM     28  C   UNL     1      -2.289  14.929  24.360  0.00  0.00    +0.000 C 
ATOM     29  C   UNL     1      -1.291  14.117  23.592  0.00  0.00    +0.000 C 
ATOM     30  O   UNL     1      -0.201  14.574  23.274  0.00  0.00    +0.000 OA
ENDBRANCH  21  24
ENDBRANCH   6  18
TORSDOF 4
ENDMDL
MODEL 3
REMARK VINA RESULT:      -8.6      0.439      1.333
REMARK  Name = 
REMARK  5 active torsions:
REMARK  status: ('A' for Active; 'I' for Inactive)
REMARK    1  A    between atoms: C_1  and  O_2
REMARK    2  A    between atoms: O_2  and  C_3
REMARK    3  A    between atoms: C_6  and  C_7
REMARK    4  A    between atoms: C_12  and  C_14
REMARK    5  A    between atoms: C_17  and  N_18
REMARK                            x       y       z     vdW  Elec       q    Type
REMARK                         _______ _______ _______ _____ _____    ______ ____
ROOT
ATOM      1  C   UNL     1       3.213   5.826  18.744  0.00  0.00    +0.000 A 
ATOM      2  C   UNL     1       2.851   4.845  19.650  0.00  0.00    +0.000 A 
ATOM      3  S   UNL     1       1.869   5.524  20.888  0.00  0.00    +0.000 S 
ATOM      4  C   UNL     1       1.920   7.020  20.072  0.00  0.00    +0.000 A 
ATOM      5  N   UNL     1       1.187   8.013  20.666  0.00  0.00    +0.000 N 
ATOM      6  C   UNL     1       0.980   9.219  20.035  0.00  0.00    +0.000 C 
ATOM      7  O   UNL     1       1.331   9.509  18.896  0.00  0.00    +0.000 OA
ATOM      8  N   UNL     1       2.644   7.064  18.984  0.00  0.00    +0.000 NA
ATOM      9  H   UNL     1       0.823   7.809  21.581  0.00  0.00    +0.000 HD
ENDROOT
BRANCH   1  13
ATOM     10  C   UNL     1       5.800   5.237  15.386  0.00  0.00    +0.000 A 
ATOM     11  C   UNL     1       5.498   6.521  15.838  0.00  0.00    +0.000 A 
ATOM     12  C   UNL     1       4.664   6.707  16.945  0.00  0.00    +0.000 A 
ATOM     13  C   UNL     1       4.090   5.609  17.599  0.00  0.00    +0.000 A 
ATOM     14  C   UNL     1       4.393   4.321  17.132  0.00  0.00    +0.000 A 
ATOM     15  C   UNL     1       5.238   4.136  16.031  0.00  0.00    +0.000 A 
BRANCH  10  17
ATOM     16  C   UNL     1       6.486   4.010  13.488  0.00  0.00    +0.000 C 
ATOM     17  O   UNL     1       6.621   5.175  14.294  0.00  0.00    +0.000 OA
ENDBRANCH  10  17
ENDBRANCH   1  13
BRANCH   6  18
ATOM     18  C   UNL     1       0.262  10.265  20.821  0.00  0.00    +0.000 A 
ATOM     19  C   UNL     1      -0.032   9.970  22.157  0.00  0.00    +0.000 A 
ATOM     20  C   UNL     1      -0.711  10.887  22.964  0.00  0.00    +0.000 A 
ATOM     21  C   UNL     1      -1.130  12.128  22.465  0.00  0.00    +0.000 A 
ATOM     22  C   UNL     1      -0.816  12.419  21.124  0.00  0.00    +0.000 A 
ATOM     23  C   UNL     1      -0.117  11.509  20.312  0.00  0.00    +0.000 A 
BRANCH  21  24
ATOM     24  N   UNL     1      -1.841  13.053  23.285  0.00  0.00    +0.000 N 
ATOM     25  C   UNL     1      -1.327  14.243  23.743  0.00  0.00    +0.000 C 
ATOM     26  O   UNL     1      -0.230  14.747  23.529  0.00  0.00    +0.000 OA
ATOM     27  C   UNL     1      -2.359  14.954  24.562  0.00  0.00    +0.000 C 
ATOM     28  C   UNL     1      -3.542  14.021  24.583  0.00  0.00    +0.000 C 
ATOM     29  C   UNL     1      -3.123  12.850  23.745  0.00  0.00    +0.000 C 
ATOM     30  O   UNL     1      -3.853  11.879  23.590  0.00  0.00    +0.000 OA
ENDBRANCH  21  24
ENDBRANCH   6  18
TORSDOF 4
ENDMDL
MODEL 4
REMARK VINA RESULT:      -8.5      0.729      1.533
REMARK  Name = 
REMARK  5 active torsions:
REMARK  status: ('A' for Active; 'I' for Inactive)
REMARK    1  A    between atoms: C_1  and  O_2
REMARK    2  A    between atoms: O_2  and  C_3
REMARK    3  A    between atoms: C_6  and  C_7
REMARK    4  A    between atoms: C_12  and  C_14
REMARK    5  A    between atoms: C_17  and  N_18
REMARK                            x       y       z     vdW  Elec       q    Type
REMARK                         _______ _______ _______ _____ _____    ______ ____
ROOT
ATOM      1  C   UNL     1       3.447   5.655  18.924  0.00  0.00    +0.000 A 
ATOM      2  C   UNL     1       2.956   4.583  19.647  0.00  0.00    +0.000 A 
ATOM      3  S   UNL     1       1.801   5.130  20.796  0.00  0.00    +0.000 S 
ATOM      4  C   UNL     1       1.969   6.709  20.175  0.00  0.00    +0.000 A 
ATOM      5  N   UNL     1       1.154   7.638  20.766  0.00  0.00    +0.000 N 
ATOM      6  C   UNL     1       1.041   8.911  20.255  0.00  0.00    +0.000 C 
ATOM      7  O   UNL     1       1.557   9.325  19.221  0.00  0.00    +0.000 OA
ATOM      8  N   UNL     1       2.846   6.866  19.219  0.00  0.00    +0.000 NA
ATOM      9  H   UNL     1       0.659   7.336  21.587  0.00  0.00    +0.000 HD
ENDROOT
BRANCH   1  13
ATOM     10  C   UNL     1       6.461   5.339  15.902  0.00  0.00    +0.000 A 
ATOM     11  C   UNL     1       5.360   4.484  15.904  0.00  0.00    +0.000 A 
ATOM     12  C   UNL     1       4.370   4.602  16.885  0.00  0.00    +0.000 A 
ATOM     13  C   UNL     1       4.484   5.558  17.903  0.00  0.00    +0.000 A 
ATOM     14  C   UNL     1       5.600   6.408  17.898  0.00  0.00    +0.000 A 
ATOM     15  C   UNL     1       6.584   6.298  16.907  0.00  0.00    +0.000 A 
BRANCH  10  17
ATOM     16  C   UNL     1       6.875   4.429  13.762  0.00  0.00    +0.000 C 
ATOM     17  O   UNL     1       7.367   5.130  14.899  0.00  0.00    +0.000 OA
ENDBRANCH  10  17
ENDBRANCH   1  13
BRANCH   6  18
ATOM     18  C   UNL     1       0.213   9.872  21.042  0.00  0.00    +0.000 A 
ATOM     19  C   UNL     1      -0.217  11.030  20.385  0.00  0.00    +0.000 A 
ATOM     20  C   UNL     1      -0.988  11.989  21.047  0.00  0.00    +0.000 A 
ATOM     21  C   UNL     1      -1.350  11.833  22.392  0.00  0.00    +0.000 A 
ATOM     22  C   UNL     1      -0.925  10.656  23.038  0.00  0.00    +0.000 A 
ATOM     23  C   UNL     1      -0.164   9.679  22.373  0.00  0.00    +0.000 A 
BRANCH  21  24
ATOM     24  N   UNL     1      -2.119  12.823  23.071  0.00  0.00    +0.000 N 
ATOM     25  C   UNL     1      -3.493  12.852  23.108  0.00  0.00    +0.000 C 
ATOM     26  O   UNL     1      -4.299  12.065  22.624  0.00  0.00    +0.000 OA
ATOM     27  C   UNL     1      -3.949  14.024  23.920  0.00  0.00    +0.000 C 
ATOM     28  C   UNL     1      -2.679  14.727  24.327  0.00  0.00    +0.000 C 
ATOM     29  C   UNL     1      -1.576  13.892  23.749  0.00  0.00    +0.000 C 
ATOM     30  O   UNL     1      -0.401  14.214  23.866  0.00  0.00    +0.000 OA
ENDBRANCH  21  24
ENDBRANCH   6  18
TORSDOF 4
ENDMDL
MODEL 5
REMARK VINA RESULT:      -8.4      0.897      1.856
REMARK  Name = 
REMARK  5 active torsions:
REMARK  status: ('A' for Active; 'I' for Inactive)
REMARK    1  A    between atoms: C_1  and  O_2
REMARK    2  A    between atoms: O_2  and  C_3
REMARK    3  A    between atoms: C_6  and  C_7
REMARK    4  A    between atoms: C_12  and  C_14
REMARK    5  A    between atoms: C_17  and  N_18
REMARK                            x       y       z     vdW  Elec       q    Type
REMARK                         _______ _______ _______ _____ _____    ______ ____
ROOT
ATOM      1  C   UNL     1       3.309   6.054  19.009  0.00  0.00    +0.000 A 
ATOM      2  C   UNL     1       2.833   5.032  19.810  0.00  0.00    +0.000 A 
ATOM      3  S   UNL     1       1.692   5.652  20.937  0.00  0.00    +0.000 S 
ATOM      4  C   UNL     1       1.846   7.186  20.208  0.00  0.00    +0.000 A 
ATOM      5  N   UNL     1       1.035   8.150  20.746  0.00  0.00    +0.000 N 
ATOM      6  C   UNL     1       0.910   9.386  20.152  0.00  0.00    +0.000 C 
ATOM      7  O   UNL     1       1.409   9.730  19.085  0.00  0.00    +0.000 OA
ATOM      8  N   UNL     1       2.707   7.280  19.230  0.00  0.00    +0.000 NA
ATOM      9  H   UNL     1       0.553   7.904  21.593  0.00  0.00    +0.000 HD
ENDROOT
BRANCH   1  13
ATOM     10  C   UNL     1       6.321   5.530  16.015  0.00  0.00    +0.000 A 
ATOM     11  C   UNL     1       6.267   4.691  17.127  0.00  0.00    +0.000 A 
ATOM     12  C   UNL     1       5.271   4.857  18.095  0.00  0.00    +0.000 A 
ATOM     13  C   UNL     1       4.332   5.890  17.982  0.00  0.00    +0.000 A 
ATOM     14  C   UNL     1       4.399   6.735  16.864  0.00  0.00    +0.000 A 
ATOM     15  C   UNL     1       5.389   6.559  15.888  0.00  0.00    +0.000 A 
BRANCH  10  17
ATOM     16  C   UNL     1       6.974   4.568  13.958  0.00  0.00    +0.000 C 
ATOM     17  O   UNL     1       7.339   5.278  15.136  0.00  0.00    +0.000 OA
ENDBRANCH  10  17
ENDBRANCH   1  13
BRANCH   6  18
ATOM     18  C   UNL     1       0.089  10.395  20.884  0.00  0.00    +0.000 A 
ATOM     19  C   UNL     1      -0.227  10.113  22.218  0.00  0.00    +0.000 A 
ATOM     20  C   UNL     1      -1.000  10.996  22.976  0.00  0.00    +0.000 A 
ATOM     21  C   UNL     1      -1.494  12.189  22.429  0.00  0.00    +0.000 A 
ATOM     22  C   UNL     1      -1.156  12.469  21.091  0.00  0.00    +0.000 A 
ATOM     23  C   UNL     1      -0.364  11.593  20.328  0.00  0.00    +0.000 A 
BRANCH  21  24
ATOM     24  N   UNL     1      -2.299  13.078  23.200  0.00  0.00    +0.000 N 
ATOM     25  C   UNL     1      -3.667  12.997  23.305  0.00  0.00    +0.000 C 
ATOM     26  O   UNL     1      -4.435  12.176  22.817  0.00  0.00    +0.000 OA
ATOM     27  C   UNL     1      -4.167  14.085  24.204  0.00  0.00    +0.000 C 
ATOM     28  C   UNL     1      -2.934  14.862  24.588  0.00  0.00    +0.000 C 
ATOM     29  C   UNL     1      -1.804  14.148  23.911  0.00  0.00    +0.000 C 
ATOM     30  O   UNL     1      -0.651  14.555  23.988  0.00  0.00    +0.000 OA
ENDBRANCH  21  24
ENDBRANCH   6  18
TORSDOF 4
ENDMDL
MODEL 6
REMARK VINA RESULT:      -8.1      0.491      1.017
REMARK  Name = 
REMARK  5 active torsions:
REMARK  status: ('A' for Active; 'I' for Inactive)
REMARK    1  A    between atoms: C_1  and  O_2
REMARK    2  A    between atoms: O_2  and  C_3
REMARK    3  A    between atoms: C_6  and  C_7
REMARK    4  A    between atoms: C_12  and  C_14
REMARK    5  A    between atoms: C_17  and  N_18
REMARK                            x       y       z     vdW  Elec       q    Type
REMARK                         _______ _______ _______ _____ _____    ______ ____
ROOT
ATOM      1  C   UNL     1       3.260   5.505  18.654  0.00  0.00    +0.000 A 
ATOM      2  C   UNL     1       2.926   4.571  19.618  0.00  0.00    +0.000 A 
ATOM      3  S   UNL     1       1.989   5.313  20.854  0.00  0.00    +0.000 S 
ATOM      4  C   UNL     1       2.017   6.769  19.966  0.00  0.00    +0.000 A 
ATOM      5  N   UNL     1       1.308   7.792  20.536  0.00  0.00    +0.000 N 
ATOM      6  C   UNL     1       1.083   8.967  19.855  0.00  0.00    +0.000 C 
ATOM      7  O   UNL     1       1.396   9.200  18.691  0.00  0.00    +0.000 OA
ATOM      8  N   UNL     1       2.703   6.756  18.853  0.00  0.00    +0.000 NA
ATOM      9  H   UNL     1       0.975   7.634  21.471  0.00  0.00    +0.000 HD
ENDROOT
BRANCH   1  13
ATOM     10  C   UNL     1       5.701   4.648  15.245  0.00  0.00    +0.000 A 
ATOM     11  C   UNL     1       5.184   3.618  16.029  0.00  0.00    +0.000 A 
ATOM     12  C   UNL     1       4.374   3.904  17.133  0.00  0.00    +0.000 A 
ATOM     13  C   UNL     1       4.096   5.230  17.491  0.00  0.00    +0.000 A 
ATOM     14  C   UNL     1       4.628   6.259  16.701  0.00  0.00    +0.000 A 
ATOM     15  C   UNL     1       5.428   5.972  15.588  0.00  0.00    +0.000 A 
BRANCH  10  17
ATOM     16  C   UNL     1       7.497   5.170  13.801  0.00  0.00    +0.000 C 
ATOM     17  O   UNL     1       6.482   4.252  14.194  0.00  0.00    +0.000 OA
ENDBRANCH  10  17
ENDBRANCH   1  13
BRANCH   6  18
ATOM     18  C   UNL     1       0.396  10.054  20.613  0.00  0.00    +0.000 A 
ATOM     19  C   UNL     1       0.192   9.845  21.982  0.00  0.00    +0.000 A 
ATOM     20  C   UNL     1      -0.452  10.804  22.768  0.00  0.00    +0.000 A 
ATOM     21  C   UNL     1      -0.926  12.003  22.215  0.00  0.00    +0.000 A 
ATOM     22  C   UNL     1      -0.701  12.207  20.840  0.00  0.00    +0.000 A 
ATOM     23  C   UNL     1      -0.038  11.255  20.048  0.00  0.00    +0.000 A 
BRANCH  21  24
ATOM     24  N   UNL     1      -1.601  12.971  23.016  0.00  0.00    +0.000 N 
ATOM     25  C   UNL     1      -1.065  14.179  23.394  0.00  0.00    +0.000 C 
ATOM     26  O   UNL     1       0.024  14.665  23.115  0.00  0.00    +0.000 OA
ATOM     27  C   UNL     1      -2.063  14.935  24.216  0.00  0.00    +0.000 C 
ATOM     28  C   UNL     1      -3.248  14.010  24.328  0.00  0.00    +0.000 C 
ATOM     29  C   UNL     1      -2.865  12.798  23.533  0.00  0.00    +0.000 C 
ATOM     30  O   UNL     1      -3.604  11.825  23.453  0.00  0.00    +0.000 OA
ENDBRANCH  21  24
ENDBRANCH   6  18
TORSDOF 4
ENDMDL
MODEL 7
REMARK VINA RESULT:      -8.1      2.462     11.064
REMARK  Name = 
REMARK  5 active torsions:
REMARK  status: ('A' for Active; 'I' for Inactive)
REMARK    1  A    between atoms: C_1  and  O_2
REMARK    2  A    between atoms: O_2  and  C_3
REMARK    3  A    between atoms: C_6  and  C_7
REMARK    4  A    between atoms: C_12  and  C_14
REMARK    5  A    between atoms: C_17  and  N_18
REMARK                            x       y       z     vdW  Elec       q    Type
REMARK                         _______ _______ _______ _____ _____    ______ ____
ROOT
ATOM      1  C   UNL     1      -1.735  12.155  20.876  0.00  0.00    +0.000 A 
ATOM      2  C   UNL     1      -2.450  12.316  19.703  0.00  0.00    +0.000 A 
ATOM      3  S   UNL     1      -1.761  11.351  18.458  0.00  0.00    +0.000 S 
ATOM      4  C   UNL     1      -0.650  10.728  19.592  0.00  0.00    +0.000 A 
ATOM      5  N   UNL     1       0.200   9.780  19.088  0.00  0.00    +0.000 N 
ATOM      6  C   UNL     1       1.027   9.054  19.915  0.00  0.00    +0.000 C 
ATOM      7  O   UNL     1       1.045   9.101  21.141  0.00  0.00    +0.000 OA
ATOM      8  N   UNL     1      -0.723  11.215  20.803  0.00  0.00    +0.000 NA
ATOM      9  H   UNL     1       0.186   9.657  18.090  0.00  0.00    +0.000 HD
ENDROOT
BRANCH   1  13
ATOM     10  C   UNL     1      -2.511  14.278  24.510  0.00  0.00    +0.000 A 
ATOM     11  C   UNL     1      -1.315  14.462  23.818  0.00  0.00    +0.000 A 
ATOM     12  C   UNL     1      -1.073  13.777  22.623  0.00  0.00    +0.000 A 
ATOM     13  C   UNL     1      -2.013  12.869  22.118  0.00  0.00    +0.000 A 
ATOM     14  C   UNL     1      -3.210  12.685  22.825  0.00  0.00    +0.000 A 
ATOM     15  C   UNL     1      -3.457  13.381  24.015  0.00  0.00    +0.000 A 
BRANCH  10  17
ATOM     16  C   UNL     1      -1.445  15.613  26.142  0.00  0.00    +0.000 C 
ATOM     17  O   UNL     1      -2.637  14.996  25.667  0.00  0.00    +0.000 OA
ENDBRANCH  10  17
ENDBRANCH   1  13
BRANCH   6  18
ATOM     18  C   UNL     1       1.989   8.129  19.248  0.00  0.00    +0.000 A 
ATOM     19  C   UNL     1       2.473   8.511  17.991  0.00  0.00    +0.000 A 
ATOM     20  C   UNL     1       3.370   7.701  17.289  0.00  0.00    +0.000 A 
ATOM     21  C   UNL     1       3.808   6.475  17.810  0.00  0.00    +0.000 A 
ATOM     22  C   UNL     1       3.326   6.110  19.081  0.00  0.00    +0.000 A 
ATOM     23  C   UNL     1       2.438   6.928  19.801  0.00  0.00    +0.000 A 
BRANCH  21  24
ATOM     24  N   UNL     1       4.707   5.642  17.082  0.00  0.00    +0.000 N 
ATOM     25  C   UNL     1       5.946   6.036  16.634  0.00  0.00    +0.000 C 
ATOM     26  O   UNL     1       6.519   7.109  16.783  0.00  0.00    +0.000 OA
ATOM     27  C   UNL     1       6.609   4.897  15.923  0.00  0.00    +0.000 C 
ATOM     28  C   UNL     1       5.595   3.783  15.955  0.00  0.00    +0.000 C 
ATOM     29  C   UNL     1       4.430   4.345  16.713  0.00  0.00    +0.000 C 
ATOM     30  O   UNL     1       3.405   3.697  16.885  0.00  0.00    +0.000 OA
ENDBRANCH  21  24
ENDBRANCH   6  18
TORSDOF 4
ENDMDL
MODEL 8
REMARK VINA RESULT:      -7.9      0.886      1.128
REMARK  Name = 
REMARK  5 active torsions:
REMARK  status: ('A' for Active; 'I' for Inactive)
REMARK    1  A    between atoms: C_1  and  O_2
REMARK    2  A    between atoms: O_2  and  C_3
REMARK    3  A    between atoms: C_6  and  C_7
REMARK    4  A    between atoms: C_12  and  C_14
REMARK    5  A    between atoms: C_17  and  N_18
REMARK                            x       y       z     vdW  Elec       q    Type
REMARK                         _______ _______ _______ _____ _____    ______ ____
ROOT
ATOM      1  C   UNL     1       3.549   5.708  18.874  0.00  0.00    +0.000 A 
ATOM      2  C   UNL     1       3.115   4.680  19.691  0.00  0.00    +0.000 A 
ATOM      3  S   UNL     1       1.981   5.280  20.836  0.00  0.00    +0.000 S 
ATOM      4  C   UNL     1       2.082   6.812  20.094  0.00  0.00    +0.000 A 
ATOM      5  N   UNL     1       1.258   7.760  20.641  0.00  0.00    +0.000 N 
ATOM      6  C   UNL     1       1.090   8.987  20.042  0.00  0.00    +0.000 C 
ATOM      7  O   UNL     1       1.559   9.336  18.962  0.00  0.00    +0.000 OA
ATOM      8  N   UNL     1       2.922   6.920  19.099  0.00  0.00    +0.000 NA
ATOM      9  H   UNL     1       0.799   7.507  21.500  0.00  0.00    +0.000 HD
ENDROOT
BRANCH   1  13
ATOM     10  C   UNL     1       6.533   5.306  15.833  0.00  0.00    +0.000 A 
ATOM     11  C   UNL     1       6.712   6.191  16.895  0.00  0.00    +0.000 A 
ATOM     12  C   UNL     1       5.740   6.307  17.895  0.00  0.00    +0.000 A 
ATOM     13  C   UNL     1       4.555   5.562  17.828  0.00  0.00    +0.000 A 
ATOM     14  C   UNL     1       4.380   4.681  16.750  0.00  0.00    +0.000 A 
ATOM     15  C   UNL     1       5.360   4.556  15.757  0.00  0.00    +0.000 A 
BRANCH  10  17
ATOM     16  C   UNL     1       7.198   4.769  13.630  0.00  0.00    +0.000 C 
ATOM     17  O   UNL     1       7.545   5.279  14.913  0.00  0.00    +0.000 OA
ENDBRANCH  10  17
ENDBRANCH   1  13
BRANCH   6  18
ATOM     18  C   UNL     1       0.259   9.981  20.783  0.00  0.00    +0.000 A 
ATOM     19  C   UNL     1      -0.537  10.842  20.020  0.00  0.00    +0.000 A 
ATOM     20  C   UNL     1      -1.339  11.810  20.629  0.00  0.00    +0.000 A 
ATOM     21  C   UNL     1      -1.369  11.962  22.023  0.00  0.00    +0.000 A 
ATOM     22  C   UNL     1      -0.575  11.080  22.781  0.00  0.00    +0.000 A 
ATOM     23  C   UNL     1       0.220  10.092  22.175  0.00  0.00    +0.000 A 
BRANCH  21  24
ATOM     24  N   UNL     1      -2.172  12.965  22.641  0.00  0.00    +0.000 N 
ATOM     25  C   UNL     1      -2.000  14.318  22.467  0.00  0.00    +0.000 C 
ATOM     26  O   UNL     1      -1.191  14.912  21.764  0.00  0.00    +0.000 OA
ATOM     27  C   UNL     1      -3.031  15.061  23.258  0.00  0.00    +0.000 C 
ATOM     28  C   UNL     1      -3.815  13.988  23.970  0.00  0.00    +0.000 C 
ATOM     29  C   UNL     1      -3.204  12.698  23.513  0.00  0.00    +0.000 C 
ATOM     30  O   UNL     1      -3.590  11.618  23.942  0.00  0.00    +0.000 OA
ENDBRANCH  21  24
ENDBRANCH   6  18
TORSDOF 4
ENDMDL
MODEL 9
REMARK VINA RESULT:      -7.8      2.795      3.904
REMARK  Name = 
REMARK  5 active torsions:
REMARK  status: ('A' for Active; 'I' for Inactive)
REMARK    1  A    between atoms: C_1  and  O_2
REMARK    2  A    between atoms: O_2  and  C_3
REMARK    3  A    between atoms: C_6  and  C_7
REMARK    4  A    between atoms: C_12  and  C_14
REMARK    5  A    between atoms: C_17  and  N_18
REMARK                            x       y       z     vdW  Elec       q    Type
REMARK                         _______ _______ _______ _____ _____    ______ ____
ROOT
ATOM      1  C   UNL     1       2.128   7.625  19.079  0.00  0.00    +0.000 A 
ATOM      2  C   UNL     1       2.429   8.346  17.938  0.00  0.00    +0.000 A 
ATOM      3  S   UNL     1       1.750   9.921  18.042  0.00  0.00    +0.000 S 
ATOM      4  C   UNL     1       1.209   9.555  19.618  0.00  0.00    +0.000 A 
ATOM      5  N   UNL     1       0.572  10.589  20.251  0.00  0.00    +0.000 N 
ATOM      6  C   UNL     1       0.242  10.511  21.585  0.00  0.00    +0.000 C 
ATOM      7  O   UNL     1       0.535   9.597  22.350  0.00  0.00    +0.000 OA
ATOM      8  N   UNL     1       1.453   8.346  20.048  0.00  0.00    +0.000 NA
ATOM      9  H   UNL     1       0.358  11.392  19.684  0.00  0.00    +0.000 HD
ENDROOT
BRANCH   1  13
ATOM     10  C   UNL     1       3.258   3.543  19.690  0.00  0.00    +0.000 A 
ATOM     11  C   UNL     1       3.697   4.244  18.568  0.00  0.00    +0.000 A 
ATOM     12  C   UNL     1       3.337   5.583  18.381  0.00  0.00    +0.000 A 
ATOM     13  C   UNL     1       2.502   6.232  19.299  0.00  0.00    +0.000 A 
ATOM     14  C   UNL     1       2.058   5.516  20.421  0.00  0.00    +0.000 A 
ATOM     15  C   UNL     1       2.430   4.179  20.614  0.00  0.00    +0.000 A 
BRANCH  10  17
ATOM     16  C   UNL     1       3.525   1.479  18.572  0.00  0.00    +0.000 C 
ATOM     17  O   UNL     1       3.668   2.240  19.766  0.00  0.00    +0.000 OA
ENDBRANCH  10  17
ENDBRANCH   1  13
BRANCH   6  18
ATOM     18  C   UNL     1      -0.549  11.648  22.142  0.00  0.00    +0.000 A 
ATOM     19  C   UNL     1      -1.640  11.327  22.956  0.00  0.00    +0.000 A 
ATOM     20  C   UNL     1      -2.442  12.327  23.513  0.00  0.00    +0.000 A 
ATOM     21  C   UNL     1      -2.190  13.685  23.268  0.00  0.00    +0.000 A 
ATOM     22  C   UNL     1      -1.080  13.995  22.459  0.00  0.00    +0.000 A 
ATOM     23  C   UNL     1      -0.259  12.995  21.911  0.00  0.00    +0.000 A 
BRANCH  21  24
ATOM     24  N   UNL     1      -3.023  14.702  23.820  0.00  0.00    +0.000 N 
ATOM     25  C   UNL     1      -4.208  15.125  23.266  0.00  0.00    +0.000 C 
ATOM     26  O   UNL     1      -4.782  14.720  22.262  0.00  0.00    +0.000 OA
ATOM     27  C   UNL     1      -4.810  16.194  24.124  0.00  0.00    +0.000 C 
ATOM     28  C   UNL     1      -3.815  16.398  25.237  0.00  0.00    +0.000 C 
ATOM     29  C   UNL     1      -2.723  15.408  24.964  0.00  0.00    +0.000 C 
ATOM     30  O   UNL     1      -1.726  15.342  25.671  0.00  0.00    +0.000 OA
ENDBRANCH  21  24
ENDBRANCH   6  18
TORSDOF 4
ENDMDL
