MODEL 1
REMARK VINA RESULT:      -7.7      0.000      0.000
REMARK  Name = 
REMARK  10 active torsions:
REMARK  status: ('A' for Active; 'I' for Inactive)
REMARK    1  A    between atoms: C_1  and  C_2
REMARK    2  A    between atoms: C_2  and  S_3
REMARK    3  A    between atoms: S_3  and  C_4
REMARK    4  A    between atoms: C_7  and  C_8
REMARK    5  A    between atoms: C_9  and  C_10
REMARK    6  A    between atoms: C_12  and  O_13
REMARK    7  A    between atoms: O_13  and  C_14
REMARK    8  A    between atoms: C_17  and  O_18
REMARK    9  A    between atoms: O_18  and  C_19
REMARK   10  A    between atoms: N_20  and  C_21
REMARK                            x       y       z     vdW  Elec       q    Type
REMARK                         _______ _______ _______ _____ _____    ______ ____
ROOT
ATOM      1  C   UNL     1       4.693   5.866  17.952  0.00  0.00    +0.000 A 
ATOM      2  N   UNL     1       5.161   6.913  17.319  0.00  0.00    +0.000 NA
ATOM      3  N   UNL     1       4.156   7.837  17.235  0.00  0.00    +0.000 NA
ATOM      4  C   UNL     1       3.084   7.357  17.825  0.00  0.00    +0.000 A 
ATOM      5  N   UNL     1       3.337   6.043  18.248  0.00  0.00    +0.000 N 
ENDROOT
BRANCH   5   6
ATOM      6  C   UNL     1       2.424   5.085  18.826  0.00  0.00    +0.000 A 
ATOM      7  C   UNL     1       2.151   5.059  20.196  0.00  0.00    +0.000 A 
ATOM      8  C   UNL     1       1.332   4.074  20.747  0.00  0.00    +0.000 A 
ATOM      9  C   UNL     1       0.780   3.087  19.945  0.00  0.00    +0.000 A 
ATOM     10  C   UNL     1       1.017   3.104  18.581  0.00  0.00    +0.000 A 
ATOM     11  C   UNL     1       1.808   4.111  18.013  0.00  0.00    +0.000 A 
ENDBRANCH   5   6
BRANCH   4  12
ATOM     12  C   UNL     1       1.788   7.945  17.926  0.00  0.00    +0.000 C 
ATOM     13  C   UNL     1       1.629   9.284  17.886  0.00  0.00    +0.000 C 
BRANCH  13  14
ATOM     14  C   UNL     1       0.380  10.019  18.246  0.00  0.00    +0.000 A 
ATOM     15  C   UNL     1      -0.803   9.739  17.519  0.00  0.00    +0.000 A 
ATOM     16  C   UNL     1      -2.047  10.304  17.830  0.00  0.00    +0.000 A 
ATOM     17  C   UNL     1      -2.152  11.143  18.927  0.00  0.00    +0.000 A 
ATOM     18  C   UNL     1      -1.013  11.415  19.688  0.00  0.00    +0.000 A 
ATOM     19  C   UNL     1       0.243  10.871  19.363  0.00  0.00    +0.000 A 
BRANCH  16  20
ATOM     20  O   UNL     1      -3.066   9.938  16.995  0.00  0.00    +0.000 OA
ATOM     21  C   UNL     1      -3.317  10.782  15.877  0.00  0.00    +0.000 C 
ENDBRANCH  16  20
BRANCH  19  22
ATOM     22  O   UNL     1       1.181  11.174  20.314  0.00  0.00    +0.000 OA
ATOM     23  C   UNL     1       1.596  12.525  20.449  0.00  0.00    +0.000 C 
ENDBRANCH  19  22
ENDBRANCH  13  14
ENDBRANCH   4  12
BRANCH   1  24
ATOM     24  S   UNL     1       5.645   4.504  18.456  0.00  0.00    +0.000 S 
BRANCH  24  26
ATOM     25  C   UNL     1       7.901   5.765  19.174  0.00  0.00    +0.000 C 
ATOM     26  C   UNL     1       7.336   4.956  18.013  0.00  0.00    +0.000 C 
ENDBRANCH  24  26
ENDBRANCH   1  24
TORSDOF 7
ENDMDL
MODEL 2
REMARK VINA RESULT:      -7.6      1.202      3.083
REMARK  Name = 
REMARK  10 active torsions:
REMARK  status: ('A' for Active; 'I' for Inactive)
REMARK    1  A    between atoms: C_1  and  C_2
REMARK    2  A    between atoms: C_2  and  S_3
REMARK    3  A    between atoms: S_3  and  C_4
REMARK    4  A    between atoms: C_7  and  C_8
REMARK    5  A    between atoms: C_9  and  C_10
REMARK    6  A    between atoms: C_12  and  O_13
REMARK    7  A    between atoms: O_13  and  C_14
REMARK    8  A    between atoms: C_17  and  O_18
REMARK    9  A    between atoms: O_18  and  C_19
REMARK   10  A    between atoms: N_20  and  C_21
REMARK                            x       y       z     vdW  Elec       q    Type
REMARK                         _______ _______ _______ _____ _____    ______ ____
ROOT
ATOM      1  C   UNL     1       4.457   5.619  17.145  0.00  0.00    +0.000 A 
ATOM      2  N   UNL     1       4.825   6.706  16.514  0.00  0.00    +0.000 NA
ATOM      3  N   UNL     1       4.026   7.732  16.939  0.00  0.00    +0.000 NA
ATOM      4  C   UNL     1       3.180   7.271  17.834  0.00  0.00    +0.000 A 
ATOM      5  N   UNL     1       3.352   5.884  17.962  0.00  0.00    +0.000 N 
ENDROOT
BRANCH   5   6
ATOM      6  C   UNL     1       2.569   4.941  18.726  0.00  0.00    +0.000 A 
ATOM      7  C   UNL     1       1.658   4.073  18.118  0.00  0.00    +0.000 A 
ATOM      8  C   UNL     1       0.850   3.230  18.879  0.00  0.00    +0.000 A 
ATOM      9  C   UNL     1       0.925   3.244  20.263  0.00  0.00    +0.000 A 
ATOM     10  C   UNL     1       1.836   4.078  20.890  0.00  0.00    +0.000 A 
ATOM     11  C   UNL     1       2.677   4.902  20.132  0.00  0.00    +0.000 A 
ENDBRANCH   5   6
BRANCH   4  12
ATOM     12  C   UNL     1       2.127   7.965  18.499  0.00  0.00    +0.000 C 
ATOM     13  C   UNL     1       1.519   9.021  17.921  0.00  0.00    +0.000 C 
BRANCH  13  14
ATOM     14  C   UNL     1       0.607   9.981  18.611  0.00  0.00    +0.000 A 
ATOM     15  C   UNL     1       1.145  10.823  19.615  0.00  0.00    +0.000 A 
ATOM     16  C   UNL     1       0.402  11.818  20.263  0.00  0.00    +0.000 A 
ATOM     17  C   UNL     1      -0.912  12.033  19.884  0.00  0.00    +0.000 A 
ATOM     18  C   UNL     1      -1.468  11.244  18.873  0.00  0.00    +0.000 A 
ATOM     19  C   UNL     1      -0.733  10.226  18.240  0.00  0.00    +0.000 A 
BRANCH  16  20
ATOM     20  O   UNL     1       1.086  12.508  21.225  0.00  0.00    +0.000 OA
ATOM     21  C   UNL     1       2.070  13.432  20.778  0.00  0.00    +0.000 C 
ENDBRANCH  16  20
BRANCH  19  22
ATOM     22  O   UNL     1      -1.437   9.671  17.204  0.00  0.00    +0.000 OA
ATOM     23  C   UNL     1      -2.371  10.483  16.509  0.00  0.00    +0.000 C 
ENDBRANCH  19  22
ENDBRANCH  13  14
ENDBRANCH   4  12
BRANCH   1  24
ATOM     24  S   UNL     1       5.289   4.097  17.071  0.00  0.00    +0.000 S 
BRANCH  24  26
ATOM     25  C   UNL     1       6.162   3.937  14.541  0.00  0.00    +0.000 C 
ATOM     26  C   UNL     1       6.644   4.388  15.913  0.00  0.00    +0.000 C 
ENDBRANCH  24  26
ENDBRANCH   1  24
TORSDOF 7
ENDMDL
MODEL 3
REMARK VINA RESULT:      -7.5      0.843      1.330
REMARK  Name = 
REMARK  10 active torsions:
REMARK  status: ('A' for Active; 'I' for Inactive)
REMARK    1  A    between atoms: C_1  and  C_2
REMARK    2  A    between atoms: C_2  and  S_3
REMARK    3  A    between atoms: S_3  and  C_4
REMARK    4  A    between atoms: C_7  and  C_8
REMARK    5  A    between atoms: C_9  and  C_10
REMARK    6  A    between atoms: C_12  and  O_13
REMARK    7  A    between atoms: O_13  and  C_14
REMARK    8  A    between atoms: C_17  and  O_18
REMARK    9  A    between atoms: O_18  and  C_19
REMARK   10  A    between atoms: N_20  and  C_21
REMARK                            x       y       z     vdW  Elec       q    Type
REMARK                         _______ _______ _______ _____ _____    ______ ____
ROOT
ATOM      1  C   UNL     1       4.862   5.763  17.770  0.00  0.00    +0.000 A 
ATOM      2  N   UNL     1       5.300   6.811  17.119  0.00  0.00    +0.000 NA
ATOM      3  N   UNL     1       4.304   7.749  17.113  0.00  0.00    +0.000 NA
ATOM      4  C   UNL     1       3.267   7.276  17.767  0.00  0.00    +0.000 A 
ATOM      5  N   UNL     1       3.531   5.953  18.157  0.00  0.00    +0.000 N 
ENDROOT
BRANCH   5   6
ATOM      6  C   UNL     1       2.646   5.000  18.783  0.00  0.00    +0.000 A 
ATOM      7  C   UNL     1       1.924   4.063  18.039  0.00  0.00    +0.000 A 
ATOM      8  C   UNL     1       1.011   3.206  18.653  0.00  0.00    +0.000 A 
ATOM      9  C   UNL     1       0.789   3.276  20.020  0.00  0.00    +0.000 A 
ATOM     10  C   UNL     1       1.508   4.181  20.783  0.00  0.00    +0.000 A 
ATOM     11  C   UNL     1       2.455   5.019  20.181  0.00  0.00    +0.000 A 
ENDBRANCH   5   6
BRANCH   4  12
ATOM     12  C   UNL     1       1.989   7.878  17.961  0.00  0.00    +0.000 C 
ATOM     13  C   UNL     1       1.868   9.213  18.114  0.00  0.00    +0.000 C 
BRANCH  13  14
ATOM     14  C   UNL     1       0.641   9.922  18.585  0.00  0.00    +0.000 A 
ATOM     15  C   UNL     1      -0.441  10.074  17.684  0.00  0.00    +0.000 A 
ATOM     16  C   UNL     1      -1.668  10.644  18.047  0.00  0.00    +0.000 A 
ATOM     17  C   UNL     1      -1.867  11.040  19.358  0.00  0.00    +0.000 A 
ATOM     18  C   UNL     1      -0.834  10.874  20.284  0.00  0.00    +0.000 A 
ATOM     19  C   UNL     1       0.410  10.328  19.917  0.00  0.00    +0.000 A 
BRANCH  16  20
ATOM     20  O   UNL     1      -2.580  10.734  17.031  0.00  0.00    +0.000 OA
ATOM     21  C   UNL     1      -3.844  11.302  17.349  0.00  0.00    +0.000 C 
ENDBRANCH  16  20
BRANCH  19  22
ATOM     22  O   UNL     1       1.219  10.149  21.008  0.00  0.00    +0.000 OA
ATOM     23  C   UNL     1       1.051   8.976  21.789  0.00  0.00    +0.000 C 
ENDBRANCH  19  22
ENDBRANCH  13  14
ENDBRANCH   4  12
BRANCH   1  24
ATOM     24  S   UNL     1       5.827   4.383  18.193  0.00  0.00    +0.000 S 
BRANCH  24  26
ATOM     25  C   UNL     1       7.885   5.747  19.241  0.00  0.00    +0.000 C 
ATOM     26  C   UNL     1       7.529   4.953  17.991  0.00  0.00    +0.000 C 
ENDBRANCH  24  26
ENDBRANCH   1  24
TORSDOF 7
ENDMDL
MODEL 4
REMARK VINA RESULT:      -7.5      2.567      3.501
REMARK  Name = 
REMARK  10 active torsions:
REMARK  status: ('A' for Active; 'I' for Inactive)
REMARK    1  A    between atoms: C_1  and  C_2
REMARK    2  A    between atoms: C_2  and  S_3
REMARK    3  A    between atoms: S_3  and  C_4
REMARK    4  A    between atoms: C_7  and  C_8
REMARK    5  A    between atoms: C_9  and  C_10
REMARK    6  A    between atoms: C_12  and  O_13
REMARK    7  A    between atoms: O_13  and  C_14
REMARK    8  A    between atoms: C_17  and  O_18
REMARK    9  A    between atoms: O_18  and  C_19
REMARK   10  A    between atoms: N_20  and  C_21
REMARK                            x       y       z     vdW  Elec       q    Type
REMARK                         _______ _______ _______ _____ _____    ______ ____
ROOT
ATOM      1  C   UNL     1       5.464   5.069  15.558  0.00  0.00    +0.000 A 
ATOM      2  N   UNL     1       5.732   6.253  15.067  0.00  0.00    +0.000 NA
ATOM      3  N   UNL     1       5.226   7.189  15.927  0.00  0.00    +0.000 NA
ATOM      4  C   UNL     1       4.661   6.575  16.943  0.00  0.00    +0.000 A 
ATOM      5  N   UNL     1       4.709   5.188  16.730  0.00  0.00    +0.000 N 
ENDROOT
BRANCH   5   6
ATOM      6  C   UNL     1       4.108   4.131  17.508  0.00  0.00    +0.000 A 
ATOM      7  C   UNL     1       4.708   3.636  18.669  0.00  0.00    +0.000 A 
ATOM      8  C   UNL     1       4.157   2.559  19.361  0.00  0.00    +0.000 A 
ATOM      9  C   UNL     1       3.003   1.944  18.901  0.00  0.00    +0.000 A 
ATOM     10  C   UNL     1       2.376   2.429  17.765  0.00  0.00    +0.000 A 
ATOM     11  C   UNL     1       2.902   3.534  17.085  0.00  0.00    +0.000 A 
ENDBRANCH   5   6
BRANCH   4  12
ATOM     12  C   UNL     1       3.954   7.145  18.043  0.00  0.00    +0.000 C 
ATOM     13  C   UNL     1       2.639   7.428  17.950  0.00  0.00    +0.000 C 
BRANCH  13  14
ATOM     14  C   UNL     1       1.862   8.259  18.917  0.00  0.00    +0.000 A 
ATOM     15  C   UNL     1       1.188   9.407  18.434  0.00  0.00    +0.000 A 
ATOM     16  C   UNL     1       0.360  10.206  19.234  0.00  0.00    +0.000 A 
ATOM     17  C   UNL     1       0.143   9.844  20.552  0.00  0.00    +0.000 A 
ATOM     18  C   UNL     1       0.763   8.698  21.055  0.00  0.00    +0.000 A 
ATOM     19  C   UNL     1       1.617   7.909  20.263  0.00  0.00    +0.000 A 
BRANCH  16  20
ATOM     20  O   UNL     1      -0.178  11.290  18.596  0.00  0.00    +0.000 OA
ATOM     21  C   UNL     1      -1.581  11.481  18.725  0.00  0.00    +0.000 C 
ENDBRANCH  16  20
BRANCH  19  22
ATOM     22  O   UNL     1       2.011   6.776  20.926  0.00  0.00    +0.000 OA
ATOM     23  C   UNL     1       1.534   5.522  20.463  0.00  0.00    +0.000 C 
ENDBRANCH  19  22
ENDBRANCH  13  14
ENDBRANCH   4  12
BRANCH   1  24
ATOM     24  S   UNL     1       6.057   3.570  14.912  0.00  0.00    +0.000 S 
BRANCH  24  26
ATOM     25  C   UNL     1       5.627   3.251  12.284  0.00  0.00    +0.000 C 
ATOM     26  C   UNL     1       6.570   3.983  13.231  0.00  0.00    +0.000 C 
ENDBRANCH  24  26
ENDBRANCH   1  24
TORSDOF 7
ENDMDL
MODEL 5
REMARK VINA RESULT:      -7.5      2.649      3.797
REMARK  Name = 
REMARK  10 active torsions:
REMARK  status: ('A' for Active; 'I' for Inactive)
REMARK    1  A    between atoms: C_1  and  C_2
REMARK    2  A    between atoms: C_2  and  S_3
REMARK    3  A    between atoms: S_3  and  C_4
REMARK    4  A    between atoms: C_7  and  C_8
REMARK    5  A    between atoms: C_9  and  C_10
REMARK    6  A    between atoms: C_12  and  O_13
REMARK    7  A    between atoms: O_13  and  C_14
REMARK    8  A    between atoms: C_17  and  O_18
REMARK    9  A    between atoms: O_18  and  C_19
REMARK   10  A    between atoms: N_20  and  C_21
REMARK                            x       y       z     vdW  Elec       q    Type
REMARK                         _______ _______ _______ _____ _____    ______ ____
ROOT
ATOM      1  C   UNL     1       5.416   5.015  15.541  0.00  0.00    +0.000 A 
ATOM      2  N   UNL     1       5.681   6.222  15.108  0.00  0.00    +0.000 NA
ATOM      3  N   UNL     1       5.191   7.114  16.023  0.00  0.00    +0.000 NA
ATOM      4  C   UNL     1       4.640   6.450  17.014  0.00  0.00    +0.000 A 
ATOM      5  N   UNL     1       4.680   5.076  16.729  0.00  0.00    +0.000 N 
ENDROOT
BRANCH   5   6
ATOM      6  C   UNL     1       4.087   3.981  17.462  0.00  0.00    +0.000 A 
ATOM      7  C   UNL     1       2.879   3.399  17.070  0.00  0.00    +0.000 A 
ATOM      8  C   UNL     1       2.280   2.400  17.837  0.00  0.00    +0.000 A 
ATOM      9  C   UNL     1       2.867   1.972  19.017  0.00  0.00    +0.000 A 
ATOM     10  C   UNL     1       4.076   2.516  19.416  0.00  0.00    +0.000 A 
ATOM     11  C   UNL     1       4.704   3.493  18.633  0.00  0.00    +0.000 A 
ENDBRANCH   5   6
BRANCH   4  12
ATOM     12  C   UNL     1       3.953   6.964  18.153  0.00  0.00    +0.000 C 
ATOM     13  C   UNL     1       2.663   7.352  18.068  0.00  0.00    +0.000 C 
BRANCH  13  14
ATOM     14  C   UNL     1       1.928   8.143  19.098  0.00  0.00    +0.000 A 
ATOM     15  C   UNL     1       1.330   9.368  18.711  0.00  0.00    +0.000 A 
ATOM     16  C   UNL     1       0.544  10.145  19.572  0.00  0.00    +0.000 A 
ATOM     17  C   UNL     1       0.290   9.686  20.853  0.00  0.00    +0.000 A 
ATOM     18  C   UNL     1       0.834   8.465  21.259  0.00  0.00    +0.000 A 
ATOM     19  C   UNL     1       1.647   7.695  20.407  0.00  0.00    +0.000 A 
BRANCH  16  20
ATOM     20  O   UNL     1       0.080  11.311  19.027  0.00  0.00    +0.000 OA
ATOM     21  C   UNL     1       1.047  12.307  18.719  0.00  0.00    +0.000 C 
ENDBRANCH  16  20
BRANCH  19  22
ATOM     22  O   UNL     1       1.963   6.488  20.973  0.00  0.00    +0.000 OA
ATOM     23  C   UNL     1       1.397   5.311  20.416  0.00  0.00    +0.000 C 
ENDBRANCH  19  22
ENDBRANCH  13  14
ENDBRANCH   4  12
BRANCH   1  24
ATOM     24  S   UNL     1       5.993   3.549  14.810  0.00  0.00    +0.000 S 
BRANCH  24  26
ATOM     25  C   UNL     1       5.737   3.157  12.170  0.00  0.00    +0.000 C 
ATOM     26  C   UNL     1       6.491   4.048  13.148  0.00  0.00    +0.000 C 
ENDBRANCH  24  26
ENDBRANCH   1  24
TORSDOF 7
ENDMDL
MODEL 6
REMARK VINA RESULT:      -7.5      1.273      2.873
REMARK  Name = 
REMARK  10 active torsions:
REMARK  status: ('A' for Active; 'I' for Inactive)
REMARK    1  A    between atoms: C_1  and  C_2
REMARK    2  A    between atoms: C_2  and  S_3
REMARK    3  A    between atoms: S_3  and  C_4
REMARK    4  A    between atoms: C_7  and  C_8
REMARK    5  A    between atoms: C_9  and  C_10
REMARK    6  A    between atoms: C_12  and  O_13
REMARK    7  A    between atoms: O_13  and  C_14
REMARK    8  A    between atoms: C_17  and  O_18
REMARK    9  A    between atoms: O_18  and  C_19
REMARK   10  A    between atoms: N_20  and  C_21
REMARK                            x       y       z     vdW  Elec       q    Type
REMARK                         _______ _______ _______ _____ _____    ______ ____
ROOT
ATOM      1  C   UNL     1       4.457   5.851  17.621  0.00  0.00    +0.000 A 
ATOM      2  N   UNL     1       4.789   6.944  16.981  0.00  0.00    +0.000 NA
ATOM      3  N   UNL     1       3.877   7.912  17.301  0.00  0.00    +0.000 NA
ATOM      4  C   UNL     1       2.998   7.411  18.140  0.00  0.00    +0.000 A 
ATOM      5  N   UNL     1       3.269   6.047  18.333  0.00  0.00    +0.000 N 
ENDROOT
BRANCH   5   6
ATOM      6  C   UNL     1       2.502   5.066  19.065  0.00  0.00    +0.000 A 
ATOM      7  C   UNL     1       2.603   4.936  20.453  0.00  0.00    +0.000 A 
ATOM      8  C   UNL     1       1.919   3.928  21.131  0.00  0.00    +0.000 A 
ATOM      9  C   UNL     1       1.132   3.022  20.439  0.00  0.00    +0.000 A 
ATOM     10  C   UNL     1       0.997   3.143  19.066  0.00  0.00    +0.000 A 
ATOM     11  C   UNL     1       1.650   4.175  18.380  0.00  0.00    +0.000 A 
ENDBRANCH   5   6
BRANCH   4  12
ATOM     12  C   UNL     1       1.840   8.035  18.690  0.00  0.00    +0.000 C 
ATOM     13  C   UNL     1       1.379   9.201  18.193  0.00  0.00    +0.000 C 
BRANCH  13  14
ATOM     14  C   UNL     1       0.357  10.075  18.843  0.00  0.00    +0.000 A 
ATOM     15  C   UNL     1       0.743  10.849  19.964  0.00  0.00    +0.000 A 
ATOM     16  C   UNL     1      -0.108  11.767  20.594  0.00  0.00    +0.000 A 
ATOM     17  C   UNL     1      -1.376  11.974  20.080  0.00  0.00    +0.000 A 
ATOM     18  C   UNL     1      -1.780  11.254  18.953  0.00  0.00    +0.000 A 
ATOM     19  C   UNL     1      -0.939  10.311  18.335  0.00  0.00    +0.000 A 
BRANCH  16  20
ATOM     20  O   UNL     1       0.434  12.396  21.681  0.00  0.00    +0.000 OA
ATOM     21  C   UNL     1      -0.268  13.525  22.187  0.00  0.00    +0.000 C 
ENDBRANCH  16  20
BRANCH  19  22
ATOM     22  O   UNL     1      -1.497   9.821  17.183  0.00  0.00    +0.000 OA
ATOM     23  C   UNL     1      -2.512  10.582  16.547  0.00  0.00    +0.000 C 
ENDBRANCH  19  22
ENDBRANCH  13  14
ENDBRANCH   4  12
BRANCH   1  24
ATOM     24  S   UNL     1       5.412   4.402  17.672  0.00  0.00    +0.000 S 
BRANCH  24  26
ATOM     25  C   UNL     1       6.515   4.280  15.230  0.00  0.00    +0.000 C 
ATOM     26  C   UNL     1       5.311   3.744  15.993  0.00  0.00    +0.000 C 
ENDBRANCH  24  26
ENDBRANCH   1  24
TORSDOF 7
ENDMDL
MODEL 7
REMARK VINA RESULT:      -7.5      1.129      1.372
REMARK  Name = 
REMARK  10 active torsions:
REMARK  status: ('A' for Active; 'I' for Inactive)
REMARK    1  A    between atoms: C_1  and  C_2
REMARK    2  A    between atoms: C_2  and  S_3
REMARK    3  A    between atoms: S_3  and  C_4
REMARK    4  A    between atoms: C_7  and  C_8
REMARK    5  A    between atoms: C_9  and  C_10
REMARK    6  A    between atoms: C_12  and  O_13
REMARK    7  A    between atoms: O_13  and  C_14
REMARK    8  A    between atoms: C_17  and  O_18
REMARK    9  A    between atoms: O_18  and  C_19
REMARK   10  A    between atoms: N_20  and  C_21
REMARK                            x       y       z     vdW  Elec       q    Type
REMARK                         _______ _______ _______ _____ _____    ______ ____
ROOT
ATOM      1  C   UNL     1       4.476   5.780  17.628  0.00  0.00    +0.000 A 
ATOM      2  N   UNL     1       4.880   6.870  17.025  0.00  0.00    +0.000 NA
ATOM      3  N   UNL     1       3.951   7.848  17.257  0.00  0.00    +0.000 NA
ATOM      4  C   UNL     1       2.991   7.355  18.007  0.00  0.00    +0.000 A 
ATOM      5  N   UNL     1       3.227   5.988  18.223  0.00  0.00    +0.000 N 
ENDROOT
BRANCH   5   6
ATOM      6  C   UNL     1       2.384   5.015  18.876  0.00  0.00    +0.000 A 
ATOM      7  C   UNL     1       2.284   4.940  20.268  0.00  0.00    +0.000 A 
ATOM      8  C   UNL     1       1.530   3.940  20.882  0.00  0.00    +0.000 A 
ATOM      9  C   UNL     1       0.871   2.987  20.120  0.00  0.00    +0.000 A 
ATOM     10  C   UNL     1       0.936   3.054  18.738  0.00  0.00    +0.000 A 
ATOM     11  C   UNL     1       1.659   4.076  18.112  0.00  0.00    +0.000 A 
ENDBRANCH   5   6
BRANCH   4  12
ATOM     12  C   UNL     1       1.791   7.991  18.444  0.00  0.00    +0.000 C 
ATOM     13  C   UNL     1       1.486   9.243  18.046  0.00  0.00    +0.000 C 
BRANCH  13  14
ATOM     14  C   UNL     1       0.418  10.103  18.636  0.00  0.00    +0.000 A 
ATOM     15  C   UNL     1      -0.712  10.420  17.843  0.00  0.00    +0.000 A 
ATOM     16  C   UNL     1      -1.810  11.144  18.325  0.00  0.00    +0.000 A 
ATOM     17  C   UNL     1      -1.831  11.536  19.652  0.00  0.00    +0.000 A 
ATOM     18  C   UNL     1      -0.749  11.212  20.475  0.00  0.00    +0.000 A 
ATOM     19  C   UNL     1       0.369  10.510  19.987  0.00  0.00    +0.000 A 
BRANCH  16  20
ATOM     20  O   UNL     1      -2.791  11.378  17.400  0.00  0.00    +0.000 OA
ATOM     21  C   UNL     1      -3.456  10.240  16.865  0.00  0.00    +0.000 C 
ENDBRANCH  16  20
BRANCH  19  22
ATOM     22  O   UNL     1       1.243  10.200  20.995  0.00  0.00    +0.000 OA
ATOM     23  C   UNL     1       0.768   9.433  22.091  0.00  0.00    +0.000 C 
ENDBRANCH  19  22
ENDBRANCH  13  14
ENDBRANCH   4  12
BRANCH   1  24
ATOM     24  S   UNL     1       5.407   4.321  17.769  0.00  0.00    +0.000 S 
BRANCH  24  26
ATOM     25  C   UNL     1       6.066   3.906  15.203  0.00  0.00    +0.000 C 
ATOM     26  C   UNL     1       6.666   4.471  16.484  0.00  0.00    +0.000 C 
ENDBRANCH  24  26
ENDBRANCH   1  24
TORSDOF 7
ENDMDL
MODEL 8
REMARK VINA RESULT:      -7.4      1.628      2.971
REMARK  Name = 
REMARK  10 active torsions:
REMARK  status: ('A' for Active; 'I' for Inactive)
REMARK    1  A    between atoms: C_1  and  C_2
REMARK    2  A    between atoms: C_2  and  S_3
REMARK    3  A    between atoms: S_3  and  C_4
REMARK    4  A    between atoms: C_7  and  C_8
REMARK    5  A    between atoms: C_9  and  C_10
REMARK    6  A    between atoms: C_12  and  O_13
REMARK    7  A    between atoms: O_13  and  C_14
REMARK    8  A    between atoms: C_17  and  O_18
REMARK    9  A    between atoms: O_18  and  C_19
REMARK   10  A    between atoms: N_20  and  C_21
REMARK                            x       y       z     vdW  Elec       q    Type
REMARK                         _______ _______ _______ _____ _____    ______ ____
ROOT
ATOM      1  C   UNL     1       4.205   5.825  17.593  0.00  0.00    +0.000 A 
ATOM      2  N   UNL     1       4.473   6.953  16.983  0.00  0.00    +0.000 NA
ATOM      3  N   UNL     1       3.599   7.899  17.445  0.00  0.00    +0.000 NA
ATOM      4  C   UNL     1       2.809   7.349  18.341  0.00  0.00    +0.000 A 
ATOM      5  N   UNL     1       3.095   5.978  18.431  0.00  0.00    +0.000 N 
ENDROOT
BRANCH   5   6
ATOM      6  C   UNL     1       2.405   4.956  19.182  0.00  0.00    +0.000 A 
ATOM      7  C   UNL     1       2.587   4.801  20.559  0.00  0.00    +0.000 A 
ATOM      8  C   UNL     1       1.977   3.757  21.252  0.00  0.00    +0.000 A 
ATOM      9  C   UNL     1       1.184   2.837  20.584  0.00  0.00    +0.000 A 
ATOM     10  C   UNL     1       0.969   2.981  19.223  0.00  0.00    +0.000 A 
ATOM     11  C   UNL     1       1.547   4.049  18.525  0.00  0.00    +0.000 A 
ENDBRANCH   5   6
BRANCH   4  12
ATOM     12  C   UNL     1       1.713   7.938  19.038  0.00  0.00    +0.000 C 
ATOM     13  C   UNL     1       1.146   9.081  18.599  0.00  0.00    +0.000 C 
BRANCH  13  14
ATOM     14  C   UNL     1       0.190   9.926  19.374  0.00  0.00    +0.000 A 
ATOM     15  C   UNL     1       0.381  10.056  20.772  0.00  0.00    +0.000 A 
ATOM     16  C   UNL     1      -0.401  10.892  21.580  0.00  0.00    +0.000 A 
ATOM     17  C   UNL     1      -1.383  11.671  20.993  0.00  0.00    +0.000 A 
ATOM     18  C   UNL     1      -1.578  11.595  19.612  0.00  0.00    +0.000 A 
ATOM     19  C   UNL     1      -0.813  10.737  18.801  0.00  0.00    +0.000 A 
BRANCH  16  20
ATOM     20  O   UNL     1      -0.086  10.859  22.910  0.00  0.00    +0.000 OA
ATOM     21  C   UNL     1       0.027   9.577  23.514  0.00  0.00    +0.000 C 
ENDBRANCH  16  20
BRANCH  19  22
ATOM     22  O   UNL     1      -1.094  10.920  17.473  0.00  0.00    +0.000 OA
ATOM     23  C   UNL     1      -2.410  11.308  17.107  0.00  0.00    +0.000 C 
ENDBRANCH  19  22
ENDBRANCH  13  14
ENDBRANCH   4  12
BRANCH   1  24
ATOM     24  S   UNL     1       5.158   4.379  17.468  0.00  0.00    +0.000 S 
BRANCH  24  26
ATOM     25  C   UNL     1       6.867   4.502  15.405  0.00  0.00    +0.000 C 
ATOM     26  C   UNL     1       5.410   4.164  15.693  0.00  0.00    +0.000 C 
ENDBRANCH  24  26
ENDBRANCH   1  24
TORSDOF 7
ENDMDL
MODEL 9
REMARK VINA RESULT:      -7.4      0.994      2.853
REMARK  Name = 
REMARK  10 active torsions:
REMARK  status: ('A' for Active; 'I' for Inactive)
REMARK    1  A    between atoms: C_1  and  C_2
REMARK    2  A    between atoms: C_2  and  S_3
REMARK    3  A    between atoms: S_3  and  C_4
REMARK    4  A    between atoms: C_7  and  C_8
REMARK    5  A    between atoms: C_9  and  C_10
REMARK    6  A    between atoms: C_12  and  O_13
REMARK    7  A    between atoms: O_13  and  C_14
REMARK    8  A    between atoms: C_17  and  O_18
REMARK    9  A    between atoms: O_18  and  C_19
REMARK   10  A    between atoms: N_20  and  C_21
REMARK                            x       y       z     vdW  Elec       q    Type
REMARK                         _______ _______ _______ _____ _____    ______ ____
ROOT
ATOM      1  C   UNL     1       4.468   5.905  17.325  0.00  0.00    +0.000 A 
ATOM      2  N   UNL     1       4.736   6.978  16.624  0.00  0.00    +0.000 NA
ATOM      3  N   UNL     1       3.802   7.928  16.936  0.00  0.00    +0.000 NA
ATOM      4  C   UNL     1       2.975   7.436  17.831  0.00  0.00    +0.000 A 
ATOM      5  N   UNL     1       3.302   6.093  18.075  0.00  0.00    +0.000 N 
ENDROOT
BRANCH   5   6
ATOM      6  C   UNL     1       2.600   5.122  18.880  0.00  0.00    +0.000 A 
ATOM      7  C   UNL     1       1.687   4.222  18.323  0.00  0.00    +0.000 A 
ATOM      8  C   UNL     1       0.957   3.348  19.128  0.00  0.00    +0.000 A 
ATOM      9  C   UNL     1       1.111   3.364  20.505  0.00  0.00    +0.000 A 
ATOM     10  C   UNL     1       2.025   4.231  21.080  0.00  0.00    +0.000 A 
ATOM     11  C   UNL     1       2.790   5.086  20.277  0.00  0.00    +0.000 A 
ENDBRANCH   5   6
BRANCH   4  12
ATOM     12  C   UNL     1       1.816   8.045  18.398  0.00  0.00    +0.000 C 
ATOM     13  C   UNL     1       1.408   9.267  17.997  0.00  0.00    +0.000 C 
BRANCH  13  14
ATOM     14  C   UNL     1       0.391  10.111  18.690  0.00  0.00    +0.000 A 
ATOM     15  C   UNL     1       0.807  10.915  19.780  0.00  0.00    +0.000 A 
ATOM     16  C   UNL     1      -0.044  11.809  20.444  0.00  0.00    +0.000 A 
ATOM     17  C   UNL     1      -1.345  11.960  19.997  0.00  0.00    +0.000 A 
ATOM     18  C   UNL     1      -1.782  11.209  18.903  0.00  0.00    +0.000 A 
ATOM     19  C   UNL     1      -0.939  10.290  18.251  0.00  0.00    +0.000 A 
BRANCH  16  20
ATOM     20  O   UNL     1       0.531  12.474  21.492  0.00  0.00    +0.000 OA
ATOM     21  C   UNL     1      -0.282  13.415  22.181  0.00  0.00    +0.000 C 
ENDBRANCH  16  20
BRANCH  19  22
ATOM     22  O   UNL     1      -1.539   9.763  17.138  0.00  0.00    +0.000 OA
ATOM     23  C   UNL     1      -2.900  10.081  16.889  0.00  0.00    +0.000 C 
ENDBRANCH  19  22
ENDBRANCH  13  14
ENDBRANCH   4  12
BRANCH   1  24
ATOM     24  S   UNL     1       5.476   4.493  17.404  0.00  0.00    +0.000 S 
BRANCH  24  26
ATOM     25  C   UNL     1       7.574   5.751  18.504  0.00  0.00    +0.000 C 
ATOM     26  C   UNL     1       6.487   4.751  18.878  0.00  0.00    +0.000 C 
ENDBRANCH  24  26
ENDBRANCH   1  24
TORSDOF 7
ENDMDL
