MODEL 1
REMARK VINA RESULT:      -8.6      0.000      0.000
REMARK  Name = 
REMARK  7 active torsions:
REMARK  status: ('A' for Active; 'I' for Inactive)
REMARK    1  A    between atoms: C_1  and  C_2
REMARK    2  A    between atoms: C_5  and  S_6
REMARK    3  A    between atoms: S_6  and  N_9
REMARK    4  A    between atoms: N_9  and  C_10
REMARK    5  A    between atoms: C_14  and  C_15
REMARK    6  A    between atoms: N_20  and  C_21
REMARK    7  A    between atoms: C_26  and  O_27
REMARK                            x       y       z     vdW  Elec       q    Type
REMARK                         _______ _______ _______ _____ _____    ______ ____
ROOT
ATOM      1  C   UNL     1       2.314   7.189  19.673  0.00  0.00    +0.000 A 
ATOM      2  C   UNL     1       2.655   7.288  18.325  0.00  0.00    +0.000 A 
ATOM      3  C   UNL     1       2.380   8.465  17.631  0.00  0.00    +0.000 A 
ATOM      4  C   UNL     1       1.758   9.531  18.285  0.00  0.00    +0.000 A 
ATOM      5  C   UNL     1       1.316   9.391  19.605  0.00  0.00    +0.000 A 
ATOM      6  C   UNL     1       1.632   8.224  20.309  0.00  0.00    +0.000 A 
ENDROOT
BRANCH   5   7
ATOM      7  C   UNL     1       0.602  10.469  20.339  0.00  0.00    +0.000 C 
ATOM      8  O   UNL     1       1.287  11.204  21.051  0.00  0.00    +0.000 OA
ATOM      9  N   UNL     1      -0.773  10.618  20.227  0.00  0.00    +0.000 N 
ATOM     10  C   UNL     1      -1.411  11.817  20.785  0.00  0.00    +0.000 C 
ATOM     11  C   UNL     1      -2.140  12.603  19.676  0.00  0.00    +0.000 C 
ATOM     12  N   UNL     1      -3.068  11.711  18.949  0.00  0.00    +0.000 N 
ATOM     13  C   UNL     1      -2.468  10.476  18.418  0.00  0.00    +0.000 C 
ATOM     14  C   UNL     1      -1.732   9.732  19.553  0.00  0.00    +0.000 C 
BRANCH  12  15
ATOM     15  C   UNL     1      -4.380  12.055  18.673  0.00  0.00    +0.000 A 
ATOM     16  C   UNL     1      -5.276  12.304  19.727  0.00  0.00    +0.000 A 
ATOM     17  C   UNL     1      -6.633  12.578  19.511  0.00  0.00    +0.000 A 
ATOM     18  C   UNL     1      -7.138  12.611  18.218  0.00  0.00    +0.000 A 
ATOM     19  C   UNL     1      -6.282  12.390  17.144  0.00  0.00    +0.000 A 
ATOM     20  C   UNL     1      -4.925  12.126  17.370  0.00  0.00    +0.000 A 
BRANCH  20  21
ATOM     21  O   UNL     1      -4.114  11.969  16.270  0.00  0.00    +0.000 OA
ATOM     22  H   UNL     1      -4.231  12.735  15.686  0.00  0.00    +0.000 HD
ENDBRANCH  20  21
ENDBRANCH  12  15
ENDBRANCH   5   7
BRANCH   1  23
ATOM     23  N   UNL     1       2.689   6.060  20.448  0.00  0.00    +0.000 N 
ATOM     24  H   UNL     1       2.408   6.037  21.426  0.00  0.00    +0.000 HD
BRANCH  23  25
ATOM     25  S   UNL     1       2.553   4.533  19.738  0.00  0.00    +0.000 S 
ATOM     26  O   UNL     1       1.315   4.465  18.984  0.00  0.00    +0.000 OA
ATOM     27  O   UNL     1       2.825   3.577  20.791  0.00  0.00    +0.000 OA
BRANCH  25  32
ATOM     28  C   UNL     1       7.216   4.532  15.848  0.00  0.00    +0.000 C 
ATOM     29  C   UNL     1       6.053   4.499  16.793  0.00  0.00    +0.000 A 
ATOM     30  C   UNL     1       4.771   4.128  16.364  0.00  0.00    +0.000 A 
ATOM     31  C   UNL     1       3.699   4.120  17.263  0.00  0.00    +0.000 A 
ATOM     32  C   UNL     1       3.914   4.478  18.598  0.00  0.00    +0.000 A 
ATOM     33  C   UNL     1       5.183   4.859  19.036  0.00  0.00    +0.000 A 
ATOM     34  C   UNL     1       6.238   4.859  18.132  0.00  0.00    +0.000 A 
ATOM     35  F   UNL     1       7.455   5.230  18.558  0.00  0.00    +0.000 F 
ENDBRANCH  25  32
ENDBRANCH  23  25
ENDBRANCH   1  23
TORSDOF 6
ENDMDL
MODEL 2
REMARK VINA RESULT:      -8.6      3.060      3.801
REMARK  Name = 
REMARK  7 active torsions:
REMARK  status: ('A' for Active; 'I' for Inactive)
REMARK    1  A    between atoms: C_1  and  C_2
REMARK    2  A    between atoms: C_5  and  S_6
REMARK    3  A    between atoms: S_6  and  N_9
REMARK    4  A    between atoms: N_9  and  C_10
REMARK    5  A    between atoms: C_14  and  C_15
REMARK    6  A    between atoms: N_20  and  C_21
REMARK    7  A    between atoms: C_26  and  O_27
REMARK                            x       y       z     vdW  Elec       q    Type
REMARK                         _______ _______ _______ _____ _____    ______ ____
ROOT
ATOM      1  C   UNL     1       2.220   6.852  19.959  0.00  0.00    +0.000 A 
ATOM      2  C   UNL     1       2.352   6.981  18.578  0.00  0.00    +0.000 A 
ATOM      3  C   UNL     1       2.040   8.196  17.968  0.00  0.00    +0.000 A 
ATOM      4  C   UNL     1       1.589   9.268  18.741  0.00  0.00    +0.000 A 
ATOM      5  C   UNL     1       1.350   9.103  20.109  0.00  0.00    +0.000 A 
ATOM      6  C   UNL     1       1.705   7.897  20.722  0.00  0.00    +0.000 A 
ENDROOT
BRANCH   5   7
ATOM      7  C   UNL     1       0.822  10.190  20.976  0.00  0.00    +0.000 C 
ATOM      8  O   UNL     1       0.780   9.965  22.186  0.00  0.00    +0.000 OA
ATOM      9  N   UNL     1       0.387  11.389  20.430  0.00  0.00    +0.000 N 
ATOM     10  C   UNL     1       0.080  12.513  21.324  0.00  0.00    +0.000 C 
ATOM     11  C   UNL     1       0.976  13.723  20.992  0.00  0.00    +0.000 C 
ATOM     12  N   UNL     1       0.870  14.053  19.555  0.00  0.00    +0.000 N 
ATOM     13  C   UNL     1       1.127  12.934  18.632  0.00  0.00    +0.000 C 
ATOM     14  C   UNL     1       0.226  11.738  19.012  0.00  0.00    +0.000 C 
BRANCH  12  15
ATOM     15  C   UNL     1       0.669  15.342  19.091  0.00  0.00    +0.000 A 
ATOM     16  C   UNL     1       1.755  16.086  18.597  0.00  0.00    +0.000 A 
ATOM     17  C   UNL     1       1.627  17.420  18.190  0.00  0.00    +0.000 A 
ATOM     18  C   UNL     1       0.395  18.055  18.266  0.00  0.00    +0.000 A 
ATOM     19  C   UNL     1      -0.710  17.351  18.730  0.00  0.00    +0.000 A 
ATOM     20  C   UNL     1      -0.575  16.013  19.127  0.00  0.00    +0.000 A 
BRANCH  20  21
ATOM     21  O   UNL     1      -1.711  15.348  19.526  0.00  0.00    +0.000 OA
ATOM     22  H   UNL     1      -1.486  14.419  19.688  0.00  0.00    +0.000 HD
ENDBRANCH  20  21
ENDBRANCH  12  15
ENDBRANCH   5   7
BRANCH   1  23
ATOM     23  N   UNL     1       2.645   5.677  20.634  0.00  0.00    +0.000 N 
ATOM     24  H   UNL     1       2.406   5.579  21.619  0.00  0.00    +0.000 HD
BRANCH  23  25
ATOM     25  S   UNL     1       2.503   4.203  19.821  0.00  0.00    +0.000 S 
ATOM     26  O   UNL     1       1.250   4.178  19.091  0.00  0.00    +0.000 OA
ATOM     27  O   UNL     1       2.803   3.177  20.798  0.00  0.00    +0.000 OA
BRANCH  25  32
ATOM     28  C   UNL     1       7.081   4.509  15.844  0.00  0.00    +0.000 C 
ATOM     29  C   UNL     1       5.939   4.401  16.809  0.00  0.00    +0.000 A 
ATOM     30  C   UNL     1       4.653   4.038  16.384  0.00  0.00    +0.000 A 
ATOM     31  C   UNL     1       3.600   3.959  17.303  0.00  0.00    +0.000 A 
ATOM     32  C   UNL     1       3.840   4.238  18.653  0.00  0.00    +0.000 A 
ATOM     33  C   UNL     1       5.113   4.609  19.086  0.00  0.00    +0.000 A 
ATOM     34  C   UNL     1       6.148   4.680  18.163  0.00  0.00    +0.000 A 
ATOM     35  F   UNL     1       7.368   5.042  18.586  0.00  0.00    +0.000 F 
ENDBRANCH  25  32
ENDBRANCH  23  25
ENDBRANCH   1  23
TORSDOF 6
ENDMDL
MODEL 3
REMARK VINA RESULT:      -8.5      3.256      4.304
REMARK  Name = 
REMARK  7 active torsions:
REMARK  status: ('A' for Active; 'I' for Inactive)
REMARK    1  A    between atoms: C_1  and  C_2
REMARK    2  A    between atoms: C_5  and  S_6
REMARK    3  A    between atoms: S_6  and  N_9
REMARK    4  A    between atoms: N_9  and  C_10
REMARK    5  A    between atoms: C_14  and  C_15
REMARK    6  A    between atoms: N_20  and  C_21
REMARK    7  A    between atoms: C_26  and  O_27
REMARK                            x       y       z     vdW  Elec       q    Type
REMARK                         _______ _______ _______ _____ _____    ______ ____
ROOT
ATOM      1  C   UNL     1       3.073   6.124  18.536  0.00  0.00    +0.000 A 
ATOM      2  C   UNL     1       2.870   5.544  19.787  0.00  0.00    +0.000 A 
ATOM      3  C   UNL     1       2.092   6.208  20.734  0.00  0.00    +0.000 A 
ATOM      4  C   UNL     1       1.532   7.450  20.429  0.00  0.00    +0.000 A 
ATOM      5  C   UNL     1       1.828   8.081  19.217  0.00  0.00    +0.000 A 
ATOM      6  C   UNL     1       2.573   7.393  18.254  0.00  0.00    +0.000 A 
ENDROOT
BRANCH   5   7
ATOM      7  C   UNL     1       1.305   9.426  18.855  0.00  0.00    +0.000 C 
ATOM      8  O   UNL     1       1.205   9.678  17.654  0.00  0.00    +0.000 OA
ATOM      9  N   UNL     1       0.963  10.345  19.836  0.00  0.00    +0.000 N 
ATOM     10  C   UNL     1       0.248  11.570  19.451  0.00  0.00    +0.000 C 
ATOM     11  C   UNL     1      -1.113  11.646  20.171  0.00  0.00    +0.000 C 
ATOM     12  N   UNL     1      -0.924  11.494  21.630  0.00  0.00    +0.000 N 
ATOM     13  C   UNL     1      -0.170  10.299  22.045  0.00  0.00    +0.000 C 
ATOM     14  C   UNL     1       1.174  10.250  21.286  0.00  0.00    +0.000 C 
BRANCH  12  15
ATOM     15  C   UNL     1      -1.512  12.337  22.557  0.00  0.00    +0.000 A 
ATOM     16  C   UNL     1      -2.777  12.024  23.085  0.00  0.00    +0.000 A 
ATOM     17  C   UNL     1      -3.455  12.877  23.964  0.00  0.00    +0.000 A 
ATOM     18  C   UNL     1      -2.882  14.083  24.344  0.00  0.00    +0.000 A 
ATOM     19  C   UNL     1      -1.623  14.424  23.861  0.00  0.00    +0.000 A 
ATOM     20  C   UNL     1      -0.948  13.560  22.989  0.00  0.00    +0.000 A 
BRANCH  20  21
ATOM     21  O   UNL     1       0.317  13.921  22.585  0.00  0.00    +0.000 OA
ATOM     22  H   UNL     1       0.914  13.865  23.348  0.00  0.00    +0.000 HD
ENDBRANCH  20  21
ENDBRANCH  12  15
ENDBRANCH   5   7
BRANCH   1  23
ATOM     23  N   UNL     1       3.751   5.427  17.502  0.00  0.00    +0.000 N 
ATOM     24  H   UNL     1       3.420   5.548  16.547  0.00  0.00    +0.000 HD
BRANCH  23  25
ATOM     25  S   UNL     1       5.439   5.371  17.560  0.00  0.00    +0.000 S 
ATOM     26  O   UNL     1       5.850   4.346  18.502  0.00  0.00    +0.000 OA
ATOM     27  O   UNL     1       5.879   6.740  17.728  0.00  0.00    +0.000 OA
BRANCH  25  32
ATOM     28  C   UNL     1       6.967   3.781  11.903  0.00  0.00    +0.000 C 
ATOM     29  C   UNL     1       6.582   4.137  13.307  0.00  0.00    +0.000 A 
ATOM     30  C   UNL     1       5.445   3.586  13.916  0.00  0.00    +0.000 A 
ATOM     31  C   UNL     1       5.099   3.946  15.224  0.00  0.00    +0.000 A 
ATOM     32  C   UNL     1       5.898   4.856  15.924  0.00  0.00    +0.000 A 
ATOM     33  C   UNL     1       7.026   5.418  15.326  0.00  0.00    +0.000 A 
ATOM     34  C   UNL     1       7.359   5.048  14.029  0.00  0.00    +0.000 A 
ATOM     35  F   UNL     1       8.442   5.596  13.458  0.00  0.00    +0.000 F 
ENDBRANCH  25  32
ENDBRANCH  23  25
ENDBRANCH   1  23
TORSDOF 6
ENDMDL
MODEL 4
REMARK VINA RESULT:      -8.5      3.083      4.021
REMARK  Name = 
REMARK  7 active torsions:
REMARK  status: ('A' for Active; 'I' for Inactive)
REMARK    1  A    between atoms: C_1  and  C_2
REMARK    2  A    between atoms: C_5  and  S_6
REMARK    3  A    between atoms: S_6  and  N_9
REMARK    4  A    between atoms: N_9  and  C_10
REMARK    5  A    between atoms: C_14  and  C_15
REMARK    6  A    between atoms: N_20  and  C_21
REMARK    7  A    between atoms: C_26  and  O_27
REMARK                            x       y       z     vdW  Elec       q    Type
REMARK                         _______ _______ _______ _____ _____    ______ ____
ROOT
ATOM      1  C   UNL     1       2.284   6.973  19.815  0.00  0.00    +0.000 A 
ATOM      2  C   UNL     1       2.543   7.138  18.456  0.00  0.00    +0.000 A 
ATOM      3  C   UNL     1       2.165   8.321  17.823  0.00  0.00    +0.000 A 
ATOM      4  C   UNL     1       1.522   9.325  18.549  0.00  0.00    +0.000 A 
ATOM      5  C   UNL     1       1.163   9.114  19.884  0.00  0.00    +0.000 A 
ATOM      6  C   UNL     1       1.582   7.944  20.526  0.00  0.00    +0.000 A 
ENDROOT
BRANCH   5   7
ATOM      7  C   UNL     1       0.431  10.123  20.696  0.00  0.00    +0.000 C 
ATOM      8  O   UNL     1       0.099   9.787  21.833  0.00  0.00    +0.000 OA
ATOM      9  N   UNL     1       0.134  11.375  20.177  0.00  0.00    +0.000 N 
ATOM     10  C   UNL     1      -0.389  12.415  21.073  0.00  0.00    +0.000 C 
ATOM     11  C   UNL     1       0.552  13.636  21.085  0.00  0.00    +0.000 C 
ATOM     12  N   UNL     1       0.797  14.101  19.703  0.00  0.00    +0.000 N 
ATOM     13  C   UNL     1       1.277  13.070  18.767  0.00  0.00    +0.000 C 
ATOM     14  C   UNL     1       0.320  11.858  18.803  0.00  0.00    +0.000 C 
BRANCH  12  15
ATOM     15  C   UNL     1       0.705  15.431  19.328  0.00  0.00    +0.000 A 
ATOM     16  C   UNL     1      -0.482  15.916  18.753  0.00  0.00    +0.000 A 
ATOM     17  C   UNL     1      -0.607  17.230  18.283  0.00  0.00    +0.000 A 
ATOM     18  C   UNL     1       0.467  18.105  18.375  0.00  0.00    +0.000 A 
ATOM     19  C   UNL     1       1.654  17.673  18.955  0.00  0.00    +0.000 A 
ATOM     20  C   UNL     1       1.766  16.359  19.431  0.00  0.00    +0.000 A 
BRANCH  20  21
ATOM     21  O   UNL     1       2.944  16.002  20.045  0.00  0.00    +0.000 OA
ATOM     22  H   UNL     1       2.736  15.491  20.843  0.00  0.00    +0.000 HD
ENDBRANCH  20  21
ENDBRANCH  12  15
ENDBRANCH   5   7
BRANCH   1  23
ATOM     23  N   UNL     1       2.763   5.841  20.526  0.00  0.00    +0.000 N 
ATOM     24  H   UNL     1       2.570   5.785  21.524  0.00  0.00    +0.000 HD
BRANCH  23  25
ATOM     25  S   UNL     1       2.619   4.327  19.791  0.00  0.00    +0.000 S 
ATOM     26  O   UNL     1       1.353   4.256  19.086  0.00  0.00    +0.000 OA
ATOM     27  O   UNL     1       2.943   3.354  20.813  0.00  0.00    +0.000 OA
BRANCH  25  32
ATOM     28  C   UNL     1       7.127   4.461  15.726  0.00  0.00    +0.000 C 
ATOM     29  C   UNL     1       6.002   4.395  16.714  0.00  0.00    +0.000 A 
ATOM     30  C   UNL     1       4.703   4.042  16.321  0.00  0.00    +0.000 A 
ATOM     31  C   UNL     1       3.666   4.003  17.261  0.00  0.00    +0.000 A 
ATOM     32  C   UNL     1       3.935   4.311  18.599  0.00  0.00    +0.000 A 
ATOM     33  C   UNL     1       5.220   4.673  19.000  0.00  0.00    +0.000 A 
ATOM     34  C   UNL     1       6.239   4.705  18.056  0.00  0.00    +0.000 A 
ATOM     35  F   UNL     1       7.473   5.058  18.448  0.00  0.00    +0.000 F 
ENDBRANCH  25  32
ENDBRANCH  23  25
ENDBRANCH   1  23
TORSDOF 6
ENDMDL
MODEL 5
REMARK VINA RESULT:      -8.5      0.796      1.158
REMARK  Name = 
REMARK  7 active torsions:
REMARK  status: ('A' for Active; 'I' for Inactive)
REMARK    1  A    between atoms: C_1  and  C_2
REMARK    2  A    between atoms: C_5  and  S_6
REMARK    3  A    between atoms: S_6  and  N_9
REMARK    4  A    between atoms: N_9  and  C_10
REMARK    5  A    between atoms: C_14  and  C_15
REMARK    6  A    between atoms: N_20  and  C_21
REMARK    7  A    between atoms: C_26  and  O_27
REMARK                            x       y       z     vdW  Elec       q    Type
REMARK                         _______ _______ _______ _____ _____    ______ ____
ROOT
ATOM      1  C   UNL     1       2.252   7.308  19.680  0.00  0.00    +0.000 A 
ATOM      2  C   UNL     1       2.621   7.423  18.341  0.00  0.00    +0.000 A 
ATOM      3  C   UNL     1       2.363   8.610  17.657  0.00  0.00    +0.000 A 
ATOM      4  C   UNL     1       1.729   9.668  18.311  0.00  0.00    +0.000 A 
ATOM      5  C   UNL     1       1.259   9.512  19.619  0.00  0.00    +0.000 A 
ATOM      6  C   UNL     1       1.558   8.336  20.315  0.00  0.00    +0.000 A 
ENDROOT
BRANCH   5   7
ATOM      7  C   UNL     1       0.531  10.582  20.352  0.00  0.00    +0.000 C 
ATOM      8  O   UNL     1       1.208  11.333  21.056  0.00  0.00    +0.000 OA
ATOM      9  N   UNL     1      -0.847  10.707  20.248  0.00  0.00    +0.000 N 
ATOM     10  C   UNL     1      -1.502  11.898  20.803  0.00  0.00    +0.000 C 
ATOM     11  C   UNL     1      -2.250  12.665  19.695  0.00  0.00    +0.000 C 
ATOM     12  N   UNL     1      -3.168  11.754  18.979  0.00  0.00    +0.000 N 
ATOM     13  C   UNL     1      -2.550  10.526  18.450  0.00  0.00    +0.000 C 
ATOM     14  C   UNL     1      -1.795   9.801  19.585  0.00  0.00    +0.000 C 
BRANCH  12  15
ATOM     15  C   UNL     1      -4.488  12.074  18.708  0.00  0.00    +0.000 A 
ATOM     16  C   UNL     1      -5.387  12.289  19.767  0.00  0.00    +0.000 A 
ATOM     17  C   UNL     1      -6.749  12.537  19.556  0.00  0.00    +0.000 A 
ATOM     18  C   UNL     1      -7.257  12.578  18.265  0.00  0.00    +0.000 A 
ATOM     19  C   UNL     1      -6.399  12.390  17.187  0.00  0.00    +0.000 A 
ATOM     20  C   UNL     1      -5.035  12.151  17.407  0.00  0.00    +0.000 A 
BRANCH  20  21
ATOM     21  O   UNL     1      -4.223  12.027  16.304  0.00  0.00    +0.000 OA
ATOM     22  H   UNL     1      -3.525  11.384  16.503  0.00  0.00    +0.000 HD
ENDBRANCH  20  21
ENDBRANCH  12  15
ENDBRANCH   5   7
BRANCH   1  23
ATOM     23  N   UNL     1       2.608   6.168  20.448  0.00  0.00    +0.000 N 
ATOM     24  H   UNL     1       2.266   6.110  21.405  0.00  0.00    +0.000 HD
BRANCH  23  25
ATOM     25  S   UNL     1       2.563   4.659  19.691  0.00  0.00    +0.000 S 
ATOM     26  O   UNL     1       1.371   4.572  18.868  0.00  0.00    +0.000 OA
ATOM     27  O   UNL     1       2.809   3.682  20.731  0.00  0.00    +0.000 OA
BRANCH  25  32
ATOM     28  C   UNL     1       7.414   4.543  16.040  0.00  0.00    +0.000 C 
ATOM     29  C   UNL     1       6.230   4.604  16.958  0.00  0.00    +0.000 A 
ATOM     30  C   UNL     1       6.372   4.924  18.316  0.00  0.00    +0.000 A 
ATOM     31  C   UNL     1       5.251   4.959  19.154  0.00  0.00    +0.000 A 
ATOM     32  C   UNL     1       3.986   4.680  18.628  0.00  0.00    +0.000 A 
ATOM     33  C   UNL     1       3.833   4.351  17.281  0.00  0.00    +0.000 A 
ATOM     34  C   UNL     1       4.954   4.323  16.461  0.00  0.00    +0.000 A 
ATOM     35  F   UNL     1       4.800   4.003  15.167  0.00  0.00    +0.000 F 
ENDBRANCH  25  32
ENDBRANCH  23  25
ENDBRANCH   1  23
TORSDOF 6
ENDMDL
MODEL 6
REMARK VINA RESULT:      -8.4      0.856      1.194
REMARK  Name = 
REMARK  7 active torsions:
REMARK  status: ('A' for Active; 'I' for Inactive)
REMARK    1  A    between atoms: C_1  and  C_2
REMARK    2  A    between atoms: C_5  and  S_6
REMARK    3  A    between atoms: S_6  and  N_9
REMARK    4  A    between atoms: N_9  and  C_10
REMARK    5  A    between atoms: C_14  and  C_15
REMARK    6  A    between atoms: N_20  and  C_21
REMARK    7  A    between atoms: C_26  and  O_27
REMARK                            x       y       z     vdW  Elec       q    Type
REMARK                         _______ _______ _______ _____ _____    ______ ____
ROOT
ATOM      1  C   UNL     1       2.289   7.271  19.682  0.00  0.00    +0.000 A 
ATOM      2  C   UNL     1       2.603   7.359  18.327  0.00  0.00    +0.000 A 
ATOM      3  C   UNL     1       2.295   8.523  17.623  0.00  0.00    +0.000 A 
ATOM      4  C   UNL     1       1.666   9.585  18.275  0.00  0.00    +0.000 A 
ATOM      5  C   UNL     1       1.251   9.454  19.605  0.00  0.00    +0.000 A 
ATOM      6  C   UNL     1       1.600   8.302  20.317  0.00  0.00    +0.000 A 
ENDROOT
BRANCH   5   7
ATOM      7  C   UNL     1       0.532  10.529  20.338  0.00  0.00    +0.000 C 
ATOM      8  O   UNL     1       1.214  11.275  21.042  0.00  0.00    +0.000 OA
ATOM      9  N   UNL     1      -0.845  10.664  20.235  0.00  0.00    +0.000 N 
ATOM     10  C   UNL     1      -1.491  11.860  20.792  0.00  0.00    +0.000 C 
ATOM     11  C   UNL     1      -2.235  12.634  19.684  0.00  0.00    +0.000 C 
ATOM     12  N   UNL     1      -3.159  11.729  18.968  0.00  0.00    +0.000 N 
ATOM     13  C   UNL     1      -2.551  10.497  18.438  0.00  0.00    +0.000 C 
ATOM     14  C   UNL     1      -1.800   9.766  19.572  0.00  0.00    +0.000 C 
BRANCH  12  15
ATOM     15  C   UNL     1      -4.477  12.060  18.698  0.00  0.00    +0.000 A 
ATOM     16  C   UNL     1      -4.931  12.100  17.368  0.00  0.00    +0.000 A 
ATOM     17  C   UNL     1      -6.228  12.504  17.030  0.00  0.00    +0.000 A 
ATOM     18  C   UNL     1      -7.119  12.885  18.024  0.00  0.00    +0.000 A 
ATOM     19  C   UNL     1      -6.718  12.841  19.355  0.00  0.00    +0.000 A 
ATOM     20  C   UNL     1      -5.421  12.426  19.685  0.00  0.00    +0.000 A 
BRANCH  20  21
ATOM     21  O   UNL     1      -5.096  12.350  21.019  0.00  0.00    +0.000 OA
ATOM     22  H   UNL     1      -5.829  11.928  21.494  0.00  0.00    +0.000 HD
ENDBRANCH  20  21
ENDBRANCH  12  15
ENDBRANCH   5   7
BRANCH   1  23
ATOM     23  N   UNL     1       2.697   6.159  20.463  0.00  0.00    +0.000 N 
ATOM     24  H   UNL     1       2.463   6.159  21.454  0.00  0.00    +0.000 HD
BRANCH  23  25
ATOM     25  S   UNL     1       2.524   4.617  19.795  0.00  0.00    +0.000 S 
ATOM     26  O   UNL     1       1.280   4.555  19.051  0.00  0.00    +0.000 OA
ATOM     27  O   UNL     1       2.781   3.683  20.872  0.00  0.00    +0.000 OA
BRANCH  25  32
ATOM     28  C   UNL     1       7.166   4.409  15.886  0.00  0.00    +0.000 C 
ATOM     29  C   UNL     1       6.006   4.428  16.836  0.00  0.00    +0.000 A 
ATOM     30  C   UNL     1       4.709   4.103  16.415  0.00  0.00    +0.000 A 
ATOM     31  C   UNL     1       3.641   4.143  17.319  0.00  0.00    +0.000 A 
ATOM     32  C   UNL     1       3.877   4.501  18.650  0.00  0.00    +0.000 A 
ATOM     33  C   UNL     1       5.161   4.835  19.079  0.00  0.00    +0.000 A 
ATOM     34  C   UNL     1       6.211   4.789  18.171  0.00  0.00    +0.000 A 
ATOM     35  F   UNL     1       7.443   5.115  18.590  0.00  0.00    +0.000 F 
ENDBRANCH  25  32
ENDBRANCH  23  25
ENDBRANCH   1  23
TORSDOF 6
ENDMDL
MODEL 7
REMARK VINA RESULT:      -8.4      3.340      4.382
REMARK  Name = 
REMARK  7 active torsions:
REMARK  status: ('A' for Active; 'I' for Inactive)
REMARK    1  A    between atoms: C_1  and  C_2
REMARK    2  A    between atoms: C_5  and  S_6
REMARK    3  A    between atoms: S_6  and  N_9
REMARK    4  A    between atoms: N_9  and  C_10
REMARK    5  A    between atoms: C_14  and  C_15
REMARK    6  A    between atoms: N_20  and  C_21
REMARK    7  A    between atoms: C_26  and  O_27
REMARK                            x       y       z     vdW  Elec       q    Type
REMARK                         _______ _______ _______ _____ _____    ______ ____
ROOT
ATOM      1  C   UNL     1       3.023   5.779  18.696  0.00  0.00    +0.000 A 
ATOM      2  C   UNL     1       2.700   5.199  19.921  0.00  0.00    +0.000 A 
ATOM      3  C   UNL     1       1.908   5.904  20.827  0.00  0.00    +0.000 A 
ATOM      4  C   UNL     1       1.454   7.184  20.507  0.00  0.00    +0.000 A 
ATOM      5  C   UNL     1       1.869   7.809  19.327  0.00  0.00    +0.000 A 
ATOM      6  C   UNL     1       2.628   7.083  18.403  0.00  0.00    +0.000 A 
ENDROOT
BRANCH   5   7
ATOM      7  C   UNL     1       1.463   9.190  18.954  0.00  0.00    +0.000 C 
ATOM      8  O   UNL     1       1.472   9.467  17.754  0.00  0.00    +0.000 OA
ATOM      9  N   UNL     1       1.105  10.114  19.925  0.00  0.00    +0.000 N 
ATOM     10  C   UNL     1       0.502  11.389  19.512  0.00  0.00    +0.000 C 
ATOM     11  C   UNL     1      -0.903  11.542  20.129  0.00  0.00    +0.000 C 
ATOM     12  N   UNL     1      -0.837  11.355  21.594  0.00  0.00    +0.000 N 
ATOM     13  C   UNL     1      -0.195  10.107  22.041  0.00  0.00    +0.000 C 
ATOM     14  C   UNL     1       1.198   9.982  21.385  0.00  0.00    +0.000 C 
BRANCH  12  15
ATOM     15  C   UNL     1      -1.440  12.220  22.491  0.00  0.00    +0.000 A 
ATOM     16  C   UNL     1      -2.726  11.934  22.983  0.00  0.00    +0.000 A 
ATOM     17  C   UNL     1      -3.418  12.810  23.829  0.00  0.00    +0.000 A 
ATOM     18  C   UNL     1      -2.836  14.011  24.211  0.00  0.00    +0.000 A 
ATOM     19  C   UNL     1      -1.557  14.325  23.765  0.00  0.00    +0.000 A 
ATOM     20  C   UNL     1      -0.869  13.438  22.925  0.00  0.00    +0.000 A 
BRANCH  20  21
ATOM     21  O   UNL     1       0.414  13.773  22.558  0.00  0.00    +0.000 OA
ATOM     22  H   UNL     1       0.834  12.998  22.154  0.00  0.00    +0.000 HD
ENDBRANCH  20  21
ENDBRANCH  12  15
ENDBRANCH   5   7
BRANCH   1  23
ATOM     23  N   UNL     1       3.718   5.051  17.696  0.00  0.00    +0.000 N 
ATOM     24  H   UNL     1       3.422   5.164  16.728  0.00  0.00    +0.000 HD
BRANCH  23  25
ATOM     25  S   UNL     1       5.401   4.956  17.812  0.00  0.00    +0.000 S 
ATOM     26  O   UNL     1       5.763   3.745  18.525  0.00  0.00    +0.000 OA
ATOM     27  O   UNL     1       5.842   6.249  18.292  0.00  0.00    +0.000 OA
BRANCH  25  32
ATOM     28  C   UNL     1       7.203   4.239  12.058  0.00  0.00    +0.000 C 
ATOM     29  C   UNL     1       6.777   4.450  13.480  0.00  0.00    +0.000 A 
ATOM     30  C   UNL     1       7.665   4.946  14.444  0.00  0.00    +0.000 A 
ATOM     31  C   UNL     1       7.246   5.120  15.769  0.00  0.00    +0.000 A 
ATOM     32  C   UNL     1       5.930   4.801  16.124  0.00  0.00    +0.000 A 
ATOM     33  C   UNL     1       5.041   4.298  15.176  0.00  0.00    +0.000 A 
ATOM     34  C   UNL     1       5.470   4.134  13.865  0.00  0.00    +0.000 A 
ATOM     35  F   UNL     1       4.610   3.646  12.959  0.00  0.00    +0.000 F 
ENDBRANCH  25  32
ENDBRANCH  23  25
ENDBRANCH   1  23
TORSDOF 6
ENDMDL
MODEL 8
REMARK VINA RESULT:      -8.3      3.290      4.123
REMARK  Name = 
REMARK  7 active torsions:
REMARK  status: ('A' for Active; 'I' for Inactive)
REMARK    1  A    between atoms: C_1  and  C_2
REMARK    2  A    between atoms: C_5  and  S_6
REMARK    3  A    between atoms: S_6  and  N_9
REMARK    4  A    between atoms: N_9  and  C_10
REMARK    5  A    between atoms: C_14  and  C_15
REMARK    6  A    between atoms: N_20  and  C_21
REMARK    7  A    between atoms: C_26  and  O_27
REMARK                            x       y       z     vdW  Elec       q    Type
REMARK                         _______ _______ _______ _____ _____    ______ ____
ROOT
ATOM      1  C   UNL     1       2.192   6.840  19.873  0.00  0.00    +0.000 A 
ATOM      2  C   UNL     1       2.419   6.971  18.505  0.00  0.00    +0.000 A 
ATOM      3  C   UNL     1       2.149   8.186  17.876  0.00  0.00    +0.000 A 
ATOM      4  C   UNL     1       1.647   9.257  18.617  0.00  0.00    +0.000 A 
ATOM      5  C   UNL     1       1.315   9.092  19.966  0.00  0.00    +0.000 A 
ATOM      6  C   UNL     1       1.626   7.885  20.601  0.00  0.00    +0.000 A 
ENDROOT
BRANCH   5   7
ATOM      7  C   UNL     1       0.729  10.178  20.795  0.00  0.00    +0.000 C 
ATOM      8  O   UNL     1       0.582   9.943  21.995  0.00  0.00    +0.000 OA
ATOM      9  N   UNL     1       0.357  11.388  20.226  0.00  0.00    +0.000 N 
ATOM     10  C   UNL     1      -0.010  12.508  21.103  0.00  0.00    +0.000 C 
ATOM     11  C   UNL     1       0.926  13.709  20.860  0.00  0.00    +0.000 C 
ATOM     12  N   UNL     1       0.947  14.052  19.422  0.00  0.00    +0.000 N 
ATOM     13  C   UNL     1       1.266  12.938  18.513  0.00  0.00    +0.000 C 
ATOM     14  C   UNL     1       0.322  11.751  18.804  0.00  0.00    +0.000 C 
BRANCH  12  15
ATOM     15  C   UNL     1       0.802  15.348  18.956  0.00  0.00    +0.000 A 
ATOM     16  C   UNL     1      -0.482  15.904  18.821  0.00  0.00    +0.000 A 
ATOM     17  C   UNL     1      -0.695  17.179  18.280  0.00  0.00    +0.000 A 
ATOM     18  C   UNL     1       0.383  17.942  17.854  0.00  0.00    +0.000 A 
ATOM     19  C   UNL     1       1.673  17.439  17.987  0.00  0.00    +0.000 A 
ATOM     20  C   UNL     1       1.877  16.166  18.538  0.00  0.00    +0.000 A 
BRANCH  20  21
ATOM     21  O   UNL     1       3.176  15.740  18.696  0.00  0.00    +0.000 OA
ATOM     22  H   UNL     1       3.720  16.497  18.964  0.00  0.00    +0.000 HD
ENDBRANCH  20  21
ENDBRANCH  12  15
ENDBRANCH   5   7
BRANCH   1  23
ATOM     23  N   UNL     1       2.570   5.665  20.575  0.00  0.00    +0.000 N 
ATOM     24  H   UNL     1       2.209   5.534  21.518  0.00  0.00    +0.000 HD
BRANCH  23  25
ATOM     25  S   UNL     1       2.592   4.207  19.721  0.00  0.00    +0.000 S 
ATOM     26  O   UNL     1       1.382   4.100  18.927  0.00  0.00    +0.000 OA
ATOM     27  O   UNL     1       2.927   3.183  20.689  0.00  0.00    +0.000 OA
BRANCH  25  32
ATOM     28  C   UNL     1       7.328   4.624  15.944  0.00  0.00    +0.000 C 
ATOM     29  C   UNL     1       6.171   4.553  16.895  0.00  0.00    +0.000 A 
ATOM     30  C   UNL     1       6.330   4.811  18.263  0.00  0.00    +0.000 A 
ATOM     31  C   UNL     1       5.236   4.723  19.132  0.00  0.00    +0.000 A 
ATOM     32  C   UNL     1       3.977   4.384  18.624  0.00  0.00    +0.000 A 
ATOM     33  C   UNL     1       3.808   4.116  17.266  0.00  0.00    +0.000 A 
ATOM     34  C   UNL     1       4.902   4.210  16.416  0.00  0.00    +0.000 A 
ATOM     35  F   UNL     1       4.733   3.948  15.112  0.00  0.00    +0.000 F 
ENDBRANCH  25  32
ENDBRANCH  23  25
ENDBRANCH   1  23
TORSDOF 6
ENDMDL
MODEL 9
REMARK VINA RESULT:      -8.3      3.068      3.951
REMARK  Name = 
REMARK  7 active torsions:
REMARK  status: ('A' for Active; 'I' for Inactive)
REMARK    1  A    between atoms: C_1  and  C_2
REMARK    2  A    between atoms: C_5  and  S_6
REMARK    3  A    between atoms: S_6  and  N_9
REMARK    4  A    between atoms: N_9  and  C_10
REMARK    5  A    between atoms: C_14  and  C_15
REMARK    6  A    between atoms: N_20  and  C_21
REMARK    7  A    between atoms: C_26  and  O_27
REMARK                            x       y       z     vdW  Elec       q    Type
REMARK                         _______ _______ _______ _____ _____    ______ ____
ROOT
ATOM      1  C   UNL     1       2.212   7.000  19.829  0.00  0.00    +0.000 A 
ATOM      2  C   UNL     1       2.421   7.160  18.460  0.00  0.00    +0.000 A 
ATOM      3  C   UNL     1       2.080   8.365  17.848  0.00  0.00    +0.000 A 
ATOM      4  C   UNL     1       1.524   9.398  18.605  0.00  0.00    +0.000 A 
ATOM      5  C   UNL     1       1.211   9.198  19.954  0.00  0.00    +0.000 A 
ATOM      6  C   UNL     1       1.593   8.003  20.572  0.00  0.00    +0.000 A 
ENDROOT
BRANCH   5   7
ATOM      7  C   UNL     1       0.570  10.240  20.800  0.00  0.00    +0.000 C 
ATOM      8  O   UNL     1       0.407   9.966  21.989  0.00  0.00    +0.000 OA
ATOM      9  N   UNL     1       0.170  11.452  20.257  0.00  0.00    +0.000 N 
ATOM     10  C   UNL     1      -0.254  12.534  21.156  0.00  0.00    +0.000 C 
ATOM     11  C   UNL     1       0.646  13.772  20.967  0.00  0.00    +0.000 C 
ATOM     12  N   UNL     1       0.686  14.157  19.540  0.00  0.00    +0.000 N 
ATOM     13  C   UNL     1       1.062  13.081  18.608  0.00  0.00    +0.000 C 
ATOM     14  C   UNL     1       0.152  11.855  18.845  0.00  0.00    +0.000 C 
BRANCH  12  15
ATOM     15  C   UNL     1       0.507  15.460  19.107  0.00  0.00    +0.000 A 
ATOM     16  C   UNL     1       1.593  16.176  18.573  0.00  0.00    +0.000 A 
ATOM     17  C   UNL     1       1.492  17.520  18.193  0.00  0.00    +0.000 A 
ATOM     18  C   UNL     1       0.287  18.195  18.338  0.00  0.00    +0.000 A 
ATOM     19  C   UNL     1      -0.819  17.519  18.843  0.00  0.00    +0.000 A 
ATOM     20  C   UNL     1      -0.710  16.171  19.213  0.00  0.00    +0.000 A 
BRANCH  20  21
ATOM     21  O   UNL     1      -1.849  15.538  19.654  0.00  0.00    +0.000 OA
ATOM     22  H   UNL     1      -2.371  15.264  18.884  0.00  0.00    +0.000 HD
ENDBRANCH  20  21
ENDBRANCH  12  15
ENDBRANCH   5   7
BRANCH   1  23
ATOM     23  N   UNL     1       2.659   5.840  20.513  0.00  0.00    +0.000 N 
ATOM     24  H   UNL     1       2.371   5.715  21.482  0.00  0.00    +0.000 HD
BRANCH  23  25
ATOM     25  S   UNL     1       2.641   4.372  19.677  0.00  0.00    +0.000 S 
ATOM     26  O   UNL     1       1.428   4.288  18.886  0.00  0.00    +0.000 OA
ATOM     27  O   UNL     1       2.949   3.351  20.656  0.00  0.00    +0.000 OA
BRANCH  25  32
ATOM     28  C   UNL     1       7.382   4.616  15.892  0.00  0.00    +0.000 C 
ATOM     29  C   UNL     1       6.225   4.588  16.844  0.00  0.00    +0.000 A 
ATOM     30  C   UNL     1       6.393   4.854  18.210  0.00  0.00    +0.000 A 
ATOM     31  C   UNL     1       5.298   4.806  19.080  0.00  0.00    +0.000 A 
ATOM     32  C   UNL     1       4.029   4.498  18.577  0.00  0.00    +0.000 A 
ATOM     33  C   UNL     1       3.850   4.223  17.222  0.00  0.00    +0.000 A 
ATOM     34  C   UNL     1       4.946   4.277  16.370  0.00  0.00    +0.000 A 
ATOM     35  F   UNL     1       4.767   4.007  15.068  0.00  0.00    +0.000 F 
ENDBRANCH  25  32
ENDBRANCH  23  25
ENDBRANCH   1  23
TORSDOF 6
ENDMDL
