MODEL 1
REMARK VINA RESULT:      -7.8      0.000      0.000
REMARK  Name = 
REMARK  3 active torsions:
REMARK  status: ('A' for Active; 'I' for Inactive)
REMARK    1  A    between atoms: C_2  and  C_18
REMARK    2  A    between atoms: C_8  and  O_9
REMARK    3  A    between atoms: O_9  and  C_10
REMARK                            x       y       z     vdW  Elec       q    Type
REMARK                         _______ _______ _______ _____ _____    ______ ____
ROOT
ATOM      1  O   UNL     1       1.101   7.671  21.708  0.00  0.00    +0.000 OA
ATOM      2  C   UNL     1       1.420   8.181  20.639  0.00  0.00    +0.000 C 
ATOM      3  N   UNL     1       2.079   7.523  19.619  0.00  0.00    +0.000 N 
ATOM      4  C   UNL     1       2.459   6.185  19.718  0.00  0.00    +0.000 A 
ATOM      5  C   UNL     1       1.629   5.206  20.273  0.00  0.00    +0.000 A 
ATOM      6  N   UNL     1       2.007   3.910  20.414  0.00  0.00    +0.000 NA
ATOM      7  C   UNL     1       3.275   3.645  20.031  0.00  0.00    +0.000 A 
ATOM      8  C   UNL     1       4.110   4.626  19.507  0.00  0.00    +0.000 A 
ATOM      9  N   UNL     1       3.696   5.893  19.268  0.00  0.00    +0.000 NA
ATOM     10  H   UNL     1       2.610   8.084  18.963  0.00  0.00    +0.000 HD
ENDROOT
BRANCH   2  11
ATOM     11  C   UNL     1       1.156   9.624  20.403  0.00  0.00    +0.000 A 
ATOM     12  C   UNL     1       1.051  10.119  19.113  0.00  0.00    +0.000 A 
ATOM     13  C   UNL     1       0.906  11.489  18.950  0.00  0.00    +0.000 A 
ATOM     14  C   UNL     1       0.875  12.279  20.085  0.00  0.00    +0.000 A 
ATOM     15  N   UNL     1       0.951  11.766  21.333  0.00  0.00    +0.000 NA
ATOM     16  N   UNL     1       1.086  10.419  21.498  0.00  0.00    +0.000 NA
ENDBRANCH   2  11
BRANCH   8  17
ATOM     17  O   UNL     1       5.421   4.267  19.240  0.00  0.00    +0.000 OA
BRANCH  17  18
ATOM     18  C   UNL     1       5.858   4.319  17.932  0.00  0.00    +0.000 A 
ATOM     19  C   UNL     1       7.206   4.588  17.741  0.00  0.00    +0.000 A 
ATOM     20  N   UNL     1       7.800   4.698  16.527  0.00  0.00    +0.000 NA
ATOM     21  C   UNL     1       6.994   4.534  15.453  0.00  0.00    +0.000 A 
ATOM     22  C   UNL     1       5.637   4.286  15.550  0.00  0.00    +0.000 A 
ATOM     23  F   UNL     1       4.894   4.146  14.446  0.00  0.00    +0.000 F 
ATOM     24  C   UNL     1       5.051   4.191  16.805  0.00  0.00    +0.000 A 
ENDBRANCH  17  18
ENDBRANCH   8  17
TORSDOF 3
ENDMDL
MODEL 2
REMARK VINA RESULT:      -7.7      1.490      1.723
REMARK  Name = 
REMARK  3 active torsions:
REMARK  status: ('A' for Active; 'I' for Inactive)
REMARK    1  A    between atoms: C_2  and  C_18
REMARK    2  A    between atoms: C_8  and  O_9
REMARK    3  A    between atoms: O_9  and  C_10
REMARK                            x       y       z     vdW  Elec       q    Type
REMARK                         _______ _______ _______ _____ _____    ______ ____
ROOT
ATOM      1  O   UNL     1       1.488   6.134  20.950  0.00  0.00    +0.000 OA
ATOM      2  C   UNL     1       1.756   7.017  20.142  0.00  0.00    +0.000 C 
ATOM      3  N   UNL     1       2.454   6.821  18.966  0.00  0.00    +0.000 N 
ATOM      4  C   UNL     1       2.937   5.570  18.584  0.00  0.00    +0.000 A 
ATOM      5  C   UNL     1       2.190   4.397  18.735  0.00  0.00    +0.000 A 
ATOM      6  N   UNL     1       2.668   3.169  18.408  0.00  0.00    +0.000 NA
ATOM      7  C   UNL     1       3.950   3.157  17.980  0.00  0.00    +0.000 A 
ATOM      8  C   UNL     1       4.701   4.320  17.859  0.00  0.00    +0.000 A 
ATOM      9  N   UNL     1       4.188   5.554  18.083  0.00  0.00    +0.000 NA
ATOM     10  H   UNL     1       2.933   7.620  18.565  0.00  0.00    +0.000 HD
ENDROOT
BRANCH   2  11
ATOM     11  C   UNL     1       1.379   8.423  20.435  0.00  0.00    +0.000 A 
ATOM     12  C   UNL     1       1.123   9.314  19.404  0.00  0.00    +0.000 A 
ATOM     13  C   UNL     1       0.875  10.638  19.732  0.00  0.00    +0.000 A 
ATOM     14  C   UNL     1       0.900  10.992  21.070  0.00  0.00    +0.000 A 
ATOM     15  N   UNL     1       1.124  10.097  22.057  0.00  0.00    +0.000 NA
ATOM     16  N   UNL     1       1.360   8.792  21.739  0.00  0.00    +0.000 NA
ENDBRANCH   2  11
BRANCH   8  17
ATOM     17  O   UNL     1       6.033   4.182  17.505  0.00  0.00    +0.000 OA
BRANCH  17  18
ATOM     18  C   UNL     1       6.371   4.310  16.173  0.00  0.00    +0.000 A 
ATOM     19  C   UNL     1       7.329   5.267  15.868  0.00  0.00    +0.000 A 
ATOM     20  N   UNL     1       7.763   5.543  14.614  0.00  0.00    +0.000 NA
ATOM     21  C   UNL     1       7.199   4.822  13.617  0.00  0.00    +0.000 A 
ATOM     22  C   UNL     1       6.223   3.866  13.827  0.00  0.00    +0.000 A 
ATOM     23  F   UNL     1       5.698   3.197  12.794  0.00  0.00    +0.000 F 
ATOM     24  C   UNL     1       5.787   3.611  15.120  0.00  0.00    +0.000 A 
ENDBRANCH  17  18
ENDBRANCH   8  17
TORSDOF 3
ENDMDL
MODEL 3
REMARK VINA RESULT:      -7.7      4.710      6.595
REMARK  Name = 
REMARK  3 active torsions:
REMARK  status: ('A' for Active; 'I' for Inactive)
REMARK    1  A    between atoms: C_2  and  C_18
REMARK    2  A    between atoms: C_8  and  O_9
REMARK    3  A    between atoms: O_9  and  C_10
REMARK                            x       y       z     vdW  Elec       q    Type
REMARK                         _______ _______ _______ _____ _____    ______ ____
ROOT
ATOM      1  O   UNL     1       7.640   9.799  17.533  0.00  0.00    +0.000 OA
ATOM      2  C   UNL     1       8.463   9.410  18.356  0.00  0.00    +0.000 C 
ATOM      3  N   UNL     1       8.643   8.092  18.725  0.00  0.00    +0.000 N 
ATOM      4  C   UNL     1       7.880   7.056  18.189  0.00  0.00    +0.000 A 
ATOM      5  C   UNL     1       7.555   6.986  16.831  0.00  0.00    +0.000 A 
ATOM      6  N   UNL     1       6.775   6.006  16.306  0.00  0.00    +0.000 NA
ATOM      7  C   UNL     1       6.284   5.130  17.210  0.00  0.00    +0.000 A 
ATOM      8  C   UNL     1       6.583   5.218  18.565  0.00  0.00    +0.000 A 
ATOM      9  N   UNL     1       7.446   6.132  19.070  0.00  0.00    +0.000 NA
ATOM     10  H   UNL     1       9.057   7.910  19.633  0.00  0.00    +0.000 HD
ENDROOT
BRANCH   2  11
ATOM     11  C   UNL     1       9.306  10.398  19.077  0.00  0.00    +0.000 A 
ATOM     12  C   UNL     1      10.365  11.022  18.437  0.00  0.00    +0.000 A 
ATOM     13  C   UNL     1      11.180  11.857  19.187  0.00  0.00    +0.000 A 
ATOM     14  C   UNL     1      10.889  12.016  20.530  0.00  0.00    +0.000 A 
ATOM     15  N   UNL     1       9.832  11.416  21.123  0.00  0.00    +0.000 NA
ATOM     16  N   UNL     1       9.024  10.600  20.387  0.00  0.00    +0.000 NA
ENDBRANCH   2  11
BRANCH   8  17
ATOM     17  O   UNL     1       5.946   4.329  19.415  0.00  0.00    +0.000 OA
BRANCH  17  18
ATOM     18  C   UNL     1       4.575   4.203  19.319  0.00  0.00    +0.000 A 
ATOM     19  C   UNL     1       3.829   5.331  19.627  0.00  0.00    +0.000 A 
ATOM     20  N   UNL     1       2.474   5.381  19.608  0.00  0.00    +0.000 NA
ATOM     21  C   UNL     1       1.841   4.235  19.267  0.00  0.00    +0.000 A 
ATOM     22  C   UNL     1       2.503   3.059  18.968  0.00  0.00    +0.000 A 
ATOM     23  F   UNL     1       1.815   1.957  18.651  0.00  0.00    +0.000 F 
ATOM     24  C   UNL     1       3.891   3.031  19.007  0.00  0.00    +0.000 A 
ENDBRANCH  17  18
ENDBRANCH   8  17
TORSDOF 3
ENDMDL
MODEL 4
REMARK VINA RESULT:      -7.7      4.718      6.681
REMARK  Name = 
REMARK  3 active torsions:
REMARK  status: ('A' for Active; 'I' for Inactive)
REMARK    1  A    between atoms: C_2  and  C_18
REMARK    2  A    between atoms: C_8  and  O_9
REMARK    3  A    between atoms: O_9  and  C_10
REMARK                            x       y       z     vdW  Elec       q    Type
REMARK                         _______ _______ _______ _____ _____    ______ ____
ROOT
ATOM      1  O   UNL     1       7.735   9.890  17.671  0.00  0.00    +0.000 OA
ATOM      2  C   UNL     1       8.566   9.454  18.461  0.00  0.00    +0.000 C 
ATOM      3  N   UNL     1       8.721   8.120  18.784  0.00  0.00    +0.000 N 
ATOM      4  C   UNL     1       7.920   7.121  18.232  0.00  0.00    +0.000 A 
ATOM      5  C   UNL     1       7.563   7.104  16.880  0.00  0.00    +0.000 A 
ATOM      6  N   UNL     1       6.748   6.161  16.343  0.00  0.00    +0.000 NA
ATOM      7  C   UNL     1       6.255   5.268  17.230  0.00  0.00    +0.000 A 
ATOM      8  C   UNL     1       6.586   5.304  18.579  0.00  0.00    +0.000 A 
ATOM      9  N   UNL     1       7.483   6.180  19.093  0.00  0.00    +0.000 NA
ATOM     10  H   UNL     1       9.151   7.899  19.676  0.00  0.00    +0.000 HD
ENDROOT
BRANCH   2  11
ATOM     11  C   UNL     1       9.450  10.397  19.195  0.00  0.00    +0.000 A 
ATOM     12  C   UNL     1       9.176  10.741  20.509  0.00  0.00    +0.000 A 
ATOM     13  C   UNL     1       9.974  11.702  21.112  0.00  0.00    +0.000 A 
ATOM     14  C   UNL     1      10.995  12.261  20.364  0.00  0.00    +0.000 A 
ATOM     15  N   UNL     1      11.258  11.886  19.093  0.00  0.00    +0.000 NA
ATOM     16  N   UNL     1      10.480  10.935  18.499  0.00  0.00    +0.000 NA
ENDBRANCH   2  11
BRANCH   8  17
ATOM     17  O   UNL     1       5.947   4.403  19.415  0.00  0.00    +0.000 OA
BRANCH  17  18
ATOM     18  C   UNL     1       4.590   4.211  19.250  0.00  0.00    +0.000 A 
ATOM     19  C   UNL     1       3.767   5.255  19.650  0.00  0.00    +0.000 A 
ATOM     20  N   UNL     1       2.412   5.229  19.582  0.00  0.00    +0.000 NA
ATOM     21  C   UNL     1       1.862   4.095  19.092  0.00  0.00    +0.000 A 
ATOM     22  C   UNL     1       2.604   2.999  18.692  0.00  0.00    +0.000 A 
ATOM     23  F   UNL     1       1.995   1.902  18.228  0.00  0.00    +0.000 F 
ATOM     24  C   UNL     1       3.989   3.046  18.784  0.00  0.00    +0.000 A 
ENDBRANCH  17  18
ENDBRANCH   8  17
TORSDOF 3
ENDMDL
MODEL 5
REMARK VINA RESULT:      -7.6      4.582      6.374
REMARK  Name = 
REMARK  3 active torsions:
REMARK  status: ('A' for Active; 'I' for Inactive)
REMARK    1  A    between atoms: C_2  and  C_18
REMARK    2  A    between atoms: C_8  and  O_9
REMARK    3  A    between atoms: O_9  and  C_10
REMARK                            x       y       z     vdW  Elec       q    Type
REMARK                         _______ _______ _______ _____ _____    ______ ____
ROOT
ATOM      1  O   UNL     1       7.598   9.272  17.153  0.00  0.00    +0.000 OA
ATOM      2  C   UNL     1       8.292   8.993  18.125  0.00  0.00    +0.000 C 
ATOM      3  N   UNL     1       8.383   7.736  18.692  0.00  0.00    +0.000 N 
ATOM      4  C   UNL     1       7.669   6.643  18.201  0.00  0.00    +0.000 A 
ATOM      5  C   UNL     1       7.527   6.390  16.833  0.00  0.00    +0.000 A 
ATOM      6  N   UNL     1       6.798   5.354  16.345  0.00  0.00    +0.000 NA
ATOM      7  C   UNL     1       6.165   4.617  17.284  0.00  0.00    +0.000 A 
ATOM      8  C   UNL     1       6.282   4.888  18.642  0.00  0.00    +0.000 A 
ATOM      9  N   UNL     1       7.095   5.855  19.132  0.00  0.00    +0.000 NA
ATOM     10  H   UNL     1       8.666   7.678  19.664  0.00  0.00    +0.000 HD
ENDROOT
BRANCH   2  11
ATOM     11  C   UNL     1       9.058  10.062  18.815  0.00  0.00    +0.000 A 
ATOM     12  C   UNL     1       9.916  10.886  18.104  0.00  0.00    +0.000 A 
ATOM     13  C   UNL     1      10.682  11.799  18.813  0.00  0.00    +0.000 A 
ATOM     14  C   UNL     1      10.545  11.832  20.189  0.00  0.00    +0.000 A 
ATOM     15  N   UNL     1       9.679  11.037  20.855  0.00  0.00    +0.000 NA
ATOM     16  N   UNL     1       8.918  10.143  20.161  0.00  0.00    +0.000 NA
ENDBRANCH   2  11
BRANCH   8  17
ATOM     17  O   UNL     1       5.512   4.131  19.510  0.00  0.00    +0.000 OA
BRANCH  17  18
ATOM     18  C   UNL     1       4.271   3.706  19.080  0.00  0.00    +0.000 A 
ATOM     19  C   UNL     1       3.991   2.357  19.240  0.00  0.00    +0.000 A 
ATOM     20  N   UNL     1       2.834   1.764  18.854  0.00  0.00    +0.000 NA
ATOM     21  C   UNL     1       1.916   2.572  18.274  0.00  0.00    +0.000 A 
ATOM     22  C   UNL     1       2.120   3.921  18.054  0.00  0.00    +0.000 A 
ATOM     23  F   UNL     1       1.175   4.661  17.462  0.00  0.00    +0.000 F 
ATOM     24  C   UNL     1       3.319   4.501  18.447  0.00  0.00    +0.000 A 
ENDBRANCH  17  18
ENDBRANCH   8  17
TORSDOF 3
ENDMDL
MODEL 6
REMARK VINA RESULT:      -7.6      1.235      1.353
REMARK  Name = 
REMARK  3 active torsions:
REMARK  status: ('A' for Active; 'I' for Inactive)
REMARK    1  A    between atoms: C_2  and  C_18
REMARK    2  A    between atoms: C_8  and  O_9
REMARK    3  A    between atoms: O_9  and  C_10
REMARK                            x       y       z     vdW  Elec       q    Type
REMARK                         _______ _______ _______ _____ _____    ______ ____
ROOT
ATOM      1  O   UNL     1       1.415   7.144  21.293  0.00  0.00    +0.000 OA
ATOM      2  C   UNL     1       1.631   7.736  20.240  0.00  0.00    +0.000 C 
ATOM      3  N   UNL     1       2.294   7.196  19.155  0.00  0.00    +0.000 N 
ATOM      4  C   UNL     1       2.800   5.897  19.161  0.00  0.00    +0.000 A 
ATOM      5  C   UNL     1       2.092   4.817  19.698  0.00  0.00    +0.000 A 
ATOM      6  N   UNL     1       2.594   3.557  19.749  0.00  0.00    +0.000 NA
ATOM      7  C   UNL     1       3.860   3.433  19.293  0.00  0.00    +0.000 A 
ATOM      8  C   UNL     1       4.573   4.513  18.787  0.00  0.00    +0.000 A 
ATOM      9  N   UNL     1       4.034   5.747  18.639  0.00  0.00    +0.000 NA
ATOM     10  H   UNL     1       2.737   7.839  18.507  0.00  0.00    +0.000 HD
ENDROOT
BRANCH   2  11
ATOM     11  C   UNL     1       1.224   9.158  20.098  0.00  0.00    +0.000 A 
ATOM     12  C   UNL     1       0.722   9.859  21.183  0.00  0.00    +0.000 A 
ATOM     13  C   UNL     1       0.263  11.150  20.970  0.00  0.00    +0.000 A 
ATOM     14  C   UNL     1       0.331  11.661  19.686  0.00  0.00    +0.000 A 
ATOM     15  N   UNL     1       0.852  10.965  18.651  0.00  0.00    +0.000 NA
ATOM     16  N   UNL     1       1.312   9.697  18.858  0.00  0.00    +0.000 NA
ENDBRANCH   2  11
BRANCH   8  17
ATOM     17  O   UNL     1       5.896   4.294  18.440  0.00  0.00    +0.000 OA
BRANCH  17  18
ATOM     18  C   UNL     1       6.261   4.464  17.120  0.00  0.00    +0.000 A 
ATOM     19  C   UNL     1       7.143   5.501  16.852  0.00  0.00    +0.000 A 
ATOM     20  N   UNL     1       7.589   5.825  15.613  0.00  0.00    +0.000 NA
ATOM     21  C   UNL     1       7.117   5.071  14.594  0.00  0.00    +0.000 A 
ATOM     22  C   UNL     1       6.219   4.034  14.767  0.00  0.00    +0.000 A 
ATOM     23  F   UNL     1       5.782   3.335  13.713  0.00  0.00    +0.000 F 
ATOM     24  C   UNL     1       5.768   3.730  16.044  0.00  0.00    +0.000 A 
ENDBRANCH  17  18
ENDBRANCH   8  17
TORSDOF 3
ENDMDL
MODEL 7
REMARK VINA RESULT:      -7.6      1.658      2.023
REMARK  Name = 
REMARK  3 active torsions:
REMARK  status: ('A' for Active; 'I' for Inactive)
REMARK    1  A    between atoms: C_2  and  C_18
REMARK    2  A    between atoms: C_8  and  O_9
REMARK    3  A    between atoms: O_9  and  C_10
REMARK                            x       y       z     vdW  Elec       q    Type
REMARK                         _______ _______ _______ _____ _____    ______ ____
ROOT
ATOM      1  O   UNL     1       1.515   6.068  20.938  0.00  0.00    +0.000 OA
ATOM      2  C   UNL     1       1.790   6.954  20.135  0.00  0.00    +0.000 C 
ATOM      3  N   UNL     1       2.479   6.760  18.954  0.00  0.00    +0.000 N 
ATOM      4  C   UNL     1       2.945   5.507  18.559  0.00  0.00    +0.000 A 
ATOM      5  C   UNL     1       2.186   4.342  18.704  0.00  0.00    +0.000 A 
ATOM      6  N   UNL     1       2.647   3.112  18.364  0.00  0.00    +0.000 NA
ATOM      7  C   UNL     1       3.926   3.088  17.928  0.00  0.00    +0.000 A 
ATOM      8  C   UNL     1       4.691   4.243  17.813  0.00  0.00    +0.000 A 
ATOM      9  N   UNL     1       4.194   5.481  18.051  0.00  0.00    +0.000 NA
ATOM     10  H   UNL     1       2.966   7.557  18.557  0.00  0.00    +0.000 HD
ENDROOT
BRANCH   2  11
ATOM     11  C   UNL     1       1.431   8.362  20.443  0.00  0.00    +0.000 A 
ATOM     12  C   UNL     1       1.134   8.747  21.741  0.00  0.00    +0.000 A 
ATOM     13  C   UNL     1       0.706  10.049  21.954  0.00  0.00    +0.000 A 
ATOM     14  C   UNL     1       0.600  10.886  20.858  0.00  0.00    +0.000 A 
ATOM     15  N   UNL     1       0.923  10.493  19.606  0.00  0.00    +0.000 NA
ATOM     16  N   UNL     1       1.351   9.215  19.393  0.00  0.00    +0.000 NA
ENDBRANCH   2  11
BRANCH   8  17
ATOM     17  O   UNL     1       6.019   4.092  17.451  0.00  0.00    +0.000 OA
BRANCH  17  18
ATOM     18  C   UNL     1       6.357   4.266  16.124  0.00  0.00    +0.000 A 
ATOM     19  C   UNL     1       7.271   5.272  15.846  0.00  0.00    +0.000 A 
ATOM     20  N   UNL     1       7.699   5.595  14.600  0.00  0.00    +0.000 NA
ATOM     21  C   UNL     1       7.174   4.872  13.585  0.00  0.00    +0.000 A 
ATOM     22  C   UNL     1       6.241   3.868  13.768  0.00  0.00    +0.000 A 
ATOM     23  F   UNL     1       5.752   3.199  12.717  0.00  0.00    +0.000 F 
ATOM     24  C   UNL     1       5.811   3.565  15.053  0.00  0.00    +0.000 A 
ENDBRANCH  17  18
ENDBRANCH   8  17
TORSDOF 3
ENDMDL
MODEL 8
REMARK VINA RESULT:      -7.6      4.737      6.748
REMARK  Name = 
REMARK  3 active torsions:
REMARK  status: ('A' for Active; 'I' for Inactive)
REMARK    1  A    between atoms: C_2  and  C_18
REMARK    2  A    between atoms: C_8  and  O_9
REMARK    3  A    between atoms: O_9  and  C_10
REMARK                            x       y       z     vdW  Elec       q    Type
REMARK                         _______ _______ _______ _____ _____    ______ ____
ROOT
ATOM      1  O   UNL     1       7.659   9.814  17.595  0.00  0.00    +0.000 OA
ATOM      2  C   UNL     1       8.497   9.391  18.385  0.00  0.00    +0.000 C 
ATOM      3  N   UNL     1       8.671   8.059  18.708  0.00  0.00    +0.000 N 
ATOM      4  C   UNL     1       7.882   7.049  18.159  0.00  0.00    +0.000 A 
ATOM      5  C   UNL     1       7.523   7.026  16.808  0.00  0.00    +0.000 A 
ATOM      6  N   UNL     1       6.719   6.071  16.273  0.00  0.00    +0.000 NA
ATOM      7  C   UNL     1       6.240   5.173  17.162  0.00  0.00    +0.000 A 
ATOM      8  C   UNL     1       6.573   5.215  18.510  0.00  0.00    +0.000 A 
ATOM      9  N   UNL     1       7.459   6.103  19.022  0.00  0.00    +0.000 NA
ATOM     10  H   UNL     1       9.105   7.844  19.600  0.00  0.00    +0.000 HD
ENDROOT
BRANCH   2  11
ATOM     11  C   UNL     1       9.369  10.346  19.116  0.00  0.00    +0.000 A 
ATOM     12  C   UNL     1       9.152  10.613  20.458  0.00  0.00    +0.000 A 
ATOM     13  C   UNL     1       9.931  11.588  21.064  0.00  0.00    +0.000 A 
ATOM     14  C   UNL     1      10.877  12.236  20.292  0.00  0.00    +0.000 A 
ATOM     15  N   UNL     1      11.088  11.936  18.991  0.00  0.00    +0.000 NA
ATOM     16  N   UNL     1      10.329  10.972  18.393  0.00  0.00    +0.000 NA
ENDBRANCH   2  11
BRANCH   8  17
ATOM     17  O   UNL     1       5.947   4.306  19.348  0.00  0.00    +0.000 OA
BRANCH  17  18
ATOM     18  C   UNL     1       4.570   4.332  19.425  0.00  0.00    +0.000 A 
ATOM     19  C   UNL     1       3.910   3.163  19.071  0.00  0.00    +0.000 A 
ATOM     20  N   UNL     1       2.562   3.017  19.066  0.00  0.00    +0.000 NA
ATOM     21  C   UNL     1       1.844   4.104  19.430  0.00  0.00    +0.000 A 
ATOM     22  C   UNL     1       2.417   5.314  19.776  0.00  0.00    +0.000 A 
ATOM     23  F   UNL     1       1.647   6.355  20.115  0.00  0.00    +0.000 F 
ATOM     24  C   UNL     1       3.799   5.441  19.761  0.00  0.00    +0.000 A 
ENDBRANCH  17  18
ENDBRANCH   8  17
TORSDOF 3
ENDMDL
MODEL 9
REMARK VINA RESULT:      -7.5      4.610      6.418
REMARK  Name = 
REMARK  3 active torsions:
REMARK  status: ('A' for Active; 'I' for Inactive)
REMARK    1  A    between atoms: C_2  and  C_18
REMARK    2  A    between atoms: C_8  and  O_9
REMARK    3  A    between atoms: O_9  and  C_10
REMARK                            x       y       z     vdW  Elec       q    Type
REMARK                         _______ _______ _______ _____ _____    ______ ____
ROOT
ATOM      1  O   UNL     1       7.650   9.265  17.149  0.00  0.00    +0.000 OA
ATOM      2  C   UNL     1       8.333   9.003  18.135  0.00  0.00    +0.000 C 
ATOM      3  N   UNL     1       8.416   7.757  18.726  0.00  0.00    +0.000 N 
ATOM      4  C   UNL     1       7.705   6.656  18.249  0.00  0.00    +0.000 A 
ATOM      5  C   UNL     1       7.577   6.377  16.885  0.00  0.00    +0.000 A 
ATOM      6  N   UNL     1       6.851   5.333  16.409  0.00  0.00    +0.000 NA
ATOM      7  C   UNL     1       6.206   4.615  17.355  0.00  0.00    +0.000 A 
ATOM      8  C   UNL     1       6.309   4.912  18.709  0.00  0.00    +0.000 A 
ATOM      9  N   UNL     1       7.119   5.887  19.189  0.00  0.00    +0.000 NA
ATOM     10  H   UNL     1       8.688   7.717  19.702  0.00  0.00    +0.000 HD
ENDROOT
BRANCH   2  11
ATOM     11  C   UNL     1       9.094  10.084  18.812  0.00  0.00    +0.000 A 
ATOM     12  C   UNL     1       9.089  10.190  20.194  0.00  0.00    +0.000 A 
ATOM     13  C   UNL     1       9.732  11.277  20.767  0.00  0.00    +0.000 A 
ATOM     14  C   UNL     1      10.338  12.192  19.925  0.00  0.00    +0.000 A 
ATOM     15  N   UNL     1      10.352  12.049  18.582  0.00  0.00    +0.000 NA
ATOM     16  N   UNL     1       9.727  10.977  18.014  0.00  0.00    +0.000 NA
ENDBRANCH   2  11
BRANCH   8  17
ATOM     17  O   UNL     1       5.528   4.174  19.583  0.00  0.00    +0.000 OA
BRANCH  17  18
ATOM     18  C   UNL     1       4.291   3.745  19.148  0.00  0.00    +0.000 A 
ATOM     19  C   UNL     1       4.017   2.394  19.301  0.00  0.00    +0.000 A 
ATOM     20  N   UNL     1       2.863   1.798  18.910  0.00  0.00    +0.000 NA
ATOM     21  C   UNL     1       1.942   2.604  18.333  0.00  0.00    +0.000 A 
ATOM     22  C   UNL     1       2.140   3.956  18.122  0.00  0.00    +0.000 A 
ATOM     23  F   UNL     1       1.192   4.694  17.533  0.00  0.00    +0.000 F 
ATOM     24  C   UNL     1       3.336   4.539  18.519  0.00  0.00    +0.000 A 
ENDBRANCH  17  18
ENDBRANCH   8  17
TORSDOF 3
ENDMDL
