MODEL 1
REMARK VINA RESULT:      -7.3      0.000      0.000
REMARK  Name = 
REMARK  5 active torsions:
REMARK  status: ('A' for Active; 'I' for Inactive)
REMARK    1  A    between atoms: C_1  and  C_2
REMARK    2  A    between atoms: C_6  and  C_7
REMARK    3  A    between atoms: C_7  and  C_8
REMARK    4  A    between atoms: C_27  and  C_28
REMARK    5  A    between atoms: N_33  and  C_34
REMARK                            x       y       z     vdW  Elec       q    Type
REMARK                         _______ _______ _______ _____ _____    ______ ____
ROOT
ATOM      1  C   UNL     1      -0.448  16.822  21.857  0.00  0.00    +0.000 C 
ATOM      2  C   UNL     1       0.497  15.664  22.356  0.00  0.00    +0.000 C 
ATOM      3  C   UNL     1       2.322  16.206  21.849  0.00  0.00    +0.000 C 
ATOM      4  O   UNL     1       2.453  17.458  21.981  0.00  0.00    +0.000 OA
ATOM      5  N   UNL     1       3.693  15.733  21.190  0.00  0.00    +0.000 N 
ATOM      6  C   UNL     1       5.484  15.974  20.734  0.00  0.00    +0.000 C 
ATOM      7  C   UNL     1       5.613  17.074  19.548  0.00  0.00    +0.000 C 
ATOM      8  O   UNL     1       6.141  18.172  19.738  0.00  0.00    +0.000 OA
ATOM      9  N   UNL     1       5.394  16.701  18.235  0.00  0.00    +0.000 N 
ATOM     10  C   UNL     1       4.910  15.418  17.777  0.00  0.00    +0.000 C 
ATOM     11  C   UNL     1       3.412  15.357  17.904  0.00  0.00    +0.000 C 
ATOM     12  C   UNL     1       3.101  14.221  18.805  0.00  0.00    +0.000 C 
ATOM     13  C   UNL     1       1.971  14.202  19.499  0.00  0.00    +0.000 C 
ATOM     14  C   UNL     1       1.876  13.298  20.655  0.00  0.00    +0.000 C 
ATOM     15  O   UNL     1       0.515  13.057  20.691  0.00  0.00    +0.000 OA
ATOM     16  C   UNL     1       0.178  12.143  21.697  0.00  0.00    +0.000 C 
ATOM     17  C   UNL     1      -1.266  11.871  21.368  0.00  0.00    +0.000 C 
ATOM     18  N   UNL     1      -2.015  11.731  22.597  0.00  0.00    +0.000 NA
ATOM     19  C   UNL     1      -3.075  12.752  22.569  0.00  0.00    +0.000 C 
ATOM     20  C   UNL     1      -2.222  14.261  22.299  0.00  0.00    +0.000 C 
ATOM     21  O   UNL     1      -2.848  15.176  21.659  0.00  0.00    +0.000 OA
ATOM     22  N   UNL     1      -0.870  14.584  22.965  0.00  0.00    +0.000 N 
ATOM     23  C   UNL     1      -1.427  14.934  24.296  0.00  0.00    +0.000 C 
ATOM     24  H   UNL     1       3.738  16.751  21.077  0.00  0.00    +0.000 HD
ATOM     25  H   UNL     1       5.674  17.375  17.526  0.00  0.00    +0.000 HD
ATOM     26  H   UNL     1      -1.436  11.978  23.401  0.00  0.00    +0.000 HD
ENDROOT
BRANCH  19  27
ATOM     27  C   UNL     1      -3.936  12.181  23.765  0.00  0.00    +0.000 C 
ATOM     28  C   UNL     1      -4.366  12.802  25.105  0.00  0.00    +0.000 C 
ATOM     29  C   UNL     1      -5.325  12.895  23.976  0.00  0.00    +0.000 C 
ENDBRANCH  19  27
BRANCH   6  30
ATOM     30  C   UNL     1       7.042  15.154  20.055  0.00  0.00    +0.000 C 
BRANCH  30  31
ATOM     31  C   UNL     1       8.329  14.200  20.180  0.00  0.00    +0.000 A 
ATOM     32  C   UNL     1       9.195  13.951  19.124  0.00  0.00    +0.000 A 
ATOM     33  C   UNL     1      10.320  13.114  19.227  0.00  0.00    +0.000 A 
ATOM     34  C   UNL     1      10.635  12.447  20.428  0.00  0.00    +0.000 A 
ATOM     35  F   UNL     1      11.738  11.681  20.511  0.00  0.00    +0.000 F 
ATOM     36  C   UNL     1       9.795  12.580  21.506  0.00  0.00    +0.000 A 
ATOM     37  C   UNL     1       8.646  13.432  21.370  0.00  0.00    +0.000 A 
ENDBRANCH  30  31
ENDBRANCH   6  30
TORSDOF 3
ENDMDL
MODEL 2
REMARK VINA RESULT:      -7.1      1.030      1.111
REMARK  Name = 
REMARK  5 active torsions:
REMARK  status: ('A' for Active; 'I' for Inactive)
REMARK    1  A    between atoms: C_1  and  C_2
REMARK    2  A    between atoms: C_6  and  C_7
REMARK    3  A    between atoms: C_7  and  C_8
REMARK    4  A    between atoms: C_27  and  C_28
REMARK    5  A    between atoms: N_33  and  C_34
REMARK                            x       y       z     vdW  Elec       q    Type
REMARK                         _______ _______ _______ _____ _____    ______ ____
ROOT
ATOM      1  C   UNL     1       0.069  17.024  22.087  0.00  0.00    +0.000 C 
ATOM      2  C   UNL     1       0.903  15.739  22.450  0.00  0.00    +0.000 C 
ATOM      3  C   UNL     1       2.789  16.220  22.144  0.00  0.00    +0.000 C 
ATOM      4  O   UNL     1       2.988  17.423  22.481  0.00  0.00    +0.000 OA
ATOM      5  N   UNL     1       4.171  15.757  21.500  0.00  0.00    +0.000 N 
ATOM      6  C   UNL     1       6.001  15.935  21.194  0.00  0.00    +0.000 C 
ATOM      7  C   UNL     1       6.280  17.193  20.208  0.00  0.00    +0.000 C 
ATOM      8  O   UNL     1       6.860  18.208  20.601  0.00  0.00    +0.000 OA
ATOM      9  N   UNL     1       6.130  17.045  18.842  0.00  0.00    +0.000 N 
ATOM     10  C   UNL     1       5.600  15.886  18.158  0.00  0.00    +0.000 C 
ATOM     11  C   UNL     1       4.096  15.915  18.185  0.00  0.00    +0.000 C 
ATOM     12  C   UNL     1       3.654  14.678  18.874  0.00  0.00    +0.000 C 
ATOM     13  C   UNL     1       2.479  14.634  19.488  0.00  0.00    +0.000 C 
ATOM     14  C   UNL     1       2.248  13.571  20.478  0.00  0.00    +0.000 C 
ATOM     15  O   UNL     1       0.875  13.426  20.394  0.00  0.00    +0.000 OA
ATOM     16  C   UNL     1       0.413  12.394  21.220  0.00  0.00    +0.000 C 
ATOM     17  C   UNL     1      -1.019  12.281  20.768  0.00  0.00    +0.000 C 
ATOM     18  N   UNL     1      -1.858  12.007  21.913  0.00  0.00    +0.000 NA
ATOM     19  C   UNL     1      -2.848  13.094  21.985  0.00  0.00    +0.000 C 
ATOM     20  C   UNL     1      -1.887  14.561  22.010  0.00  0.00    +0.000 C 
ATOM     21  O   UNL     1      -2.408  15.607  21.488  0.00  0.00    +0.000 OA
ATOM     22  N   UNL     1      -0.567  14.679  22.797  0.00  0.00    +0.000 N 
ATOM     23  C   UNL     1      -1.192  14.858  24.132  0.00  0.00    +0.000 C 
ATOM     24  H   UNL     1       4.287  16.774  21.553  0.00  0.00    +0.000 HD
ATOM     25  H   UNL     1       6.500  17.799  18.267  0.00  0.00    +0.000 HD
ATOM     26  H   UNL     1      -1.322  12.084  22.778  0.00  0.00    +0.000 HD
ENDROOT
BRANCH  19  27
ATOM     27  C   UNL     1      -3.825  12.408  23.023  0.00  0.00    +0.000 C 
ATOM     28  C   UNL     1      -4.072  12.664  24.519  0.00  0.00    +0.000 C 
ATOM     29  C   UNL     1      -4.978  13.340  23.556  0.00  0.00    +0.000 C 
ENDBRANCH  19  27
BRANCH   6  30
ATOM     30  C   UNL     1       7.548  15.120  20.486  0.00  0.00    +0.000 C 
BRANCH  30  31
ATOM     31  C   UNL     1       8.318  13.946  19.703  0.00  0.00    +0.000 A 
ATOM     32  C   UNL     1       8.244  13.774  18.328  0.00  0.00    +0.000 A 
ATOM     33  C   UNL     1       8.912  12.747  17.640  0.00  0.00    +0.000 A 
ATOM     34  C   UNL     1       9.700  11.796  18.318  0.00  0.00    +0.000 A 
ATOM     35  F   UNL     1      10.360  10.845  17.632  0.00  0.00    +0.000 F 
ATOM     36  C   UNL     1       9.776  11.848  19.688  0.00  0.00    +0.000 A 
ATOM     37  C   UNL     1       9.074  12.901  20.368  0.00  0.00    +0.000 A 
ENDBRANCH  30  31
ENDBRANCH   6  30
TORSDOF 3
ENDMDL
MODEL 3
REMARK VINA RESULT:      -6.9      1.386      1.677
REMARK  Name = 
REMARK  5 active torsions:
REMARK  status: ('A' for Active; 'I' for Inactive)
REMARK    1  A    between atoms: C_1  and  C_2
REMARK    2  A    between atoms: C_6  and  C_7
REMARK    3  A    between atoms: C_7  and  C_8
REMARK    4  A    between atoms: C_27  and  C_28
REMARK    5  A    between atoms: N_33  and  C_34
REMARK                            x       y       z     vdW  Elec       q    Type
REMARK                         _______ _______ _______ _____ _____    ______ ____
ROOT
ATOM      1  C   UNL     1       0.403  16.882  21.814  0.00  0.00    +0.000 C 
ATOM      2  C   UNL     1       1.127  15.536  22.193  0.00  0.00    +0.000 C 
ATOM      3  C   UNL     1       3.051  15.869  21.925  0.00  0.00    +0.000 C 
ATOM      4  O   UNL     1       3.336  17.054  22.267  0.00  0.00    +0.000 OA
ATOM      5  N   UNL     1       4.405  15.300  21.308  0.00  0.00    +0.000 N 
ATOM      6  C   UNL     1       6.249  15.336  21.039  0.00  0.00    +0.000 C 
ATOM      7  C   UNL     1       6.644  16.569  20.060  0.00  0.00    +0.000 C 
ATOM      8  O   UNL     1       7.294  17.535  20.466  0.00  0.00    +0.000 OA
ATOM      9  N   UNL     1       6.510  16.432  18.691  0.00  0.00    +0.000 N 
ATOM     10  C   UNL     1       5.906  15.317  17.995  0.00  0.00    +0.000 C 
ATOM     11  C   UNL     1       4.409  15.462  17.993  0.00  0.00    +0.000 C 
ATOM     12  C   UNL     1       3.858  14.264  18.671  0.00  0.00    +0.000 C 
ATOM     13  C   UNL     1       2.671  14.311  19.262  0.00  0.00    +0.000 C 
ATOM     14  C   UNL     1       2.339  13.270  20.246  0.00  0.00    +0.000 C 
ATOM     15  O   UNL     1       0.962  13.232  20.135  0.00  0.00    +0.000 OA
ATOM     16  C   UNL     1       0.404  12.239  20.951  0.00  0.00    +0.000 C 
ATOM     17  C   UNL     1      -1.023  12.238  20.470  0.00  0.00    +0.000 C 
ATOM     18  N   UNL     1      -1.904  12.030  21.598  0.00  0.00    +0.000 NA
ATOM     19  C   UNL     1      -2.808  13.190  21.651  0.00  0.00    +0.000 C 
ATOM     20  C   UNL     1      -1.736  14.578  21.696  0.00  0.00    +0.000 C 
ATOM     21  O   UNL     1      -2.164  15.661  21.165  0.00  0.00    +0.000 OA
ATOM     22  N   UNL     1      -0.427  14.594  22.510  0.00  0.00    +0.000 N 
ATOM     23  C   UNL     1      -1.063  14.821  23.832  0.00  0.00    +0.000 C 
ATOM     24  H   UNL     1       4.599  16.306  21.364  0.00  0.00    +0.000 HD
ATOM     25  H   UNL     1       6.949  17.155  18.124  0.00  0.00    +0.000 HD
ATOM     26  H   UNL     1      -1.380  12.065  22.474  0.00  0.00    +0.000 HD
ENDROOT
BRANCH  19  27
ATOM     27  C   UNL     1      -3.854  12.583  22.669  0.00  0.00    +0.000 C 
ATOM     28  C   UNL     1      -4.666  13.224  23.807  0.00  0.00    +0.000 C 
ATOM     29  C   UNL     1      -5.330  13.103  22.484  0.00  0.00    +0.000 C 
ENDBRANCH  19  27
BRANCH   6  30
ATOM     30  C   UNL     1       7.743  14.404  20.361  0.00  0.00    +0.000 C 
BRANCH  30  31
ATOM     31  C   UNL     1       8.826  14.069  19.221  0.00  0.00    +0.000 A 
ATOM     32  C   UNL     1       8.931  12.824  18.616  0.00  0.00    +0.000 A 
ATOM     33  C   UNL     1       9.879  12.525  17.623  0.00  0.00    +0.000 A 
ATOM     34  C   UNL     1      10.814  13.484  17.182  0.00  0.00    +0.000 A 
ATOM     35  F   UNL     1      11.686  13.184  16.203  0.00  0.00    +0.000 F 
ATOM     36  C   UNL     1      10.827  14.723  17.774  0.00  0.00    +0.000 A 
ATOM     37  C   UNL     1       9.855  14.999  18.796  0.00  0.00    +0.000 A 
ENDBRANCH  30  31
ENDBRANCH   6  30
TORSDOF 3
ENDMDL
MODEL 4
REMARK VINA RESULT:      -6.8      1.806      2.075
REMARK  Name = 
REMARK  5 active torsions:
REMARK  status: ('A' for Active; 'I' for Inactive)
REMARK    1  A    between atoms: C_1  and  C_2
REMARK    2  A    between atoms: C_6  and  C_7
REMARK    3  A    between atoms: C_7  and  C_8
REMARK    4  A    between atoms: C_27  and  C_28
REMARK    5  A    between atoms: N_33  and  C_34
REMARK                            x       y       z     vdW  Elec       q    Type
REMARK                         _______ _______ _______ _____ _____    ______ ____
ROOT
ATOM      1  C   UNL     1       0.332  16.448  22.412  0.00  0.00    +0.000 C 
ATOM      2  C   UNL     1       1.026  15.047  22.223  0.00  0.00    +0.000 C 
ATOM      3  C   UNL     1       2.963  15.391  22.325  0.00  0.00    +0.000 C 
ATOM      4  O   UNL     1       3.198  16.290  23.184  0.00  0.00    +0.000 OA
ATOM      5  N   UNL     1       4.382  15.104  21.658  0.00  0.00    +0.000 N 
ATOM      6  C   UNL     1       6.243  15.186  21.619  0.00  0.00    +0.000 C 
ATOM      7  C   UNL     1       6.727  16.709  21.335  0.00  0.00    +0.000 C 
ATOM      8  O   UNL     1       7.319  17.370  22.191  0.00  0.00    +0.000 OA
ATOM      9  N   UNL     1       6.741  17.198  20.043  0.00  0.00    +0.000 N 
ATOM     10  C   UNL     1       6.226  16.530  18.867  0.00  0.00    +0.000 C 
ATOM     11  C   UNL     1       4.736  16.717  18.779  0.00  0.00    +0.000 C 
ATOM     12  C   UNL     1       4.130  15.365  18.795  0.00  0.00    +0.000 C 
ATOM     13  C   UNL     1       2.886  15.190  19.224  0.00  0.00    +0.000 C 
ATOM     14  C   UNL     1       2.462  13.834  19.603  0.00  0.00    +0.000 C 
ATOM     15  O   UNL     1       1.105  13.901  19.350  0.00  0.00    +0.000 OA
ATOM     16  C   UNL     1       0.475  12.671  19.579  0.00  0.00    +0.000 C 
ATOM     17  C   UNL     1      -0.893  12.936  19.008  0.00  0.00    +0.000 C 
ATOM     18  N   UNL     1      -1.886  12.284  19.831  0.00  0.00    +0.000 NA
ATOM     19  C   UNL     1      -2.804  13.333  20.304  0.00  0.00    +0.000 C 
ATOM     20  C   UNL     1      -1.758  14.516  21.068  0.00  0.00    +0.000 C 
ATOM     21  O   UNL     1      -2.139  15.738  21.034  0.00  0.00    +0.000 OA
ATOM     22  N   UNL     1      -0.543  14.120  21.930  0.00  0.00    +0.000 N 
ATOM     23  C   UNL     1      -1.318  13.763  23.145  0.00  0.00    +0.000 C 
ATOM     24  H   UNL     1       4.557  15.972  22.174  0.00  0.00    +0.000 HD
ATOM     25  H   UNL     1       7.230  18.080  19.903  0.00  0.00    +0.000 HD
ATOM     26  H   UNL     1      -1.460  11.908  20.679  0.00  0.00    +0.000 HD
ENDROOT
BRANCH  19  27
ATOM     27  C   UNL     1      -3.946  12.378  20.835  0.00  0.00    +0.000 C 
ATOM     28  C   UNL     1      -5.232  12.663  21.629  0.00  0.00    +0.000 C 
ATOM     29  C   UNL     1      -5.350  12.588  20.152  0.00  0.00    +0.000 C 
ENDBRANCH  19  27
BRANCH   6  30
ATOM     30  C   UNL     1       7.810  14.595  20.750  0.00  0.00    +0.000 C 
BRANCH  30  31
ATOM     31  C   UNL     1       8.626  13.596  19.791  0.00  0.00    +0.000 A 
ATOM     32  C   UNL     1       8.665  13.732  18.410  0.00  0.00    +0.000 A 
ATOM     33  C   UNL     1       9.373  12.859  17.566  0.00  0.00    +0.000 A 
ATOM     34  C   UNL     1      10.088  11.758  18.078  0.00  0.00    +0.000 A 
ATOM     35  F   UNL     1      10.789  10.959  17.252  0.00  0.00    +0.000 F 
ATOM     36  C   UNL     1      10.049  11.505  19.427  0.00  0.00    +0.000 A 
ATOM     37  C   UNL     1       9.308  12.406  20.266  0.00  0.00    +0.000 A 
ENDBRANCH  30  31
ENDBRANCH   6  30
TORSDOF 3
ENDMDL
MODEL 5
REMARK VINA RESULT:      -6.7      3.812     10.451
REMARK  Name = 
REMARK  5 active torsions:
REMARK  status: ('A' for Active; 'I' for Inactive)
REMARK    1  A    between atoms: C_1  and  C_2
REMARK    2  A    between atoms: C_6  and  C_7
REMARK    3  A    between atoms: C_7  and  C_8
REMARK    4  A    between atoms: C_27  and  C_28
REMARK    5  A    between atoms: N_33  and  C_34
REMARK                            x       y       z     vdW  Elec       q    Type
REMARK                         _______ _______ _______ _____ _____    ______ ____
ROOT
ATOM      1  C   UNL     1       7.046  16.103  18.528  0.00  0.00    +0.000 C 
ATOM      2  C   UNL     1       6.511  14.777  19.187  0.00  0.00    +0.000 C 
ATOM      3  C   UNL     1       4.589  15.075  19.503  0.00  0.00    +0.000 C 
ATOM      4  O   UNL     1       4.095  15.753  18.556  0.00  0.00    +0.000 OA
ATOM      5  N   UNL     1       3.398  14.935  20.552  0.00  0.00    +0.000 N 
ATOM      6  C   UNL     1       1.601  15.010  21.040  0.00  0.00    +0.000 C 
ATOM      7  C   UNL     1       1.103  16.553  21.098  0.00  0.00    +0.000 C 
ATOM      8  O   UNL     1       0.279  16.999  20.296  0.00  0.00    +0.000 OA
ATOM      9  N   UNL     1       1.374  17.323  22.214  0.00  0.00    +0.000 N 
ATOM     10  C   UNL     1       2.201  16.943  23.338  0.00  0.00    +0.000 C 
ATOM     11  C   UNL     1       3.652  17.157  23.005  0.00  0.00    +0.000 C 
ATOM     12  C   UNL     1       4.322  15.840  23.131  0.00  0.00    +0.000 C 
ATOM     13  C   UNL     1       5.433  15.582  22.452  0.00  0.00    +0.000 C 
ATOM     14  C   UNL     1       5.837  14.179  22.282  0.00  0.00    +0.000 C 
ATOM     15  O   UNL     1       7.208  14.312  22.165  0.00  0.00    +0.000 OA
ATOM     16  C   UNL     1       7.842  13.067  22.058  0.00  0.00    +0.000 C 
ATOM     17  C   UNL     1       9.287  13.465  22.194  0.00  0.00    +0.000 C 
ATOM     18  N   UNL     1      10.090  12.650  21.309  0.00  0.00    +0.000 NA
ATOM     19  C   UNL     1      10.795  13.572  20.404  0.00  0.00    +0.000 C 
ATOM     20  C   UNL     1       9.520  14.543  19.689  0.00  0.00    +0.000 C 
ATOM     21  O   UNL     1       9.819  15.744  19.360  0.00  0.00    +0.000 OA
ATOM     22  N   UNL     1       8.160  13.953  19.268  0.00  0.00    +0.000 N 
ATOM     23  C   UNL     1       8.637  13.335  18.006  0.00  0.00    +0.000 C 
ATOM     24  H   UNL     1       3.046  15.662  19.920  0.00  0.00    +0.000 HD
ATOM     25  H   UNL     1       0.878  18.210  22.277  0.00  0.00    +0.000 HD
ATOM     26  H   UNL     1       9.494  12.089  20.699  0.00  0.00    +0.000 HD
ENDROOT
BRANCH  19  27
ATOM     27  C   UNL     1      11.832  12.530  19.823  0.00  0.00    +0.000 C 
ATOM     28  C   UNL     1      11.732  11.521  18.668  0.00  0.00    +0.000 C 
ATOM     29  C   UNL     1      12.333  12.844  18.363  0.00  0.00    +0.000 C 
ENDBRANCH  19  27
BRANCH   6  30
ATOM     30  C   UNL     1       0.334  14.619  22.383  0.00  0.00    +0.000 C 
BRANCH  30  31
ATOM     31  C   UNL     1      -1.137  14.215  22.891  0.00  0.00    +0.000 A 
ATOM     32  C   UNL     1      -1.921  15.043  23.682  0.00  0.00    +0.000 A 
ATOM     33  C   UNL     1      -3.205  14.692  24.132  0.00  0.00    +0.000 A 
ATOM     34  C   UNL     1      -3.782  13.445  23.818  0.00  0.00    +0.000 A 
ATOM     35  F   UNL     1      -5.029  13.150  24.230  0.00  0.00    +0.000 F 
ATOM     36  C   UNL     1      -3.051  12.535  23.096  0.00  0.00    +0.000 A 
ATOM     37  C   UNL     1      -1.736  12.913  22.659  0.00  0.00    +0.000 A 
ENDBRANCH  30  31
ENDBRANCH   6  30
TORSDOF 3
ENDMDL
MODEL 6
REMARK VINA RESULT:      -6.7      7.285     11.363
REMARK  Name = 
REMARK  5 active torsions:
REMARK  status: ('A' for Active; 'I' for Inactive)
REMARK    1  A    between atoms: C_1  and  C_2
REMARK    2  A    between atoms: C_6  and  C_7
REMARK    3  A    between atoms: C_7  and  C_8
REMARK    4  A    between atoms: C_27  and  C_28
REMARK    5  A    between atoms: N_33  and  C_34
REMARK                            x       y       z     vdW  Elec       q    Type
REMARK                         _______ _______ _______ _____ _____    ______ ____
ROOT
ATOM      1  C   UNL     1       4.024   7.823  17.960  0.00  0.00    +0.000 C 
ATOM      2  C   UNL     1       2.536   7.333  18.115  0.00  0.00    +0.000 C 
ATOM      3  C   UNL     1       1.425   8.958  18.018  0.00  0.00    +0.000 C 
ATOM      4  O   UNL     1       1.917   9.769  17.180  0.00  0.00    +0.000 OA
ATOM      5  N   UNL     1       0.215   9.758  18.676  0.00  0.00    +0.000 N 
ATOM      6  C   UNL     1      -1.032  11.143  18.715  0.00  0.00    +0.000 C 
ATOM      7  C   UNL     1      -0.291  12.551  19.034  0.00  0.00    +0.000 C 
ATOM      8  O   UNL     1      -0.218  13.450  18.194  0.00  0.00    +0.000 OA
ATOM      9  N   UNL     1       0.025  12.883  20.338  0.00  0.00    +0.000 N 
ATOM     10  C   UNL     1      -0.111  12.029  21.498  0.00  0.00    +0.000 C 
ATOM     11  C   UNL     1       1.065  11.096  21.592  0.00  0.00    +0.000 C 
ATOM     12  C   UNL     1       0.526   9.716  21.545  0.00  0.00    +0.000 C 
ATOM     13  C   UNL     1       1.281   8.713  21.114  0.00  0.00    +0.000 C 
ATOM     14  C   UNL     1       0.618   7.467  20.703  0.00  0.00    +0.000 C 
ATOM     15  O   UNL     1       1.612   6.541  20.959  0.00  0.00    +0.000 OA
ATOM     16  C   UNL     1       1.181   5.234  20.702  0.00  0.00    +0.000 C 
ATOM     17  C   UNL     1       2.318   4.435  21.281  0.00  0.00    +0.000 C 
ATOM     18  N   UNL     1       2.564   3.282  20.444  0.00  0.00    +0.000 NA
ATOM     19  C   UNL     1       3.964   3.371  19.997  0.00  0.00    +0.000 C 
ATOM     20  C   UNL     1       4.088   4.958  19.260  0.00  0.00    +0.000 C 
ATOM     21  O   UNL     1       5.226   5.541  19.324  0.00  0.00    +0.000 OA
ATOM     22  N   UNL     1       2.970   5.560  18.387  0.00  0.00    +0.000 N 
ATOM     23  C   UNL     1       3.279   4.776  17.165  0.00  0.00    +0.000 C 
ATOM     24  H   UNL     1       0.720  10.500  18.180  0.00  0.00    +0.000 HD
ATOM     25  H   UNL     1       0.309  13.847  20.498  0.00  0.00    +0.000 HD
ATOM     26  H   UNL     1       2.012   3.337  19.587  0.00  0.00    +0.000 HD
ENDROOT
BRANCH  19  27
ATOM     27  C   UNL     1       4.093   1.895  19.445  0.00  0.00    +0.000 C 
ATOM     28  C   UNL     1       3.177   1.058  18.536  0.00  0.00    +0.000 C 
ATOM     29  C   UNL     1       4.292   1.790  17.886  0.00  0.00    +0.000 C 
ENDBRANCH  19  27
BRANCH   6  30
ATOM     30  C   UNL     1      -2.568  11.833  19.567  0.00  0.00    +0.000 C 
BRANCH  30  31
ATOM     31  C   UNL     1      -4.036  12.487  19.564  0.00  0.00    +0.000 A 
ATOM     32  C   UNL     1      -4.438  13.455  20.474  0.00  0.00    +0.000 A 
ATOM     33  C   UNL     1      -5.721  14.027  20.478  0.00  0.00    +0.000 A 
ATOM     34  C   UNL     1      -6.708  13.633  19.551  0.00  0.00    +0.000 A 
ATOM     35  F   UNL     1      -7.916  14.223  19.552  0.00  0.00    +0.000 F 
ATOM     36  C   UNL     1      -6.420  12.631  18.657  0.00  0.00    +0.000 A 
ATOM     37  C   UNL     1      -5.104  12.055  18.682  0.00  0.00    +0.000 A 
ENDBRANCH  30  31
ENDBRANCH   6  30
TORSDOF 3
ENDMDL
MODEL 7
REMARK VINA RESULT:      -6.6      2.228      2.813
REMARK  Name = 
REMARK  5 active torsions:
REMARK  status: ('A' for Active; 'I' for Inactive)
REMARK    1  A    between atoms: C_1  and  C_2
REMARK    2  A    between atoms: C_6  and  C_7
REMARK    3  A    between atoms: C_7  and  C_8
REMARK    4  A    between atoms: C_27  and  C_28
REMARK    5  A    between atoms: N_33  and  C_34
REMARK                            x       y       z     vdW  Elec       q    Type
REMARK                         _______ _______ _______ _____ _____    ______ ____
ROOT
ATOM      1  C   UNL     1       0.754  16.044  22.342  0.00  0.00    +0.000 C 
ATOM      2  C   UNL     1       1.460  14.683  21.981  0.00  0.00    +0.000 C 
ATOM      3  C   UNL     1       3.390  15.004  22.212  0.00  0.00    +0.000 C 
ATOM      4  O   UNL     1       3.585  15.768  23.202  0.00  0.00    +0.000 OA
ATOM      5  N   UNL     1       4.836  14.812  21.571  0.00  0.00    +0.000 N 
ATOM      6  C   UNL     1       6.697  14.893  21.622  0.00  0.00    +0.000 C 
ATOM      7  C   UNL     1       7.188  16.440  21.582  0.00  0.00    +0.000 C 
ATOM      8  O   UNL     1       7.741  16.969  22.549  0.00  0.00    +0.000 OA
ATOM      9  N   UNL     1       7.254  17.111  20.376  0.00  0.00    +0.000 N 
ATOM     10  C   UNL     1       6.791  16.622  19.096  0.00  0.00    +0.000 C 
ATOM     11  C   UNL     1       5.305  16.825  18.974  0.00  0.00    +0.000 C 
ATOM     12  C   UNL     1       4.702  15.486  18.768  0.00  0.00    +0.000 C 
ATOM     13  C   UNL     1       3.443  15.254  19.115  0.00  0.00    +0.000 C 
ATOM     14  C   UNL     1       3.008  13.859  19.276  0.00  0.00    +0.000 C 
ATOM     15  O   UNL     1       1.662  13.965  18.978  0.00  0.00    +0.000 OA
ATOM     16  C   UNL     1       1.026  12.717  19.000  0.00  0.00    +0.000 C 
ATOM     17  C   UNL     1      -0.317  13.067  18.417  0.00  0.00    +0.000 C 
ATOM     18  N   UNL     1      -1.342  12.304  19.094  0.00  0.00    +0.000 NA
ATOM     19  C   UNL     1      -2.281  13.277  19.676  0.00  0.00    +0.000 C 
ATOM     20  C   UNL     1      -1.272  14.334  20.646  0.00  0.00    +0.000 C 
ATOM     21  O   UNL     1      -1.655  15.549  20.774  0.00  0.00    +0.000 OA
ATOM     22  N   UNL     1      -0.093  13.813  21.492  0.00  0.00    +0.000 N 
ATOM     23  C   UNL     1      -0.917  13.286  22.609  0.00  0.00    +0.000 C 
ATOM     24  H   UNL     1       4.987  15.596  22.215  0.00  0.00    +0.000 HD
ATOM     25  H   UNL     1       7.745  18.002  20.386  0.00  0.00    +0.000 HD
ATOM     26  H   UNL     1      -0.949  11.809  19.896  0.00  0.00    +0.000 HD
ENDROOT
BRANCH  19  27
ATOM     27  C   UNL     1      -3.442  12.258  20.015  0.00  0.00    +0.000 C 
ATOM     28  C   UNL     1      -4.916  12.475  20.393  0.00  0.00    +0.000 C 
ATOM     29  C   UNL     1      -4.613  12.222  18.962  0.00  0.00    +0.000 C 
ENDBRANCH  19  27
BRANCH   6  30
ATOM     30  C   UNL     1       8.301  14.430  20.743  0.00  0.00    +0.000 C 
BRANCH  30  31
ATOM     31  C   UNL     1       9.164  14.060  19.438  0.00  0.00    +0.000 A 
ATOM     32  C   UNL     1       9.099  12.824  18.810  0.00  0.00    +0.000 A 
ATOM     33  C   UNL     1       9.855  12.494  17.672  0.00  0.00    +0.000 A 
ATOM     34  C   UNL     1      10.758  13.410  17.095  0.00  0.00    +0.000 A 
ATOM     35  F   UNL     1      11.441  13.083  15.983  0.00  0.00    +0.000 F 
ATOM     36  C   UNL     1      10.938  14.634  17.691  0.00  0.00    +0.000 A 
ATOM     37  C   UNL     1      10.162  14.941  18.860  0.00  0.00    +0.000 A 
ENDBRANCH  30  31
ENDBRANCH   6  30
TORSDOF 3
ENDMDL
MODEL 8
REMARK VINA RESULT:      -6.6      4.002     10.461
REMARK  Name = 
REMARK  5 active torsions:
REMARK  status: ('A' for Active; 'I' for Inactive)
REMARK    1  A    between atoms: C_1  and  C_2
REMARK    2  A    between atoms: C_6  and  C_7
REMARK    3  A    between atoms: C_7  and  C_8
REMARK    4  A    between atoms: C_27  and  C_28
REMARK    5  A    between atoms: N_33  and  C_34
REMARK                            x       y       z     vdW  Elec       q    Type
REMARK                         _______ _______ _______ _____ _____    ______ ____
ROOT
ATOM      1  C   UNL     1       3.634  15.589  22.921  0.00  0.00    +0.000 C 
ATOM      2  C   UNL     1       2.693  15.955  21.713  0.00  0.00    +0.000 C 
ATOM      3  C   UNL     1       0.857  15.886  22.424  0.00  0.00    +0.000 C 
ATOM      4  O   UNL     1       0.837  16.320  23.612  0.00  0.00    +0.000 OA
ATOM      5  N   UNL     1      -0.627  15.365  22.170  0.00  0.00    +0.000 N 
ATOM      6  C   UNL     1      -2.443  15.270  22.575  0.00  0.00    +0.000 C 
ATOM      7  C   UNL     1      -2.667  14.404  23.929  0.00  0.00    +0.000 C 
ATOM      8  O   UNL     1      -3.080  14.923  24.969  0.00  0.00    +0.000 OA
ATOM      9  N   UNL     1      -2.672  13.023  23.872  0.00  0.00    +0.000 N 
ATOM     10  C   UNL     1      -2.354  12.211  22.717  0.00  0.00    +0.000 C 
ATOM     11  C   UNL     1      -0.863  12.079  22.575  0.00  0.00    +0.000 C 
ATOM     12  C   UNL     1      -0.505  12.634  21.247  0.00  0.00    +0.000 C 
ATOM     13  C   UNL     1       0.712  13.114  21.024  0.00  0.00    +0.000 C 
ATOM     14  C   UNL     1       0.911  14.002  19.869  0.00  0.00    +0.000 C 
ATOM     15  O   UNL     1       2.241  13.762  19.578  0.00  0.00    +0.000 OA
ATOM     16  C   UNL     1       2.657  14.464  18.440  0.00  0.00    +0.000 C 
ATOM     17  C   UNL     1       4.013  13.855  18.203  0.00  0.00    +0.000 C 
ATOM     18  N   UNL     1       4.923  14.882  17.749  0.00  0.00    +0.000 NA
ATOM     19  C   UNL     1       6.038  14.919  18.709  0.00  0.00    +0.000 C 
ATOM     20  C   UNL     1       5.265  15.142  20.268  0.00  0.00    +0.000 C 
ATOM     21  O   UNL     1       5.854  14.636  21.286  0.00  0.00    +0.000 OA
ATOM     22  N   UNL     1       4.053  16.073  20.471  0.00  0.00    +0.000 N 
ATOM     23  C   UNL     1       4.825  17.341  20.475  0.00  0.00    +0.000 C 
ATOM     24  H   UNL     1      -0.615  15.496  23.187  0.00  0.00    +0.000 HD
ATOM     25  H   UNL     1      -3.004  12.541  24.704  0.00  0.00    +0.000 HD
ATOM     26  H   UNL     1       4.488  15.803  17.818  0.00  0.00    +0.000 HD
ENDROOT
BRANCH  19  27
ATOM     27  C   UNL     1       7.023  15.798  17.840  0.00  0.00    +0.000 C 
ATOM     28  C   UNL     1       8.093  16.830  18.235  0.00  0.00    +0.000 C 
ATOM     29  C   UNL     1       8.547  15.435  18.004  0.00  0.00    +0.000 C 
ENDBRANCH  19  27
BRANCH   6  30
ATOM     30  C   UNL     1      -4.140  14.680  21.996  0.00  0.00    +0.000 C 
BRANCH  30  31
ATOM     31  C   UNL     1      -5.150  13.573  21.414  0.00  0.00    +0.000 A 
ATOM     32  C   UNL     1      -6.234  13.083  22.130  0.00  0.00    +0.000 A 
ATOM     33  C   UNL     1      -7.117  12.112  21.627  0.00  0.00    +0.000 A 
ATOM     34  C   UNL     1      -6.943  11.550  20.346  0.00  0.00    +0.000 A 
ATOM     35  F   UNL     1      -7.825  10.650  19.874  0.00  0.00    +0.000 F 
ATOM     36  C   UNL     1      -5.858  11.925  19.594  0.00  0.00    +0.000 A 
ATOM     37  C   UNL     1      -4.964  12.911  20.136  0.00  0.00    +0.000 A 
ENDBRANCH  30  31
ENDBRANCH   6  30
TORSDOF 3
ENDMDL
MODEL 9
REMARK VINA RESULT:      -6.6      4.193     10.010
REMARK  Name = 
REMARK  5 active torsions:
REMARK  status: ('A' for Active; 'I' for Inactive)
REMARK    1  A    between atoms: C_1  and  C_2
REMARK    2  A    between atoms: C_6  and  C_7
REMARK    3  A    between atoms: C_7  and  C_8
REMARK    4  A    between atoms: C_27  and  C_28
REMARK    5  A    between atoms: N_33  and  C_34
REMARK                            x       y       z     vdW  Elec       q    Type
REMARK                         _______ _______ _______ _____ _____    ______ ____
ROOT
ATOM      1  C   UNL     1       4.170  15.097  22.635  0.00  0.00    +0.000 C 
ATOM      2  C   UNL     1       3.404  15.543  21.333  0.00  0.00    +0.000 C 
ATOM      3  C   UNL     1       1.582  14.811  21.508  0.00  0.00    +0.000 C 
ATOM      4  O   UNL     1       1.208  14.869  22.715  0.00  0.00    +0.000 OA
ATOM      5  N   UNL     1       0.409  14.028  20.768  0.00  0.00    +0.000 N 
ATOM      6  C   UNL     1      -1.329  13.365  20.655  0.00  0.00    +0.000 C 
ATOM      7  C   UNL     1      -1.519  12.122  21.680  0.00  0.00    +0.000 C 
ATOM      8  O   UNL     1      -2.259  12.200  22.664  0.00  0.00    +0.000 OA
ATOM      9  N   UNL     1      -1.082  10.861  21.322  0.00  0.00    +0.000 N 
ATOM     10  C   UNL     1      -0.319  10.520  20.142  0.00  0.00    +0.000 C 
ATOM     11  C   UNL     1       1.139  10.814  20.368  0.00  0.00    +0.000 C 
ATOM     12  C   UNL     1       1.546  11.797  19.334  0.00  0.00    +0.000 C 
ATOM     13  C   UNL     1       2.571  12.612  19.547  0.00  0.00    +0.000 C 
ATOM     14  C   UNL     1       2.695  13.812  18.707  0.00  0.00    +0.000 C 
ATOM     15  O   UNL     1       4.063  14.010  18.728  0.00  0.00    +0.000 OA
ATOM     16  C   UNL     1       4.442  15.089  17.919  0.00  0.00    +0.000 C 
ATOM     17  C   UNL     1       5.940  14.935  17.917  0.00  0.00    +0.000 C 
ATOM     18  N   UNL     1       6.552  16.245  17.952  0.00  0.00    +0.000 NA
ATOM     19  C   UNL     1       7.401  16.286  19.153  0.00  0.00    +0.000 C 
ATOM     20  C   UNL     1       6.322  15.853  20.466  0.00  0.00    +0.000 C 
ATOM     21  O   UNL     1       6.839  15.244  21.467  0.00  0.00    +0.000 OA
ATOM     22  N   UNL     1       4.865  16.349  20.546  0.00  0.00    +0.000 N 
ATOM     23  C   UNL     1       5.187  17.716  21.028  0.00  0.00    +0.000 C 
ATOM     24  H   UNL     1       0.190  13.862  21.756  0.00  0.00    +0.000 HD
ATOM     25  H   UNL     1      -1.396  10.093  21.913  0.00  0.00    +0.000 HD
ATOM     26  H   UNL     1       5.846  16.967  18.105  0.00  0.00    +0.000 HD
ENDROOT
BRANCH  19  27
ATOM     27  C   UNL     1       8.206  17.596  18.786  0.00  0.00    +0.000 C 
ATOM     28  C   UNL     1       8.934  18.630  19.661  0.00  0.00    +0.000 C 
ATOM     29  C   UNL     1       9.750  17.528  19.092  0.00  0.00    +0.000 C 
ENDBRANCH  19  27
BRANCH   6  30
ATOM     30  C   UNL     1      -2.618  12.556  19.539  0.00  0.00    +0.000 C 
BRANCH  30  31
ATOM     31  C   UNL     1      -3.096  11.868  18.167  0.00  0.00    +0.000 A 
ATOM     32  C   UNL     1      -4.431  11.717  17.818  0.00  0.00    +0.000 A 
ATOM     33  C   UNL     1      -4.853  11.111  16.622  0.00  0.00    +0.000 A 
ATOM     34  C   UNL     1      -3.930  10.592  15.692  0.00  0.00    +0.000 A 
ATOM     35  F   UNL     1      -4.359  10.052  14.537  0.00  0.00    +0.000 F 
ATOM     36  C   UNL     1      -2.590  10.636  15.986  0.00  0.00    +0.000 A 
ATOM     37  C   UNL     1      -2.185  11.249  17.221  0.00  0.00    +0.000 A 
ENDBRANCH  30  31
ENDBRANCH   6  30
TORSDOF 3
ENDMDL
