MODEL 1
REMARK VINA RESULT:      -7.0      0.000      0.000
REMARK  Name = 
REMARK  9 active torsions:
REMARK  status: ('A' for Active; 'I' for Inactive)
REMARK    1  A    between atoms: C_1  and  O_2
REMARK    2  A    between atoms: O_2  and  C_3
REMARK    3  A    between atoms: C_3  and  C_4
REMARK    4  A    between atoms: C_7  and  C_9
REMARK    5  A    between atoms: C_10  and  O_11
REMARK    6  A    between atoms: O_11  and  C_12
REMARK    7  A    between atoms: C_13  and  C_14
REMARK    8  A    between atoms: C_18  and  C_19
REMARK    9  A    between atoms: N_20  and  C_21
REMARK                            x       y       z     vdW  Elec       q    Type
REMARK                         _______ _______ _______ _____ _____    ______ ____
ROOT
ATOM      1  C   UNL     1      -2.460  13.500  23.199  0.00  0.00    +0.000 A 
ATOM      2  C   UNL     1      -1.749  13.246  22.015  0.00  0.00    +0.000 A 
ATOM      3  N   UNL     1      -0.635  14.100  21.991  0.00  0.00    +0.000 N 
ATOM      4  C   UNL     1      -0.718  14.966  23.078  0.00  0.00    +0.000 A 
ATOM      5  C   UNL     1      -0.066  16.171  23.395  0.00  0.00    +0.000 A 
ATOM      6  C   UNL     1      -0.427  16.800  24.581  0.00  0.00    +0.000 A 
ATOM      7  C   UNL     1      -1.361  16.194  25.397  0.00  0.00    +0.000 A 
ATOM      8  N   UNL     1      -2.001  15.046  25.116  0.00  0.00    +0.000 NA
ATOM      9  C   UNL     1      -1.724  14.489  23.905  0.00  0.00    +0.000 A 
ENDROOT
BRANCH   1  13
ATOM     10  C   UNL     1      -7.346  13.133  22.736  0.00  0.00    +0.000 C 
ATOM     11  C   UNL     1      -6.203  12.931  23.770  0.00  0.00    +0.000 C 
ATOM     12  N   UNL     1      -4.940  13.531  23.330  0.00  0.00    +0.000 N 
ATOM     13  C   UNL     1      -3.724  12.871  23.627  0.00  0.00    +0.000 C 
ATOM     14  O   UNL     1      -3.704  11.771  24.169  0.00  0.00    +0.000 OA
ATOM     15  C   UNL     1      -5.081  14.917  22.874  0.00  0.00    +0.000 C 
ATOM     16  C   UNL     1      -6.241  15.134  21.894  0.00  0.00    +0.000 C 
ATOM     17  N   UNL     1      -7.513  14.549  22.325  0.00  0.00    +0.000 NA
ATOM     18  H   UNL     1      -8.179  14.609  21.554  0.00  0.00    +0.000 HD
BRANCH  10  19
ATOM     19  C   UNL     1      -7.182  12.197  21.517  0.00  0.00    +0.000 C 
BRANCH  19  21
ATOM     20  C   UNL     1      -7.716  10.041  20.664  0.00  0.00    +0.000 C 
ATOM     21  O   UNL     1      -7.380  10.813  21.804  0.00  0.00    +0.000 OA
ENDBRANCH  19  21
ENDBRANCH  10  19
ENDBRANCH   1  13
BRANCH   3  22
ATOM     22  C   UNL     1       0.395  14.152  20.990  0.00  0.00    +0.000 A 
ATOM     23  C   UNL     1       1.618  13.487  21.156  0.00  0.00    +0.000 A 
ATOM     24  C   UNL     1       2.596  13.543  20.158  0.00  0.00    +0.000 A 
ATOM     25  C   UNL     1       2.362  14.259  18.985  0.00  0.00    +0.000 A 
ATOM     26  C   UNL     1       1.156  14.928  18.814  0.00  0.00    +0.000 A 
ATOM     27  C   UNL     1       0.181  14.882  19.810  0.00  0.00    +0.000 A 
ENDBRANCH   3  22
BRANCH   2  28
ATOM     28  O   UNL     1      -1.895  12.372  21.009  0.00  0.00    +0.000 OA
BRANCH  28  29
ATOM     29  C   UNL     1      -0.999  11.395  20.641  0.00  0.00    +0.000 A 
ATOM     30  C   UNL     1      -0.410  10.471  21.515  0.00  0.00    +0.000 A 
ATOM     31  C   UNL     1      -0.798  10.303  22.951  0.00  0.00    +0.000 C 
ATOM     32  C   UNL     1       0.579   9.608  21.008  0.00  0.00    +0.000 A 
ATOM     33  C   UNL     1       0.876   9.561  19.650  0.00  0.00    +0.000 A 
ATOM     34  C   UNL     1       0.159  10.353  18.764  0.00  0.00    +0.000 A 
ATOM     35  C   UNL     1      -0.786  11.271  19.246  0.00  0.00    +0.000 A 
ATOM     36  C   UNL     1      -1.589  12.075  18.260  0.00  0.00    +0.000 C 
ENDBRANCH  28  29
ENDBRANCH   2  28
TORSDOF 6
ENDMDL
MODEL 2
REMARK VINA RESULT:      -6.9      1.177      1.285
REMARK  Name = 
REMARK  9 active torsions:
REMARK  status: ('A' for Active; 'I' for Inactive)
REMARK    1  A    between atoms: C_1  and  O_2
REMARK    2  A    between atoms: O_2  and  C_3
REMARK    3  A    between atoms: C_3  and  C_4
REMARK    4  A    between atoms: C_7  and  C_9
REMARK    5  A    between atoms: C_10  and  O_11
REMARK    6  A    between atoms: O_11  and  C_12
REMARK    7  A    between atoms: C_13  and  C_14
REMARK    8  A    between atoms: C_18  and  C_19
REMARK    9  A    between atoms: N_20  and  C_21
REMARK                            x       y       z     vdW  Elec       q    Type
REMARK                         _______ _______ _______ _____ _____    ______ ____
ROOT
ATOM      1  C   UNL     1      -3.152  13.608  22.370  0.00  0.00    +0.000 A 
ATOM      2  C   UNL     1      -2.213  13.157  21.427  0.00  0.00    +0.000 A 
ATOM      3  N   UNL     1      -1.172  14.096  21.375  0.00  0.00    +0.000 N 
ATOM      4  C   UNL     1      -1.515  15.182  22.175  0.00  0.00    +0.000 A 
ATOM      5  C   UNL     1      -1.012  16.491  22.280  0.00  0.00    +0.000 A 
ATOM      6  C   UNL     1      -1.631  17.343  23.188  0.00  0.00    +0.000 A 
ATOM      7  C   UNL     1      -2.663  16.852  23.962  0.00  0.00    +0.000 A 
ATOM      8  N   UNL     1      -3.165  15.607  23.879  0.00  0.00    +0.000 NA
ATOM      9  C   UNL     1      -2.628  14.810  22.914  0.00  0.00    +0.000 A 
ENDROOT
BRANCH   1  13
ATOM     10  C   UNL     1      -7.717  12.318  21.061  0.00  0.00    +0.000 C 
ATOM     11  C   UNL     1      -6.863  12.668  22.312  0.00  0.00    +0.000 C 
ATOM     12  N   UNL     1      -5.578  13.279  21.957  0.00  0.00    +0.000 N 
ATOM     13  C   UNL     1      -4.432  12.966  22.724  0.00  0.00    +0.000 C 
ATOM     14  O   UNL     1      -4.467  12.135  23.626  0.00  0.00    +0.000 OA
ATOM     15  C   UNL     1      -5.703  14.385  21.003  0.00  0.00    +0.000 C 
ATOM     16  C   UNL     1      -6.589  14.065  19.793  0.00  0.00    +0.000 C 
ATOM     17  N   UNL     1      -7.881  13.464  20.132  0.00  0.00    +0.000 NA
ATOM     18  H   UNL     1      -8.332  13.149  19.272  0.00  0.00    +0.000 HD
BRANCH  10  19
ATOM     19  C   UNL     1      -7.180  11.063  20.338  0.00  0.00    +0.000 C 
BRANCH  19  21
ATOM     20  C   UNL     1      -7.483   8.704  20.306  0.00  0.00    +0.000 C 
ATOM     21  O   UNL     1      -7.268   9.860  21.099  0.00  0.00    +0.000 OA
ENDBRANCH  19  21
ENDBRANCH  10  19
ENDBRANCH   1  13
BRANCH   3  22
ATOM     22  C   UNL     1       0.025  14.020  20.581  0.00  0.00    +0.000 A 
ATOM     23  C   UNL     1       1.239  13.572  21.121  0.00  0.00    +0.000 A 
ATOM     24  C   UNL     1       2.383  13.493  20.321  0.00  0.00    +0.000 A 
ATOM     25  C   UNL     1       2.326  13.856  18.976  0.00  0.00    +0.000 A 
ATOM     26  C   UNL     1       1.130  14.309  18.434  0.00  0.00    +0.000 A 
ATOM     27  C   UNL     1      -0.012  14.397  19.230  0.00  0.00    +0.000 A 
ENDBRANCH   3  22
BRANCH   2  28
ATOM     28  O   UNL     1      -2.110  12.058  20.667  0.00  0.00    +0.000 OA
BRANCH  28  29
ATOM     29  C   UNL     1      -1.078  11.149  20.683  0.00  0.00    +0.000 A 
ATOM     30  C   UNL     1      -0.560  10.537  21.834  0.00  0.00    +0.000 A 
ATOM     31  C   UNL     1      -1.167  10.656  23.197  0.00  0.00    +0.000 C 
ATOM     32  C   UNL     1       0.577   9.720  21.702  0.00  0.00    +0.000 A 
ATOM     33  C   UNL     1       1.102   9.400  20.454  0.00  0.00    +0.000 A 
ATOM     34  C   UNL     1       0.473   9.864  19.307  0.00  0.00    +0.000 A 
ATOM     35  C   UNL     1      -0.621  10.735  19.407  0.00  0.00    +0.000 A 
ATOM     36  C   UNL     1      -1.318  11.178  18.149  0.00  0.00    +0.000 C 
ENDBRANCH  28  29
ENDBRANCH   2  28
TORSDOF 6
ENDMDL
MODEL 3
REMARK VINA RESULT:      -6.8      2.786      7.713
REMARK  Name = 
REMARK  9 active torsions:
REMARK  status: ('A' for Active; 'I' for Inactive)
REMARK    1  A    between atoms: C_1  and  O_2
REMARK    2  A    between atoms: O_2  and  C_3
REMARK    3  A    between atoms: C_3  and  C_4
REMARK    4  A    between atoms: C_7  and  C_9
REMARK    5  A    between atoms: C_10  and  O_11
REMARK    6  A    between atoms: O_11  and  C_12
REMARK    7  A    between atoms: C_13  and  C_14
REMARK    8  A    between atoms: C_18  and  C_19
REMARK    9  A    between atoms: N_20  and  C_21
REMARK                            x       y       z     vdW  Elec       q    Type
REMARK                         _______ _______ _______ _____ _____    ______ ____
ROOT
ATOM      1  C   UNL     1      -1.531  12.085  19.383  0.00  0.00    +0.000 A 
ATOM      2  C   UNL     1      -2.604  12.754  19.994  0.00  0.00    +0.000 A 
ATOM      3  N   UNL     1      -3.788  12.314  19.383  0.00  0.00    +0.000 N 
ATOM      4  C   UNL     1      -3.455  11.480  18.319  0.00  0.00    +0.000 A 
ATOM      5  C   UNL     1      -4.182  10.995  17.218  0.00  0.00    +0.000 A 
ATOM      6  C   UNL     1      -3.505  10.188  16.311  0.00  0.00    +0.000 A 
ATOM      7  C   UNL     1      -2.184   9.873  16.559  0.00  0.00    +0.000 A 
ATOM      8  N   UNL     1      -1.465  10.326  17.601  0.00  0.00    +0.000 NA
ATOM      9  C   UNL     1      -2.101  11.202  18.428  0.00  0.00    +0.000 A 
ENDROOT
BRANCH   1  13
ATOM     10  C   UNL     1       2.283  15.128  20.029  0.00  0.00    +0.000 C 
ATOM     11  C   UNL     1       1.945  13.680  19.577  0.00  0.00    +0.000 C 
ATOM     12  N   UNL     1       0.513  13.495  19.321  0.00  0.00    +0.000 N 
ATOM     13  C   UNL     1      -0.095  12.265  19.669  0.00  0.00    +0.000 C 
ATOM     14  O   UNL     1       0.525  11.382  20.252  0.00  0.00    +0.000 OA
ATOM     15  C   UNL     1      -0.063  14.529  18.456  0.00  0.00    +0.000 C 
ATOM     16  C   UNL     1       0.310  15.959  18.865  0.00  0.00    +0.000 C 
ATOM     17  N   UNL     1       1.740  16.163  19.113  0.00  0.00    +0.000 NA
ATOM     18  H   UNL     1       1.873  17.089  19.520  0.00  0.00    +0.000 HD
BRANCH  10  19
ATOM     19  C   UNL     1       1.862  15.380  21.494  0.00  0.00    +0.000 C 
BRANCH  19  21
ATOM     20  C   UNL     1       4.011  15.192  22.497  0.00  0.00    +0.000 C 
ATOM     21  O   UNL     1       2.675  14.721  22.463  0.00  0.00    +0.000 OA
ENDBRANCH  19  21
ENDBRANCH  10  19
ENDBRANCH   1  13
BRANCH   3  22
ATOM     22  C   UNL     1      -5.132  12.697  19.722  0.00  0.00    +0.000 A 
ATOM     23  C   UNL     1      -5.739  13.830  19.161  0.00  0.00    +0.000 A 
ATOM     24  C   UNL     1      -7.053  14.168  19.497  0.00  0.00    +0.000 A 
ATOM     25  C   UNL     1      -7.775  13.379  20.392  0.00  0.00    +0.000 A 
ATOM     26  C   UNL     1      -7.180  12.259  20.958  0.00  0.00    +0.000 A 
ATOM     27  C   UNL     1      -5.867  11.922  20.633  0.00  0.00    +0.000 A 
ENDBRANCH   3  22
BRANCH   2  28
ATOM     28  O   UNL     1      -2.704  13.627  21.006  0.00  0.00    +0.000 OA
BRANCH  28  29
ATOM     29  C   UNL     1      -3.303  13.399  22.223  0.00  0.00    +0.000 A 
ATOM     30  C   UNL     1      -2.962  12.367  23.110  0.00  0.00    +0.000 A 
ATOM     31  C   UNL     1      -1.781  11.465  22.937  0.00  0.00    +0.000 C 
ATOM     32  C   UNL     1      -3.748  12.191  24.263  0.00  0.00    +0.000 A 
ATOM     33  C   UNL     1      -4.751  13.092  24.605  0.00  0.00    +0.000 A 
ATOM     34  C   UNL     1      -4.963  14.214  23.815  0.00  0.00    +0.000 A 
ATOM     35  C   UNL     1      -4.242  14.382  22.624  0.00  0.00    +0.000 A 
ATOM     36  C   UNL     1      -4.451  15.634  21.816  0.00  0.00    +0.000 C 
ENDBRANCH  28  29
ENDBRANCH   2  28
TORSDOF 6
ENDMDL
MODEL 4
REMARK VINA RESULT:      -6.7      0.672      1.056
REMARK  Name = 
REMARK  9 active torsions:
REMARK  status: ('A' for Active; 'I' for Inactive)
REMARK    1  A    between atoms: C_1  and  O_2
REMARK    2  A    between atoms: O_2  and  C_3
REMARK    3  A    between atoms: C_3  and  C_4
REMARK    4  A    between atoms: C_7  and  C_9
REMARK    5  A    between atoms: C_10  and  O_11
REMARK    6  A    between atoms: O_11  and  C_12
REMARK    7  A    between atoms: C_13  and  C_14
REMARK    8  A    between atoms: C_18  and  C_19
REMARK    9  A    between atoms: N_20  and  C_21
REMARK                            x       y       z     vdW  Elec       q    Type
REMARK                         _______ _______ _______ _____ _____    ______ ____
ROOT
ATOM      1  C   UNL     1      -2.524  13.504  23.018  0.00  0.00    +0.000 A 
ATOM      2  C   UNL     1      -1.766  13.260  21.862  0.00  0.00    +0.000 A 
ATOM      3  N   UNL     1      -0.651  14.112  21.891  0.00  0.00    +0.000 N 
ATOM      4  C   UNL     1      -0.776  14.967  22.982  0.00  0.00    +0.000 A 
ATOM      5  C   UNL     1      -0.136  16.168  23.336  0.00  0.00    +0.000 A 
ATOM      6  C   UNL     1      -0.543  16.787  24.512  0.00  0.00    +0.000 A 
ATOM      7  C   UNL     1      -1.511  16.175  25.284  0.00  0.00    +0.000 A 
ATOM      8  N   UNL     1      -2.141  15.030  24.967  0.00  0.00    +0.000 NA
ATOM      9  C   UNL     1      -1.816  14.485  23.763  0.00  0.00    +0.000 A 
ENDROOT
BRANCH   1  13
ATOM     10  C   UNL     1      -7.291  12.768  22.040  0.00  0.00    +0.000 C 
ATOM     11  C   UNL     1      -6.283  12.801  23.222  0.00  0.00    +0.000 C 
ATOM     12  N   UNL     1      -4.999  13.402  22.845  0.00  0.00    +0.000 N 
ATOM     13  C   UNL     1      -3.805  12.873  23.389  0.00  0.00    +0.000 C 
ATOM     14  O   UNL     1      -3.809  11.875  24.102  0.00  0.00    +0.000 OA
ATOM     15  C   UNL     1      -5.138  14.688  22.155  0.00  0.00    +0.000 C 
ATOM     16  C   UNL     1      -6.171  14.676  21.021  0.00  0.00    +0.000 C 
ATOM     17  N   UNL     1      -7.462  14.089  21.386  0.00  0.00    +0.000 NA
ATOM     18  H   UNL     1      -8.026  13.987  20.542  0.00  0.00    +0.000 HD
BRANCH  10  19
ATOM     19  C   UNL     1      -6.934  11.664  21.019  0.00  0.00    +0.000 C 
BRANCH  19  21
ATOM     20  C   UNL     1      -6.924  11.099  18.708  0.00  0.00    +0.000 C 
ATOM     21  O   UNL     1      -7.577  11.800  19.753  0.00  0.00    +0.000 OA
ENDBRANCH  19  21
ENDBRANCH  10  19
ENDBRANCH   1  13
BRANCH   3  22
ATOM     22  C   UNL     1       0.419  14.172  20.933  0.00  0.00    +0.000 A 
ATOM     23  C   UNL     1       0.285  14.865  19.721  0.00  0.00    +0.000 A 
ATOM     24  C   UNL     1       1.349  14.921  18.816  0.00  0.00    +0.000 A 
ATOM     25  C   UNL     1       2.556  14.289  19.111  0.00  0.00    +0.000 A 
ATOM     26  C   UNL     1       2.696  13.593  20.305  0.00  0.00    +0.000 A 
ATOM     27  C   UNL     1       1.636  13.528  21.208  0.00  0.00    +0.000 A 
ENDBRANCH   3  22
BRANCH   2  28
ATOM     28  O   UNL     1      -1.872  12.396  20.842  0.00  0.00    +0.000 OA
BRANCH  28  29
ATOM     29  C   UNL     1      -0.975  11.406  20.514  0.00  0.00    +0.000 A 
ATOM     30  C   UNL     1      -0.417  10.491  21.418  0.00  0.00    +0.000 A 
ATOM     31  C   UNL     1      -0.847  10.349  22.845  0.00  0.00    +0.000 C 
ATOM     32  C   UNL     1       0.578   9.614  20.953  0.00  0.00    +0.000 A 
ATOM     33  C   UNL     1       0.913   9.544  19.604  0.00  0.00    +0.000 A 
ATOM     34  C   UNL     1       0.227  10.327  18.686  0.00  0.00    +0.000 A 
ATOM     35  C   UNL     1      -0.723  11.259  19.127  0.00  0.00    +0.000 A 
ATOM     36  C   UNL     1      -1.492  12.055  18.108  0.00  0.00    +0.000 C 
ENDBRANCH  28  29
ENDBRANCH   2  28
TORSDOF 6
ENDMDL
MODEL 5
REMARK VINA RESULT:      -6.7      2.398      6.663
REMARK  Name = 
REMARK  9 active torsions:
REMARK  status: ('A' for Active; 'I' for Inactive)
REMARK    1  A    between atoms: C_1  and  O_2
REMARK    2  A    between atoms: O_2  and  C_3
REMARK    3  A    between atoms: C_3  and  C_4
REMARK    4  A    between atoms: C_7  and  C_9
REMARK    5  A    between atoms: C_10  and  O_11
REMARK    6  A    between atoms: O_11  and  C_12
REMARK    7  A    between atoms: C_13  and  C_14
REMARK    8  A    between atoms: C_18  and  C_19
REMARK    9  A    between atoms: N_20  and  C_21
REMARK                            x       y       z     vdW  Elec       q    Type
REMARK                         _______ _______ _______ _____ _____    ______ ____
ROOT
ATOM      1  C   UNL     1       0.045  14.309  22.022  0.00  0.00    +0.000 A 
ATOM      2  C   UNL     1      -1.131  13.541  22.028  0.00  0.00    +0.000 A 
ATOM      3  N   UNL     1      -1.983  14.068  23.010  0.00  0.00    +0.000 N 
ATOM      4  C   UNL     1      -1.300  15.068  23.698  0.00  0.00    +0.000 A 
ATOM      5  C   UNL     1      -1.537  15.724  24.919  0.00  0.00    +0.000 A 
ATOM      6  C   UNL     1      -0.607  16.674  25.325  0.00  0.00    +0.000 A 
ATOM      7  C   UNL     1       0.462  16.952  24.498  0.00  0.00    +0.000 A 
ATOM      8  N   UNL     1       0.714  16.338  23.329  0.00  0.00    +0.000 NA
ATOM      9  C   UNL     1      -0.140  15.334  22.987  0.00  0.00    +0.000 A 
ENDROOT
BRANCH   1  13
ATOM     10  C   UNL     1       3.151  16.011  18.605  0.00  0.00    +0.000 C 
ATOM     11  C   UNL     1       2.583  14.684  19.179  0.00  0.00    +0.000 C 
ATOM     12  N   UNL     1       1.412  14.901  20.035  0.00  0.00    +0.000 N 
ATOM     13  C   UNL     1       1.240  14.094  21.184  0.00  0.00    +0.000 C 
ATOM     14  O   UNL     1       2.085  13.273  21.527  0.00  0.00    +0.000 OA
ATOM     15  C   UNL     1       0.394  15.760  19.423  0.00  0.00    +0.000 C 
ATOM     16  C   UNL     1       0.956  17.048  18.807  0.00  0.00    +0.000 C 
ATOM     17  N   UNL     1       2.119  16.845  17.940  0.00  0.00    +0.000 NA
ATOM     18  H   UNL     1       2.512  17.756  17.700  0.00  0.00    +0.000 HD
BRANCH  10  19
ATOM     19  C   UNL     1       3.929  16.807  19.677  0.00  0.00    +0.000 C 
BRANCH  19  21
ATOM     20  C   UNL     1       6.261  16.964  19.235  0.00  0.00    +0.000 C 
ATOM     21  O   UNL     1       4.997  17.601  19.163  0.00  0.00    +0.000 OA
ENDBRANCH  19  21
ENDBRANCH  10  19
ENDBRANCH   1  13
BRANCH   3  22
ATOM     22  C   UNL     1      -3.312  13.626  23.333  0.00  0.00    +0.000 A 
ATOM     23  C   UNL     1      -3.549  12.668  24.328  0.00  0.00    +0.000 A 
ATOM     24  C   UNL     1      -4.855  12.270  24.631  0.00  0.00    +0.000 A 
ATOM     25  C   UNL     1      -5.935  12.824  23.948  0.00  0.00    +0.000 A 
ATOM     26  C   UNL     1      -5.711  13.769  22.954  0.00  0.00    +0.000 A 
ATOM     27  C   UNL     1      -4.410  14.164  22.642  0.00  0.00    +0.000 A 
ENDBRANCH   3  22
BRANCH   2  28
ATOM     28  O   UNL     1      -1.577  12.513  21.293  0.00  0.00    +0.000 OA
BRANCH  28  29
ATOM     29  C   UNL     1      -0.844  11.423  20.885  0.00  0.00    +0.000 A 
ATOM     30  C   UNL     1      -0.426  10.375  21.717  0.00  0.00    +0.000 A 
ATOM     31  C   UNL     1      -0.862  10.204  23.139  0.00  0.00    +0.000 C 
ATOM     32  C   UNL     1       0.420   9.390  21.178  0.00  0.00    +0.000 A 
ATOM     33  C   UNL     1       0.731   9.360  19.822  0.00  0.00    +0.000 A 
ATOM     34  C   UNL     1       0.165  10.299  18.969  0.00  0.00    +0.000 A 
ATOM     35  C   UNL     1      -0.628  11.333  19.487  0.00  0.00    +0.000 A 
ATOM     36  C   UNL     1      -1.274  12.303  18.535  0.00  0.00    +0.000 C 
ENDBRANCH  28  29
ENDBRANCH   2  28
TORSDOF 6
ENDMDL
MODEL 6
REMARK VINA RESULT:      -6.5      1.912      2.240
REMARK  Name = 
REMARK  9 active torsions:
REMARK  status: ('A' for Active; 'I' for Inactive)
REMARK    1  A    between atoms: C_1  and  O_2
REMARK    2  A    between atoms: O_2  and  C_3
REMARK    3  A    between atoms: C_3  and  C_4
REMARK    4  A    between atoms: C_7  and  C_9
REMARK    5  A    between atoms: C_10  and  O_11
REMARK    6  A    between atoms: O_11  and  C_12
REMARK    7  A    between atoms: C_13  and  C_14
REMARK    8  A    between atoms: C_18  and  C_19
REMARK    9  A    between atoms: N_20  and  C_21
REMARK                            x       y       z     vdW  Elec       q    Type
REMARK                         _______ _______ _______ _____ _____    ______ ____
ROOT
ATOM      1  C   UNL     1      -3.272  13.550  21.482  0.00  0.00    +0.000 A 
ATOM      2  C   UNL     1      -2.180  12.979  20.809  0.00  0.00    +0.000 A 
ATOM      3  N   UNL     1      -1.175  13.953  20.718  0.00  0.00    +0.000 N 
ATOM      4  C   UNL     1      -1.677  15.155  21.209  0.00  0.00    +0.000 A 
ATOM      5  C   UNL     1      -1.240  16.488  21.110  0.00  0.00    +0.000 A 
ATOM      6  C   UNL     1      -2.024  17.464  21.712  0.00  0.00    +0.000 A 
ATOM      7  C   UNL     1      -3.152  17.075  22.406  0.00  0.00    +0.000 A 
ATOM      8  N   UNL     1      -3.593  15.810  22.514  0.00  0.00    +0.000 NA
ATOM      9  C   UNL     1      -2.882  14.870  21.832  0.00  0.00    +0.000 A 
ENDROOT
BRANCH   1  13
ATOM     10  C   UNL     1      -7.564  11.816  19.810  0.00  0.00    +0.000 C 
ATOM     11  C   UNL     1      -6.909  12.420  21.084  0.00  0.00    +0.000 C 
ATOM     12  N   UNL     1      -5.604  13.028  20.806  0.00  0.00    +0.000 N 
ATOM     13  C   UNL     1      -4.572  12.912  21.766  0.00  0.00    +0.000 C 
ATOM     14  O   UNL     1      -4.714  12.247  22.787  0.00  0.00    +0.000 OA
ATOM     15  C   UNL     1      -5.621  13.946  19.663  0.00  0.00    +0.000 C 
ATOM     16  C   UNL     1      -6.314  13.377  18.419  0.00  0.00    +0.000 C 
ATOM     17  N   UNL     1      -7.624  12.775  18.679  0.00  0.00    +0.000 NA
ATOM     18  H   UNL     1      -7.938  12.295  17.835  0.00  0.00    +0.000 HD
BRANCH  10  19
ATOM     19  C   UNL     1      -6.893  10.486  19.401  0.00  0.00    +0.000 C 
BRANCH  19  21
ATOM     20  C   UNL     1      -6.906   8.185  20.002  0.00  0.00    +0.000 C 
ATOM     21  O   UNL     1      -7.678   9.324  19.663  0.00  0.00    +0.000 OA
ENDBRANCH  19  21
ENDBRANCH  10  19
ENDBRANCH   1  13
BRANCH   3  22
ATOM     22  C   UNL     1       0.137  13.795  20.150  0.00  0.00    +0.000 A 
ATOM     23  C   UNL     1       1.266  13.579  20.952  0.00  0.00    +0.000 A 
ATOM     24  C   UNL     1       2.526  13.412  20.370  0.00  0.00    +0.000 A 
ATOM     25  C   UNL     1       2.672  13.456  18.984  0.00  0.00    +0.000 A 
ATOM     26  C   UNL     1       1.560  13.677  18.181  0.00  0.00    +0.000 A 
ATOM     27  C   UNL     1       0.303  13.852  18.757  0.00  0.00    +0.000 A 
ENDBRANCH   3  22
BRANCH   2  28
ATOM     28  O   UNL     1      -1.920  11.757  20.324  0.00  0.00    +0.000 OA
BRANCH  28  29
ATOM     29  C   UNL     1      -0.928  10.904  20.750  0.00  0.00    +0.000 A 
ATOM     30  C   UNL     1      -0.636  10.612  22.089  0.00  0.00    +0.000 A 
ATOM     31  C   UNL     1      -1.471  11.056  23.250  0.00  0.00    +0.000 C 
ATOM     32  C   UNL     1       0.487   9.812  22.370  0.00  0.00    +0.000 A 
ATOM     33  C   UNL     1       1.216   9.201  21.354  0.00  0.00    +0.000 A 
ATOM     34  C   UNL     1       0.811   9.349  20.035  0.00  0.00    +0.000 A 
ATOM     35  C   UNL     1      -0.264  10.193  19.719  0.00  0.00    +0.000 A 
ATOM     36  C   UNL     1      -0.717  10.291  18.288  0.00  0.00    +0.000 C 
ENDBRANCH  28  29
ENDBRANCH   2  28
TORSDOF 6
ENDMDL
MODEL 7
REMARK VINA RESULT:      -6.5      2.652      6.982
REMARK  Name = 
REMARK  9 active torsions:
REMARK  status: ('A' for Active; 'I' for Inactive)
REMARK    1  A    between atoms: C_1  and  O_2
REMARK    2  A    between atoms: O_2  and  C_3
REMARK    3  A    between atoms: C_3  and  C_4
REMARK    4  A    between atoms: C_7  and  C_9
REMARK    5  A    between atoms: C_10  and  O_11
REMARK    6  A    between atoms: O_11  and  C_12
REMARK    7  A    between atoms: C_13  and  C_14
REMARK    8  A    between atoms: C_18  and  C_19
REMARK    9  A    between atoms: N_20  and  C_21
REMARK                            x       y       z     vdW  Elec       q    Type
REMARK                         _______ _______ _______ _____ _____    ______ ____
ROOT
ATOM      1  C   UNL     1       0.599  14.330  21.660  0.00  0.00    +0.000 A 
ATOM      2  C   UNL     1      -0.580  13.568  21.710  0.00  0.00    +0.000 A 
ATOM      3  N   UNL     1      -1.438  14.164  22.646  0.00  0.00    +0.000 N 
ATOM      4  C   UNL     1      -0.758  15.208  23.268  0.00  0.00    +0.000 A 
ATOM      5  C   UNL     1      -1.003  15.948  24.438  0.00  0.00    +0.000 A 
ATOM      6  C   UNL     1      -0.073  16.921  24.785  0.00  0.00    +0.000 A 
ATOM      7  C   UNL     1       1.004  17.139  23.949  0.00  0.00    +0.000 A 
ATOM      8  N   UNL     1       1.263  16.444  22.828  0.00  0.00    +0.000 NA
ATOM      9  C   UNL     1       0.409  15.421  22.550  0.00  0.00    +0.000 A 
ENDROOT
BRANCH   1  13
ATOM     10  C   UNL     1       3.962  15.926  18.441  0.00  0.00    +0.000 C 
ATOM     11  C   UNL     1       3.260  14.626  18.922  0.00  0.00    +0.000 C 
ATOM     12  N   UNL     1       2.083  14.901  19.752  0.00  0.00    +0.000 N 
ATOM     13  C   UNL     1       1.800  14.054  20.849  0.00  0.00    +0.000 C 
ATOM     14  O   UNL     1       2.558  13.145  21.173  0.00  0.00    +0.000 OA
ATOM     15  C   UNL     1       1.165  15.878  19.157  0.00  0.00    +0.000 C 
ATOM     16  C   UNL     1       1.858  17.141  18.631  0.00  0.00    +0.000 C 
ATOM     17  N   UNL     1       3.030  16.882  17.790  0.00  0.00    +0.000 NA
ATOM     18  H   UNL     1       3.508  17.765  17.614  0.00  0.00    +0.000 HD
BRANCH  10  19
ATOM     19  C   UNL     1       4.767  16.593  19.578  0.00  0.00    +0.000 C 
BRANCH  19  21
ATOM     20  C   UNL     1       6.933  17.222  18.822  0.00  0.00    +0.000 C 
ATOM     21  O   UNL     1       5.624  17.652  19.154  0.00  0.00    +0.000 OA
ENDBRANCH  19  21
ENDBRANCH  10  19
ENDBRANCH   1  13
BRANCH   3  22
ATOM     22  C   UNL     1      -2.772  13.749  22.987  0.00  0.00    +0.000 A 
ATOM     23  C   UNL     1      -3.871  14.066  22.177  0.00  0.00    +0.000 A 
ATOM     24  C   UNL     1      -5.155  13.634  22.526  0.00  0.00    +0.000 A 
ATOM     25  C   UNL     1      -5.353  12.882  23.683  0.00  0.00    +0.000 A 
ATOM     26  C   UNL     1      -4.270  12.570  24.496  0.00  0.00    +0.000 A 
ATOM     27  C   UNL     1      -2.990  13.004  24.157  0.00  0.00    +0.000 A 
ENDBRANCH   3  22
BRANCH   2  28
ATOM     28  O   UNL     1      -1.023  12.492  21.044  0.00  0.00    +0.000 OA
BRANCH  28  29
ATOM     29  C   UNL     1      -0.373  11.286  20.917  0.00  0.00    +0.000 A 
ATOM     30  C   UNL     1      -0.277  10.312  21.922  0.00  0.00    +0.000 A 
ATOM     31  C   UNL     1      -1.013  10.370  23.224  0.00  0.00    +0.000 C 
ATOM     32  C   UNL     1       0.523   9.181  21.681  0.00  0.00    +0.000 A 
ATOM     33  C   UNL     1       1.097   8.948  20.435  0.00  0.00    +0.000 A 
ATOM     34  C   UNL     1       0.847   9.827  19.391  0.00  0.00    +0.000 A 
ATOM     35  C   UNL     1       0.109  10.998  19.616  0.00  0.00    +0.000 A 
ATOM     36  C   UNL     1      -0.193  11.905  18.455  0.00  0.00    +0.000 C 
ENDBRANCH  28  29
ENDBRANCH   2  28
TORSDOF 6
ENDMDL
MODEL 8
REMARK VINA RESULT:      -6.4      2.540      7.526
REMARK  Name = 
REMARK  9 active torsions:
REMARK  status: ('A' for Active; 'I' for Inactive)
REMARK    1  A    between atoms: C_1  and  O_2
REMARK    2  A    between atoms: O_2  and  C_3
REMARK    3  A    between atoms: C_3  and  C_4
REMARK    4  A    between atoms: C_7  and  C_9
REMARK    5  A    between atoms: C_10  and  O_11
REMARK    6  A    between atoms: O_11  and  C_12
REMARK    7  A    between atoms: C_13  and  C_14
REMARK    8  A    between atoms: C_18  and  C_19
REMARK    9  A    between atoms: N_20  and  C_21
REMARK                            x       y       z     vdW  Elec       q    Type
REMARK                         _______ _______ _______ _____ _____    ______ ____
ROOT
ATOM      1  C   UNL     1      -1.587  12.123  19.530  0.00  0.00    +0.000 A 
ATOM      2  C   UNL     1      -2.694  12.778  20.092  0.00  0.00    +0.000 A 
ATOM      3  N   UNL     1      -3.845  12.317  19.436  0.00  0.00    +0.000 N 
ATOM      4  C   UNL     1      -3.455  11.484  18.391  0.00  0.00    +0.000 A 
ATOM      5  C   UNL     1      -4.129  10.982  17.263  0.00  0.00    +0.000 A 
ATOM      6  C   UNL     1      -3.403  10.182  16.389  0.00  0.00    +0.000 A 
ATOM      7  C   UNL     1      -2.089   9.888  16.693  0.00  0.00    +0.000 A 
ATOM      8  N   UNL     1      -1.421  10.357  17.761  0.00  0.00    +0.000 NA
ATOM      9  C   UNL     1      -2.103  11.226  18.557  0.00  0.00    +0.000 A 
ENDROOT
BRANCH   1  13
ATOM     10  C   UNL     1       2.111  15.229  20.479  0.00  0.00    +0.000 C 
ATOM     11  C   UNL     1       1.832  13.801  19.934  0.00  0.00    +0.000 C 
ATOM     12  N   UNL     1       0.415  13.590  19.619  0.00  0.00    +0.000 N 
ATOM     13  C   UNL     1      -0.167  12.326  19.874  0.00  0.00    +0.000 C 
ATOM     14  O   UNL     1       0.461  11.428  20.426  0.00  0.00    +0.000 OA
ATOM     15  C   UNL     1      -0.164  14.657  18.797  0.00  0.00    +0.000 C 
ATOM     16  C   UNL     1       0.153  16.071  19.300  0.00  0.00    +0.000 C 
ATOM     17  N   UNL     1       1.567  16.300  19.607  0.00  0.00    +0.000 NA
ATOM     18  H   UNL     1       1.659  17.204  20.071  0.00  0.00    +0.000 HD
BRANCH  10  19
ATOM     19  C   UNL     1       1.636  15.382  21.942  0.00  0.00    +0.000 C 
BRANCH  19  21
ATOM     20  C   UNL     1       0.191  16.895  23.073  0.00  0.00    +0.000 C 
ATOM     21  O   UNL     1       1.396  16.729  22.347  0.00  0.00    +0.000 OA
ENDBRANCH  19  21
ENDBRANCH  10  19
ENDBRANCH   1  13
BRANCH   3  22
ATOM     22  C   UNL     1      -5.208  12.681  19.716  0.00  0.00    +0.000 A 
ATOM     23  C   UNL     1      -5.994  11.950  20.617  0.00  0.00    +0.000 A 
ATOM     24  C   UNL     1      -7.311  12.338  20.883  0.00  0.00    +0.000 A 
ATOM     25  C   UNL     1      -7.855  13.457  20.255  0.00  0.00    +0.000 A 
ATOM     26  C   UNL     1      -7.085  14.184  19.355  0.00  0.00    +0.000 A 
ATOM     27  C   UNL     1      -5.774  13.797  19.081  0.00  0.00    +0.000 A 
ENDBRANCH   3  22
BRANCH   2  28
ATOM     28  O   UNL     1      -2.848  13.654  21.095  0.00  0.00    +0.000 OA
BRANCH  28  29
ATOM     29  C   UNL     1      -3.474  13.415  22.297  0.00  0.00    +0.000 A 
ATOM     30  C   UNL     1      -3.129  12.397  23.197  0.00  0.00    +0.000 A 
ATOM     31  C   UNL     1      -1.920  11.525  23.060  0.00  0.00    +0.000 C 
ATOM     32  C   UNL     1      -3.940  12.204  24.330  0.00  0.00    +0.000 A 
ATOM     33  C   UNL     1      -4.975  13.080  24.641  0.00  0.00    +0.000 A 
ATOM     34  C   UNL     1      -5.195  14.192  23.841  0.00  0.00    +0.000 A 
ATOM     35  C   UNL     1      -4.448  14.375  22.668  0.00  0.00    +0.000 A 
ATOM     36  C   UNL     1      -4.669  15.618  21.850  0.00  0.00    +0.000 C 
ENDBRANCH  28  29
ENDBRANCH   2  28
TORSDOF 6
ENDMDL
MODEL 9
REMARK VINA RESULT:      -6.4      2.477      6.801
REMARK  Name = 
REMARK  9 active torsions:
REMARK  status: ('A' for Active; 'I' for Inactive)
REMARK    1  A    between atoms: C_1  and  O_2
REMARK    2  A    between atoms: O_2  and  C_3
REMARK    3  A    between atoms: C_3  and  C_4
REMARK    4  A    between atoms: C_7  and  C_9
REMARK    5  A    between atoms: C_10  and  O_11
REMARK    6  A    between atoms: O_11  and  C_12
REMARK    7  A    between atoms: C_13  and  C_14
REMARK    8  A    between atoms: C_18  and  C_19
REMARK    9  A    between atoms: N_20  and  C_21
REMARK                            x       y       z     vdW  Elec       q    Type
REMARK                         _______ _______ _______ _____ _____    ______ ____
ROOT
ATOM      1  C   UNL     1      -0.168  14.555  22.226  0.00  0.00    +0.000 A 
ATOM      2  C   UNL     1      -1.342  13.789  22.145  0.00  0.00    +0.000 A 
ATOM      3  N   UNL     1      -2.195  14.199  23.181  0.00  0.00    +0.000 N 
ATOM      4  C   UNL     1      -1.514  15.116  23.978  0.00  0.00    +0.000 A 
ATOM      5  C   UNL     1      -1.752  15.627  25.267  0.00  0.00    +0.000 A 
ATOM      6  C   UNL     1      -0.823  16.527  25.778  0.00  0.00    +0.000 A 
ATOM      7  C   UNL     1       0.245  16.900  24.988  0.00  0.00    +0.000 A 
ATOM      8  N   UNL     1       0.497  16.424  23.756  0.00  0.00    +0.000 NA
ATOM      9  C   UNL     1      -0.355  15.463  23.302  0.00  0.00    +0.000 A 
ENDROOT
BRANCH   1  13
ATOM     10  C   UNL     1       3.021  16.686  19.142  0.00  0.00    +0.000 C 
ATOM     11  C   UNL     1       2.406  15.302  19.491  0.00  0.00    +0.000 C 
ATOM     12  N   UNL     1       1.235  15.416  20.367  0.00  0.00    +0.000 N 
ATOM     13  C   UNL     1       1.027  14.439  21.369  0.00  0.00    +0.000 C 
ATOM     14  O   UNL     1       1.842  13.547  21.577  0.00  0.00    +0.000 OA
ATOM     15  C   UNL     1       0.250  16.395  19.898  0.00  0.00    +0.000 C 
ATOM     16  C   UNL     1       0.858  17.747  19.501  0.00  0.00    +0.000 C 
ATOM     17  N   UNL     1       2.022  17.649  18.617  0.00  0.00    +0.000 NA
ATOM     18  H   UNL     1       2.445  18.573  18.530  0.00  0.00    +0.000 HD
BRANCH  10  19
ATOM     19  C   UNL     1       3.814  17.271  20.332  0.00  0.00    +0.000 C 
BRANCH  19  21
ATOM     20  C   UNL     1       5.824  17.149  19.064  0.00  0.00    +0.000 C 
ATOM     21  O   UNL     1       5.039  17.907  19.969  0.00  0.00    +0.000 OA
ENDBRANCH  19  21
ENDBRANCH  10  19
ENDBRANCH   1  13
BRANCH   3  22
ATOM     22  C   UNL     1      -3.524  13.720  23.452  0.00  0.00    +0.000 A 
ATOM     23  C   UNL     1      -3.762  12.691  24.374  0.00  0.00    +0.000 A 
ATOM     24  C   UNL     1      -5.067  12.258  24.628  0.00  0.00    +0.000 A 
ATOM     25  C   UNL     1      -6.145  12.847  23.969  0.00  0.00    +0.000 A 
ATOM     26  C   UNL     1      -5.918  13.863  23.048  0.00  0.00    +0.000 A 
ATOM     27  C   UNL     1      -4.618  14.293  22.785  0.00  0.00    +0.000 A 
ENDBRANCH   3  22
BRANCH   2  28
ATOM     28  O   UNL     1      -1.787  12.851  21.298  0.00  0.00    +0.000 OA
BRANCH  28  29
ATOM     29  C   UNL     1      -1.032  11.868  20.700  0.00  0.00    +0.000 A 
ATOM     30  C   UNL     1      -0.566  11.901  19.378  0.00  0.00    +0.000 A 
ATOM     31  C   UNL     1      -0.677  13.090  18.475  0.00  0.00    +0.000 C 
ATOM     32  C   UNL     1       0.092  10.766  18.873  0.00  0.00    +0.000 A 
ATOM     33  C   UNL     1       0.406   9.684  19.690  0.00  0.00    +0.000 A 
ATOM     34  C   UNL     1       0.101   9.735  21.043  0.00  0.00    +0.000 A 
ATOM     35  C   UNL     1      -0.614  10.824  21.562  0.00  0.00    +0.000 A 
ATOM     36  C   UNL     1      -0.882  10.881  23.042  0.00  0.00    +0.000 C 
ENDBRANCH  28  29
ENDBRANCH   2  28
TORSDOF 6
ENDMDL
