MODEL 1
REMARK VINA RESULT:      -8.7      0.000      0.000
REMARK  Name = 
REMARK  8 active torsions:
REMARK  status: ('A' for Active; 'I' for Inactive)
REMARK    1  A    between atoms: C_2  and  C_3
REMARK    2  A    between atoms: C_3  and  S_4
REMARK    3  A    between atoms: S_4  and  C_5
REMARK    4  A    between atoms: N_9  and  C_10
REMARK    5  A    between atoms: N_17  and  N_18
REMARK    6  A    between atoms: C_19  and  C_20
REMARK    7  A    between atoms: C_23  and  C_24
REMARK    8  A    between atoms: C_28  and  N_29
REMARK                            x       y       z     vdW  Elec       q    Type
REMARK                         _______ _______ _______ _____ _____    ______ ____
ROOT
ATOM      1  O   UNL     1       2.530   4.820  19.808  0.00  0.00    +0.000 OA
ATOM      2  C   UNL     1       3.435   5.335  19.151  0.00  0.00    +0.000 C 
ATOM      3  N   UNL     1       3.453   6.663  18.739  0.00  0.00    +0.000 N 
ATOM      4  H   UNL     1       4.159   7.005  18.096  0.00  0.00    +0.000 HD
ENDROOT
BRANCH   3   5
ATOM      5  N   UNL     1       2.391   7.456  19.062  0.00  0.00    +0.000 NA
ATOM      6  C   UNL     1       2.245   8.556  18.396  0.00  0.00    +0.000 C 
BRANCH   6   7
ATOM      7  C   UNL     1       1.133   9.415  18.694  0.00  0.00    +0.000 A 
ATOM      8  C   UNL     1       0.907  10.268  19.755  0.00  0.00    +0.000 A 
ATOM      9  C   UNL     1      -0.352  10.868  19.530  0.00  0.00    +0.000 A 
ATOM     10  C   UNL     1      -0.831  10.359  18.339  0.00  0.00    +0.000 A 
ATOM     11  O   UNL     1       0.074   9.464  17.830  0.00  0.00    +0.000 OA
BRANCH  10  12
ATOM     12  C   UNL     1      -2.044  10.595  17.555  0.00  0.00    +0.000 A 
ATOM     13  C   UNL     1      -3.126  11.292  18.123  0.00  0.00    +0.000 A 
ATOM     14  C   UNL     1      -4.285  11.563  17.390  0.00  0.00    +0.000 A 
ATOM     15  C   UNL     1      -4.387  11.140  16.068  0.00  0.00    +0.000 A 
ATOM     16  C   UNL     1      -3.322  10.437  15.491  0.00  0.00    +0.000 A 
ATOM     17  C   UNL     1      -2.158  10.160  16.227  0.00  0.00    +0.000 A 
BRANCH  16  18
ATOM     18  N   UNL     1      -3.427   9.994  14.095  0.00  0.00    +0.000 N 
ATOM     19  O   UNL     1      -2.381   9.703  13.500  0.00  0.00    +0.000 OA
ATOM     20  O   UNL     1      -4.557   9.934  13.594  0.00  0.00    +0.000 OA
ENDBRANCH  16  18
ENDBRANCH  10  12
ENDBRANCH   6   7
ENDBRANCH   3   5
BRANCH   2  21
ATOM     21  C   UNL     1       4.667   4.549  18.737  0.00  0.00    +0.000 C 
BRANCH  21  22
ATOM     22  S   UNL     1       5.145   4.967  17.034  0.00  0.00    +0.000 S 
BRANCH  22  23
ATOM     23  C   UNL     1       6.350   6.192  17.339  0.00  0.00    +0.000 A 
ATOM     24  N   UNL     1       6.461   7.263  16.587  0.00  0.00    +0.000 NA
ATOM     25  N   UNL     1       7.402   8.133  17.088  0.00  0.00    +0.000 NA
ATOM     26  C   UNL     1       7.984   7.707  18.190  0.00  0.00    +0.000 A 
ATOM     27  N   UNL     1       8.883   8.356  18.975  0.00  0.00    +0.000 N 
ATOM     28  S   UNL     1       7.440   6.131  18.653  0.00  0.00    +0.000 S 
ATOM     29  H   UNL     1       9.222   7.845  19.782  0.00  0.00    +0.000 HD
BRANCH  27  30
ATOM     30  C   UNL     1       9.054   9.752  19.078  0.00  0.00    +0.000 A 
ATOM     31  C   UNL     1       9.132  10.512  17.897  0.00  0.00    +0.000 A 
ATOM     32  C   UNL     1       9.363  11.891  17.936  0.00  0.00    +0.000 A 
ATOM     33  C   UNL     1       9.507  12.538  19.159  0.00  0.00    +0.000 A 
ATOM     34  C   UNL     1       9.416  11.810  20.338  0.00  0.00    +0.000 A 
ATOM     35  C   UNL     1       9.188  10.429  20.296  0.00  0.00    +0.000 A 
ENDBRANCH  27  30
ENDBRANCH  22  23
ENDBRANCH  21  22
ENDBRANCH   2  21
TORSDOF 8
ENDMDL
MODEL 2
REMARK VINA RESULT:      -8.4      4.662      8.145
REMARK  Name = 
REMARK  8 active torsions:
REMARK  status: ('A' for Active; 'I' for Inactive)
REMARK    1  A    between atoms: C_2  and  C_3
REMARK    2  A    between atoms: C_3  and  S_4
REMARK    3  A    between atoms: S_4  and  C_5
REMARK    4  A    between atoms: N_9  and  C_10
REMARK    5  A    between atoms: N_17  and  N_18
REMARK    6  A    between atoms: C_19  and  C_20
REMARK    7  A    between atoms: C_23  and  C_24
REMARK    8  A    between atoms: C_28  and  N_29
REMARK                            x       y       z     vdW  Elec       q    Type
REMARK                         _______ _______ _______ _____ _____    ______ ____
ROOT
ATOM      1  O   UNL     1       0.943  11.703  20.098  0.00  0.00    +0.000 OA
ATOM      2  C   UNL     1       1.076  12.105  18.941  0.00  0.00    +0.000 C 
ATOM      3  N   UNL     1       1.753  11.418  17.940  0.00  0.00    +0.000 N 
ATOM      4  H   UNL     1       1.941  11.848  17.041  0.00  0.00    +0.000 HD
ENDROOT
BRANCH   3   5
ATOM      5  N   UNL     1       2.333  10.223  18.253  0.00  0.00    +0.000 NA
ATOM      6  C   UNL     1       1.799   9.154  17.756  0.00  0.00    +0.000 C 
BRANCH   6   7
ATOM      7  C   UNL     1       2.384   7.875  18.049  0.00  0.00    +0.000 A 
ATOM      8  C   UNL     1       1.922   6.821  18.810  0.00  0.00    +0.000 A 
ATOM      9  C   UNL     1       2.909   5.813  18.745  0.00  0.00    +0.000 A 
ATOM     10  C   UNL     1       3.924   6.297  17.942  0.00  0.00    +0.000 A 
ATOM     11  O   UNL     1       3.607   7.562  17.522  0.00  0.00    +0.000 OA
BRANCH  10  12
ATOM     12  C   UNL     1       5.191   5.737  17.469  0.00  0.00    +0.000 A 
ATOM     13  C   UNL     1       6.160   5.304  18.393  0.00  0.00    +0.000 A 
ATOM     14  C   UNL     1       7.365   4.735  17.974  0.00  0.00    +0.000 A 
ATOM     15  C   UNL     1       7.629   4.587  16.616  0.00  0.00    +0.000 A 
ATOM     16  C   UNL     1       6.679   5.022  15.683  0.00  0.00    +0.000 A 
ATOM     17  C   UNL     1       5.469   5.597  16.102  0.00  0.00    +0.000 A 
BRANCH  16  18
ATOM     18  N   UNL     1       6.955   4.862  14.250  0.00  0.00    +0.000 N 
ATOM     19  O   UNL     1       6.247   4.074  13.608  0.00  0.00    +0.000 OA
ATOM     20  O   UNL     1       7.879   5.527  13.764  0.00  0.00    +0.000 OA
ENDBRANCH  16  18
ENDBRANCH  10  12
ENDBRANCH   6   7
ENDBRANCH   3   5
BRANCH   2  21
ATOM     21  C   UNL     1       0.472  13.420  18.480  0.00  0.00    +0.000 C 
BRANCH  21  22
ATOM     22  S   UNL     1       0.896  14.755  19.637  0.00  0.00    +0.000 S 
BRANCH  22  23
ATOM     23  C   UNL     1       2.611  14.892  19.344  0.00  0.00    +0.000 A 
ATOM     24  N   UNL     1       3.501  14.624  20.273  0.00  0.00    +0.000 NA
ATOM     25  N   UNL     1       4.782  14.693  19.775  0.00  0.00    +0.000 NA
ATOM     26  C   UNL     1       4.839  15.013  18.499  0.00  0.00    +0.000 A 
ATOM     27  N   UNL     1       5.930  15.080  17.694  0.00  0.00    +0.000 N 
ATOM     28  S   UNL     1       3.274  15.327  17.831  0.00  0.00    +0.000 S 
ATOM     29  H   UNL     1       5.761  15.360  16.734  0.00  0.00    +0.000 HD
BRANCH  27  30
ATOM     30  C   UNL     1       7.151  14.398  17.875  0.00  0.00    +0.000 A 
ATOM     31  C   UNL     1       8.198  15.054  18.547  0.00  0.00    +0.000 A 
ATOM     32  C   UNL     1       9.451  14.452  18.703  0.00  0.00    +0.000 A 
ATOM     33  C   UNL     1       9.676  13.174  18.201  0.00  0.00    +0.000 A 
ATOM     34  C   UNL     1       8.650  12.501  17.549  0.00  0.00    +0.000 A 
ATOM     35  C   UNL     1       7.399  13.108  17.392  0.00  0.00    +0.000 A 
ENDBRANCH  27  30
ENDBRANCH  22  23
ENDBRANCH  21  22
ENDBRANCH   2  21
TORSDOF 8
ENDMDL
MODEL 3
REMARK VINA RESULT:      -8.2      5.857     10.927
REMARK  Name = 
REMARK  8 active torsions:
REMARK  status: ('A' for Active; 'I' for Inactive)
REMARK    1  A    between atoms: C_2  and  C_3
REMARK    2  A    between atoms: C_3  and  S_4
REMARK    3  A    between atoms: S_4  and  C_5
REMARK    4  A    between atoms: N_9  and  C_10
REMARK    5  A    between atoms: N_17  and  N_18
REMARK    6  A    between atoms: C_19  and  C_20
REMARK    7  A    between atoms: C_23  and  C_24
REMARK    8  A    between atoms: C_28  and  N_29
REMARK                            x       y       z     vdW  Elec       q    Type
REMARK                         _______ _______ _______ _____ _____    ______ ____
ROOT
ATOM      1  O   UNL     1      -3.713  13.403  24.930  0.00  0.00    +0.000 OA
ATOM      2  C   UNL     1      -3.971  13.758  23.779  0.00  0.00    +0.000 C 
ATOM      3  N   UNL     1      -3.420  13.188  22.636  0.00  0.00    +0.000 N 
ATOM      4  H   UNL     1      -3.569  13.597  21.720  0.00  0.00    +0.000 HD
ENDROOT
BRANCH   3   5
ATOM      5  N   UNL     1      -2.514  12.178  22.788  0.00  0.00    +0.000 NA
ATOM      6  C   UNL     1      -1.776  11.883  21.766  0.00  0.00    +0.000 C 
BRANCH   6   7
ATOM      7  C   UNL     1      -0.802  10.834  21.885  0.00  0.00    +0.000 A 
ATOM      8  C   UNL     1      -0.293  10.191  22.994  0.00  0.00    +0.000 A 
ATOM      9  C   UNL     1       0.635   9.238  22.519  0.00  0.00    +0.000 A 
ATOM     10  C   UNL     1       0.643   9.339  21.142  0.00  0.00    +0.000 A 
ATOM     11  O   UNL     1      -0.230  10.321  20.752  0.00  0.00    +0.000 OA
BRANCH  10  12
ATOM     12  C   UNL     1       1.355   8.625  20.081  0.00  0.00    +0.000 A 
ATOM     13  C   UNL     1       1.414   9.165  18.783  0.00  0.00    +0.000 A 
ATOM     14  C   UNL     1       2.114   8.524  17.757  0.00  0.00    +0.000 A 
ATOM     15  C   UNL     1       2.772   7.324  18.008  0.00  0.00    +0.000 A 
ATOM     16  C   UNL     1       2.715   6.769  19.293  0.00  0.00    +0.000 A 
ATOM     17  C   UNL     1       2.009   7.409  20.324  0.00  0.00    +0.000 A 
BRANCH  16  18
ATOM     18  N   UNL     1       3.413   5.504  19.559  0.00  0.00    +0.000 N 
ATOM     19  O   UNL     1       2.727   4.516  19.855  0.00  0.00    +0.000 OA
ATOM     20  O   UNL     1       4.647   5.498  19.469  0.00  0.00    +0.000 OA
ENDBRANCH  16  18
ENDBRANCH  10  12
ENDBRANCH   6   7
ENDBRANCH   3   5
BRANCH   2  21
ATOM     21  C   UNL     1      -4.964  14.869  23.491  0.00  0.00    +0.000 C 
BRANCH  21  22
ATOM     22  S   UNL     1      -6.578  14.176  23.027  0.00  0.00    +0.000 S 
BRANCH  22  23
ATOM     23  C   UNL     1      -6.183  13.467  21.482  0.00  0.00    +0.000 A 
ATOM     24  N   UNL     1      -5.440  14.093  20.598  0.00  0.00    +0.000 NA
ATOM     25  N   UNL     1      -5.172  13.292  19.510  0.00  0.00    +0.000 NA
ATOM     26  C   UNL     1      -5.715  12.095  19.587  0.00  0.00    +0.000 A 
ATOM     27  N   UNL     1      -5.576  11.049  18.732  0.00  0.00    +0.000 N 
ATOM     28  S   UNL     1      -6.675  11.900  21.013  0.00  0.00    +0.000 S 
ATOM     29  H   UNL     1      -6.092  10.208  18.968  0.00  0.00    +0.000 HD
BRANCH  27  30
ATOM     30  C   UNL     1      -4.498  10.822  17.852  0.00  0.00    +0.000 A 
ATOM     31  C   UNL     1      -4.543  11.393  16.568  0.00  0.00    +0.000 A 
ATOM     32  C   UNL     1      -3.533  11.152  15.630  0.00  0.00    +0.000 A 
ATOM     33  C   UNL     1      -2.450  10.345  15.965  0.00  0.00    +0.000 A 
ATOM     34  C   UNL     1      -2.377   9.785  17.235  0.00  0.00    +0.000 A 
ATOM     35  C   UNL     1      -3.391  10.025  18.170  0.00  0.00    +0.000 A 
ENDBRANCH  27  30
ENDBRANCH  22  23
ENDBRANCH  21  22
ENDBRANCH   2  21
TORSDOF 8
ENDMDL
MODEL 4
REMARK VINA RESULT:      -8.1      5.590      8.672
REMARK  Name = 
REMARK  8 active torsions:
REMARK  status: ('A' for Active; 'I' for Inactive)
REMARK    1  A    between atoms: C_2  and  C_3
REMARK    2  A    between atoms: C_3  and  S_4
REMARK    3  A    between atoms: S_4  and  C_5
REMARK    4  A    between atoms: N_9  and  C_10
REMARK    5  A    between atoms: N_17  and  N_18
REMARK    6  A    between atoms: C_19  and  C_20
REMARK    7  A    between atoms: C_23  and  C_24
REMARK    8  A    between atoms: C_28  and  N_29
REMARK                            x       y       z     vdW  Elec       q    Type
REMARK                         _______ _______ _______ _____ _____    ______ ____
ROOT
ATOM      1  O   UNL     1       9.267  10.494  19.965  0.00  0.00    +0.000 OA
ATOM      2  C   UNL     1       9.246  10.707  18.752  0.00  0.00    +0.000 C 
ATOM      3  N   UNL     1       8.771   9.810  17.802  0.00  0.00    +0.000 N 
ATOM      4  H   UNL     1       8.890   9.983  16.809  0.00  0.00    +0.000 HD
ENDROOT
BRANCH   3   5
ATOM      5  N   UNL     1       8.310   8.598  18.228  0.00  0.00    +0.000 NA
ATOM      6  C   UNL     1       7.563   7.926  17.413  0.00  0.00    +0.000 C 
BRANCH   6   7
ATOM      7  C   UNL     1       7.066   6.639  17.816  0.00  0.00    +0.000 A 
ATOM      8  C   UNL     1       7.727   5.465  18.111  0.00  0.00    +0.000 A 
ATOM      9  C   UNL     1       6.736   4.519  18.454  0.00  0.00    +0.000 A 
ATOM     10  C   UNL     1       5.517   5.163  18.359  0.00  0.00    +0.000 A 
ATOM     11  O   UNL     1       5.718   6.459  17.962  0.00  0.00    +0.000 OA
BRANCH  10  12
ATOM     12  C   UNL     1       4.135   4.750  18.606  0.00  0.00    +0.000 A 
ATOM     13  C   UNL     1       3.136   5.023  17.654  0.00  0.00    +0.000 A 
ATOM     14  C   UNL     1       1.814   4.612  17.845  0.00  0.00    +0.000 A 
ATOM     15  C   UNL     1       1.461   3.917  18.998  0.00  0.00    +0.000 A 
ATOM     16  C   UNL     1       2.443   3.645  19.959  0.00  0.00    +0.000 A 
ATOM     17  C   UNL     1       3.770   4.060  19.772  0.00  0.00    +0.000 A 
BRANCH  16  18
ATOM     18  N   UNL     1       2.072   2.907  21.174  0.00  0.00    +0.000 N 
ATOM     19  O   UNL     1       0.867   2.788  21.434  0.00  0.00    +0.000 OA
ATOM     20  O   UNL     1       2.987   2.444  21.868  0.00  0.00    +0.000 OA
ENDBRANCH  16  18
ENDBRANCH  10  12
ENDBRANCH   6   7
ENDBRANCH   3   5
BRANCH   2  21
ATOM     21  C   UNL     1       9.732  12.021  18.165  0.00  0.00    +0.000 C 
BRANCH  21  22
ATOM     22  S   UNL     1      10.077  13.219  19.487  0.00  0.00    +0.000 S 
BRANCH  22  23
ATOM     23  C   UNL     1       8.573  14.102  19.511  0.00  0.00    +0.000 A 
ATOM     24  N   UNL     1       8.010  14.552  18.412  0.00  0.00    +0.000 NA
ATOM     25  N   UNL     1       6.781  15.113  18.672  0.00  0.00    +0.000 NA
ATOM     26  C   UNL     1       6.443  15.086  19.944  0.00  0.00    +0.000 A 
ATOM     27  N   UNL     1       5.274  15.475  20.515  0.00  0.00    +0.000 N 
ATOM     28  S   UNL     1       7.686  14.409  20.939  0.00  0.00    +0.000 S 
ATOM     29  H   UNL     1       5.216  15.382  21.523  0.00  0.00    +0.000 HD
BRANCH  27  30
ATOM     30  C   UNL     1       4.016  15.554  19.883  0.00  0.00    +0.000 A 
ATOM     31  C   UNL     1       3.403  16.813  19.753  0.00  0.00    +0.000 A 
ATOM     32  C   UNL     1       2.129  16.945  19.191  0.00  0.00    +0.000 A 
ATOM     33  C   UNL     1       1.449  15.820  18.736  0.00  0.00    +0.000 A 
ATOM     34  C   UNL     1       2.043  14.569  18.839  0.00  0.00    +0.000 A 
ATOM     35  C   UNL     1       3.317  14.439  19.405  0.00  0.00    +0.000 A 
ENDBRANCH  27  30
ENDBRANCH  22  23
ENDBRANCH  21  22
ENDBRANCH   2  21
TORSDOF 8
ENDMDL
MODEL 5
REMARK VINA RESULT:      -7.9      4.626      7.801
REMARK  Name = 
REMARK  8 active torsions:
REMARK  status: ('A' for Active; 'I' for Inactive)
REMARK    1  A    between atoms: C_2  and  C_3
REMARK    2  A    between atoms: C_3  and  S_4
REMARK    3  A    between atoms: S_4  and  C_5
REMARK    4  A    between atoms: N_9  and  C_10
REMARK    5  A    between atoms: N_17  and  N_18
REMARK    6  A    between atoms: C_19  and  C_20
REMARK    7  A    between atoms: C_23  and  C_24
REMARK    8  A    between atoms: C_28  and  N_29
REMARK                            x       y       z     vdW  Elec       q    Type
REMARK                         _______ _______ _______ _____ _____    ______ ____
ROOT
ATOM      1  O   UNL     1       2.271  12.198  18.356  0.00  0.00    +0.000 OA
ATOM      2  C   UNL     1       1.317  12.603  19.023  0.00  0.00    +0.000 C 
ATOM      3  N   UNL     1       0.710  11.886  20.047  0.00  0.00    +0.000 N 
ATOM      4  H   UNL     1      -0.147  12.210  20.481  0.00  0.00    +0.000 HD
ENDROOT
BRANCH   3   5
ATOM      5  N   UNL     1       1.181  10.636  20.331  0.00  0.00    +0.000 NA
ATOM      6  C   UNL     1       1.008   9.718  19.435  0.00  0.00    +0.000 C 
BRANCH   6   7
ATOM      7  C   UNL     1       1.499   8.391  19.687  0.00  0.00    +0.000 A 
ATOM      8  C   UNL     1       1.322   7.550  20.765  0.00  0.00    +0.000 A 
ATOM      9  C   UNL     1       2.028   6.362  20.472  0.00  0.00    +0.000 A 
ATOM     10  C   UNL     1       2.597   6.533  19.224  0.00  0.00    +0.000 A 
ATOM     11  O   UNL     1       2.279   7.777  18.746  0.00  0.00    +0.000 OA
BRANCH  10  12
ATOM     12  C   UNL     1       3.412   5.677  18.361  0.00  0.00    +0.000 A 
ATOM     13  C   UNL     1       2.906   4.445  17.908  0.00  0.00    +0.000 A 
ATOM     14  C   UNL     1       3.646   3.622  17.055  0.00  0.00    +0.000 A 
ATOM     15  C   UNL     1       4.914   4.013  16.636  0.00  0.00    +0.000 A 
ATOM     16  C   UNL     1       5.435   5.233  17.086  0.00  0.00    +0.000 A 
ATOM     17  C   UNL     1       4.695   6.060  17.945  0.00  0.00    +0.000 A 
BRANCH  16  18
ATOM     18  N   UNL     1       6.772   5.650  16.641  0.00  0.00    +0.000 N 
ATOM     19  O   UNL     1       7.574   4.766  16.313  0.00  0.00    +0.000 OA
ATOM     20  O   UNL     1       7.017   6.863  16.615  0.00  0.00    +0.000 OA
ENDBRANCH  16  18
ENDBRANCH  10  12
ENDBRANCH   6   7
ENDBRANCH   3   5
BRANCH   2  21
ATOM     21  C   UNL     1       0.712  13.978  18.797  0.00  0.00    +0.000 C 
BRANCH  21  22
ATOM     22  S   UNL     1       1.335  15.157  20.032  0.00  0.00    +0.000 S 
BRANCH  22  23
ATOM     23  C   UNL     1       3.019  15.225  19.580  0.00  0.00    +0.000 A 
ATOM     24  N   UNL     1       3.982  15.028  20.451  0.00  0.00    +0.000 NA
ATOM     25  N   UNL     1       5.216  15.018  19.841  0.00  0.00    +0.000 NA
ATOM     26  C   UNL     1       5.165  15.213  18.539  0.00  0.00    +0.000 A 
ATOM     27  N   UNL     1       6.183  15.177  17.640  0.00  0.00    +0.000 N 
ATOM     28  S   UNL     1       3.552  15.497  17.980  0.00  0.00    +0.000 S 
ATOM     29  H   UNL     1       5.933  15.366  16.676  0.00  0.00    +0.000 HD
BRANCH  27  30
ATOM     30  C   UNL     1       7.404  14.488  17.782  0.00  0.00    +0.000 A 
ATOM     31  C   UNL     1       8.529  15.195  18.242  0.00  0.00    +0.000 A 
ATOM     32  C   UNL     1       9.782  14.581  18.344  0.00  0.00    +0.000 A 
ATOM     33  C   UNL     1       9.929  13.241  18.001  0.00  0.00    +0.000 A 
ATOM     34  C   UNL     1       8.827  12.518  17.561  0.00  0.00    +0.000 A 
ATOM     35  C   UNL     1       7.576  13.137  17.457  0.00  0.00    +0.000 A 
ENDBRANCH  27  30
ENDBRANCH  22  23
ENDBRANCH  21  22
ENDBRANCH   2  21
TORSDOF 8
ENDMDL
MODEL 6
REMARK VINA RESULT:      -7.8      6.024     10.838
REMARK  Name = 
REMARK  8 active torsions:
REMARK  status: ('A' for Active; 'I' for Inactive)
REMARK    1  A    between atoms: C_2  and  C_3
REMARK    2  A    between atoms: C_3  and  S_4
REMARK    3  A    between atoms: S_4  and  C_5
REMARK    4  A    between atoms: N_9  and  C_10
REMARK    5  A    between atoms: N_17  and  N_18
REMARK    6  A    between atoms: C_19  and  C_20
REMARK    7  A    between atoms: C_23  and  C_24
REMARK    8  A    between atoms: C_28  and  N_29
REMARK                            x       y       z     vdW  Elec       q    Type
REMARK                         _______ _______ _______ _____ _____    ______ ____
ROOT
ATOM      1  O   UNL     1      -4.893  12.187  23.156  0.00  0.00    +0.000 OA
ATOM      2  C   UNL     1      -4.997  13.377  22.855  0.00  0.00    +0.000 C 
ATOM      3  N   UNL     1      -4.106  14.065  22.038  0.00  0.00    +0.000 N 
ATOM      4  H   UNL     1      -4.167  15.071  21.923  0.00  0.00    +0.000 HD
ENDROOT
BRANCH   3   5
ATOM      5  N   UNL     1      -3.027  13.390  21.545  0.00  0.00    +0.000 NA
ATOM      6  C   UNL     1      -2.579  13.752  20.386  0.00  0.00    +0.000 C 
BRANCH   6   7
ATOM      7  C   UNL     1      -1.437  13.077  19.833  0.00  0.00    +0.000 A 
ATOM      8  C   UNL     1      -0.549  13.458  18.849  0.00  0.00    +0.000 A 
ATOM      9  C   UNL     1       0.382  12.404  18.714  0.00  0.00    +0.000 A 
ATOM     10  C   UNL     1       0.022  11.433  19.629  0.00  0.00    +0.000 A 
ATOM     11  O   UNL     1      -1.095  11.841  20.309  0.00  0.00    +0.000 OA
BRANCH  10  12
ATOM     12  C   UNL     1       0.588  10.135  19.998  0.00  0.00    +0.000 A 
ATOM     13  C   UNL     1       0.372   9.612  21.286  0.00  0.00    +0.000 A 
ATOM     14  C   UNL     1       0.869   8.360  21.658  0.00  0.00    +0.000 A 
ATOM     15  C   UNL     1       1.598   7.602  20.747  0.00  0.00    +0.000 A 
ATOM     16  C   UNL     1       1.830   8.113  19.464  0.00  0.00    +0.000 A 
ATOM     17  C   UNL     1       1.334   9.372  19.088  0.00  0.00    +0.000 A 
BRANCH  16  18
ATOM     18  N   UNL     1       2.595   7.312  18.499  0.00  0.00    +0.000 N 
ATOM     19  O   UNL     1       3.105   7.898  17.535  0.00  0.00    +0.000 OA
ATOM     20  O   UNL     1       2.690   6.095  18.709  0.00  0.00    +0.000 OA
ENDBRANCH  16  18
ENDBRANCH  10  12
ENDBRANCH   6   7
ENDBRANCH   3   5
BRANCH   2  21
ATOM     21  C   UNL     1      -6.157  14.226  23.345  0.00  0.00    +0.000 C 
BRANCH  21  22
ATOM     22  S   UNL     1      -7.688  13.769  22.481  0.00  0.00    +0.000 S 
BRANCH  22  23
ATOM     23  C   UNL     1      -7.030  13.085  21.016  0.00  0.00    +0.000 A 
ATOM     24  N   UNL     1      -6.326  13.800  20.169  0.00  0.00    +0.000 NA
ATOM     25  N   UNL     1      -5.821  13.020  19.153  0.00  0.00    +0.000 NA
ATOM     26  C   UNL     1      -6.153  11.749  19.245  0.00  0.00    +0.000 A 
ATOM     27  N   UNL     1      -5.753  10.713  18.463  0.00  0.00    +0.000 N 
ATOM     28  S   UNL     1      -7.197  11.439  20.590  0.00  0.00    +0.000 S 
ATOM     29  H   UNL     1      -6.135   9.804  18.696  0.00  0.00    +0.000 HD
BRANCH  27  30
ATOM     30  C   UNL     1      -4.573  10.649  17.694  0.00  0.00    +0.000 A 
ATOM     31  C   UNL     1      -4.565  11.240  16.418  0.00  0.00    +0.000 A 
ATOM     32  C   UNL     1      -3.444  11.155  15.585  0.00  0.00    +0.000 A 
ATOM     33  C   UNL     1      -2.304  10.487  16.020  0.00  0.00    +0.000 A 
ATOM     34  C   UNL     1      -2.284   9.911  17.284  0.00  0.00    +0.000 A 
ATOM     35  C   UNL     1      -3.408   9.995  18.114  0.00  0.00    +0.000 A 
ENDBRANCH  27  30
ENDBRANCH  22  23
ENDBRANCH  21  22
ENDBRANCH   2  21
TORSDOF 8
ENDMDL
MODEL 7
REMARK VINA RESULT:      -7.8      4.085      5.835
REMARK  Name = 
REMARK  8 active torsions:
REMARK  status: ('A' for Active; 'I' for Inactive)
REMARK    1  A    between atoms: C_2  and  C_3
REMARK    2  A    between atoms: C_3  and  S_4
REMARK    3  A    between atoms: S_4  and  C_5
REMARK    4  A    between atoms: N_9  and  C_10
REMARK    5  A    between atoms: N_17  and  N_18
REMARK    6  A    between atoms: C_19  and  C_20
REMARK    7  A    between atoms: C_23  and  C_24
REMARK    8  A    between atoms: C_28  and  N_29
REMARK                            x       y       z     vdW  Elec       q    Type
REMARK                         _______ _______ _______ _____ _____    ______ ____
ROOT
ATOM      1  O   UNL     1       3.038   6.585  17.824  0.00  0.00    +0.000 OA
ATOM      2  C   UNL     1       3.151   6.301  19.017  0.00  0.00    +0.000 C 
ATOM      3  N   UNL     1       2.480   6.948  20.048  0.00  0.00    +0.000 N 
ATOM      4  H   UNL     1       2.701   6.760  21.020  0.00  0.00    +0.000 HD
ENDROOT
BRANCH   3   5
ATOM      5  N   UNL     1       1.652   7.986  19.732  0.00  0.00    +0.000 NA
ATOM      6  C   UNL     1       1.256   8.749  20.700  0.00  0.00    +0.000 C 
BRANCH   6   7
ATOM      7  C   UNL     1       0.393   9.860  20.410  0.00  0.00    +0.000 A 
ATOM      8  C   UNL     1       0.335  11.127  20.952  0.00  0.00    +0.000 A 
ATOM      9  C   UNL     1      -0.707  11.806  20.282  0.00  0.00    +0.000 A 
ATOM     10  C   UNL     1      -1.229  10.924  19.357  0.00  0.00    +0.000 A 
ATOM     11  O   UNL     1      -0.562   9.730  19.439  0.00  0.00    +0.000 OA
BRANCH  10  12
ATOM     12  C   UNL     1      -2.289  11.025  18.352  0.00  0.00    +0.000 A 
ATOM     13  C   UNL     1      -2.062  10.569  17.040  0.00  0.00    +0.000 A 
ATOM     14  C   UNL     1      -3.064  10.621  16.067  0.00  0.00    +0.000 A 
ATOM     15  C   UNL     1      -4.318  11.132  16.385  0.00  0.00    +0.000 A 
ATOM     16  C   UNL     1      -4.556  11.598  17.685  0.00  0.00    +0.000 A 
ATOM     17  C   UNL     1      -3.551  11.551  18.663  0.00  0.00    +0.000 A 
BRANCH  16  18
ATOM     18  N   UNL     1      -5.881  12.134  18.023  0.00  0.00    +0.000 N 
ATOM     19  O   UNL     1      -5.951  13.313  18.392  0.00  0.00    +0.000 OA
ATOM     20  O   UNL     1      -6.853  11.375  17.916  0.00  0.00    +0.000 OA
ENDBRANCH  16  18
ENDBRANCH  10  12
ENDBRANCH   6   7
ENDBRANCH   3   5
BRANCH   2  21
ATOM     21  C   UNL     1       4.042   5.164  19.486  0.00  0.00    +0.000 C 
BRANCH  21  22
ATOM     22  S   UNL     1       5.789   5.555  19.171  0.00  0.00    +0.000 S 
BRANCH  22  23
ATOM     23  C   UNL     1       6.000   4.812  17.606  0.00  0.00    +0.000 A 
ATOM     24  N   UNL     1       5.447   3.660  17.302  0.00  0.00    +0.000 NA
ATOM     25  N   UNL     1       5.660   3.334  15.982  0.00  0.00    +0.000 NA
ATOM     26  C   UNL     1       6.366   4.229  15.322  0.00  0.00    +0.000 A 
ATOM     27  N   UNL     1       6.677   4.252  14.000  0.00  0.00    +0.000 N 
ATOM     28  S   UNL     1       6.885   5.532  16.336  0.00  0.00    +0.000 S 
ATOM     29  H   UNL     1       7.246   5.032  13.689  0.00  0.00    +0.000 HD
BRANCH  27  30
ATOM     30  C   UNL     1       5.965   3.622  12.960  0.00  0.00    +0.000 A 
ATOM     31  C   UNL     1       6.573   2.555  12.274  0.00  0.00    +0.000 A 
ATOM     32  C   UNL     1       5.941   1.932  11.193  0.00  0.00    +0.000 A 
ATOM     33  C   UNL     1       4.680   2.356  10.786  0.00  0.00    +0.000 A 
ATOM     34  C   UNL     1       4.053   3.396  11.460  0.00  0.00    +0.000 A 
ATOM     35  C   UNL     1       4.690   4.020  12.539  0.00  0.00    +0.000 A 
ENDBRANCH  27  30
ENDBRANCH  22  23
ENDBRANCH  21  22
ENDBRANCH   2  21
TORSDOF 8
ENDMDL
MODEL 8
REMARK VINA RESULT:      -7.8      5.230      8.607
REMARK  Name = 
REMARK  8 active torsions:
REMARK  status: ('A' for Active; 'I' for Inactive)
REMARK    1  A    between atoms: C_2  and  C_3
REMARK    2  A    between atoms: C_3  and  S_4
REMARK    3  A    between atoms: S_4  and  C_5
REMARK    4  A    between atoms: N_9  and  C_10
REMARK    5  A    between atoms: N_17  and  N_18
REMARK    6  A    between atoms: C_19  and  C_20
REMARK    7  A    between atoms: C_23  and  C_24
REMARK    8  A    between atoms: C_28  and  N_29
REMARK                            x       y       z     vdW  Elec       q    Type
REMARK                         _______ _______ _______ _____ _____    ______ ____
ROOT
ATOM      1  O   UNL     1       1.499   8.860  19.230  0.00  0.00    +0.000 OA
ATOM      2  C   UNL     1       1.427   8.415  20.376  0.00  0.00    +0.000 C 
ATOM      3  N   UNL     1       1.726   7.105  20.733  0.00  0.00    +0.000 N 
ATOM      4  H   UNL     1       1.531   6.756  21.666  0.00  0.00    +0.000 HD
ENDROOT
BRANCH   3   5
ATOM      5  N   UNL     1       2.108   6.237  19.752  0.00  0.00    +0.000 NA
ATOM      6  C   UNL     1       3.209   5.581  19.933  0.00  0.00    +0.000 C 
BRANCH   6   7
ATOM      7  C   UNL     1       3.643   4.648  18.931  0.00  0.00    +0.000 A 
ATOM      8  C   UNL     1       3.386   3.302  18.775  0.00  0.00    +0.000 A 
ATOM      9  C   UNL     1       4.068   2.892  17.607  0.00  0.00    +0.000 A 
ATOM     10  C   UNL     1       4.702   4.010  17.102  0.00  0.00    +0.000 A 
ATOM     11  O   UNL     1       4.449   5.084  17.915  0.00  0.00    +0.000 OA
BRANCH  10  12
ATOM     12  C   UNL     1       5.531   4.253  15.920  0.00  0.00    +0.000 A 
ATOM     13  C   UNL     1       6.674   5.068  16.015  0.00  0.00    +0.000 A 
ATOM     14  C   UNL     1       7.504   5.292  14.914  0.00  0.00    +0.000 A 
ATOM     15  C   UNL     1       7.208   4.704  13.688  0.00  0.00    +0.000 A 
ATOM     16  C   UNL     1       6.069   3.897  13.575  0.00  0.00    +0.000 A 
ATOM     17  C   UNL     1       5.231   3.674  14.679  0.00  0.00    +0.000 A 
BRANCH  16  18
ATOM     18  N   UNL     1       5.757   3.272  12.283  0.00  0.00    +0.000 N 
ATOM     19  O   UNL     1       4.613   3.414  11.832  0.00  0.00    +0.000 OA
ATOM     20  O   UNL     1       6.660   2.642  11.716  0.00  0.00    +0.000 OA
ENDBRANCH  16  18
ENDBRANCH  10  12
ENDBRANCH   6   7
ENDBRANCH   3   5
BRANCH   2  21
ATOM     21  C   UNL     1       1.014   9.289  21.547  0.00  0.00    +0.000 C 
BRANCH  21  22
ATOM     22  S   UNL     1      -0.349  10.391  21.069  0.00  0.00    +0.000 S 
BRANCH  22  23
ATOM     23  C   UNL     1       0.542  11.839  20.673  0.00  0.00    +0.000 A 
ATOM     24  N   UNL     1       1.542  12.265  21.410  0.00  0.00    +0.000 NA
ATOM     25  N   UNL     1       2.157  13.355  20.838  0.00  0.00    +0.000 NA
ATOM     26  C   UNL     1       1.616  13.733  19.699  0.00  0.00    +0.000 A 
ATOM     27  N   UNL     1       2.031  14.707  18.849  0.00  0.00    +0.000 N 
ATOM     28  S   UNL     1       0.230  12.783  19.284  0.00  0.00    +0.000 S 
ATOM     29  H   UNL     1       1.463  14.850  18.021  0.00  0.00    +0.000 HD
BRANCH  27  30
ATOM     30  C   UNL     1       3.342  15.213  18.727  0.00  0.00    +0.000 A 
ATOM     31  C   UNL     1       4.316  14.419  18.095  0.00  0.00    +0.000 A 
ATOM     32  C   UNL     1       5.646  14.841  17.999  0.00  0.00    +0.000 A 
ATOM     33  C   UNL     1       6.025  16.073  18.524  0.00  0.00    +0.000 A 
ATOM     34  C   UNL     1       5.075  16.881  19.137  0.00  0.00    +0.000 A 
ATOM     35  C   UNL     1       3.745  16.454  19.234  0.00  0.00    +0.000 A 
ENDBRANCH  27  30
ENDBRANCH  22  23
ENDBRANCH  21  22
ENDBRANCH   2  21
TORSDOF 8
ENDMDL
MODEL 9
REMARK VINA RESULT:      -7.7      5.514     10.953
REMARK  Name = 
REMARK  8 active torsions:
REMARK  status: ('A' for Active; 'I' for Inactive)
REMARK    1  A    between atoms: C_2  and  C_3
REMARK    2  A    between atoms: C_3  and  S_4
REMARK    3  A    between atoms: S_4  and  C_5
REMARK    4  A    between atoms: N_9  and  C_10
REMARK    5  A    between atoms: N_17  and  N_18
REMARK    6  A    between atoms: C_19  and  C_20
REMARK    7  A    between atoms: C_23  and  C_24
REMARK    8  A    between atoms: C_28  and  N_29
REMARK                            x       y       z     vdW  Elec       q    Type
REMARK                         _______ _______ _______ _____ _____    ______ ____
ROOT
ATOM      1  O   UNL     1      -3.606   9.462  17.743  0.00  0.00    +0.000 OA
ATOM      2  C   UNL     1      -3.220  10.583  17.406  0.00  0.00    +0.000 C 
ATOM      3  N   UNL     1      -1.892  10.995  17.413  0.00  0.00    +0.000 N 
ATOM      4  H   UNL     1      -1.640  11.963  17.247  0.00  0.00    +0.000 HD
ENDROOT
BRANCH   3   5
ATOM      5  N   UNL     1      -0.942  10.112  17.840  0.00  0.00    +0.000 NA
ATOM      6  C   UNL     1      -0.548  10.210  19.069  0.00  0.00    +0.000 C 
BRANCH   6   7
ATOM      7  C   UNL     1       0.442   9.294  19.563  0.00  0.00    +0.000 A 
ATOM      8  C   UNL     1       0.781   8.936  20.851  0.00  0.00    +0.000 A 
ATOM      9  C   UNL     1       1.824   7.988  20.746  0.00  0.00    +0.000 A 
ATOM     10  C   UNL     1       2.065   7.806  19.399  0.00  0.00    +0.000 A 
ATOM     11  O   UNL     1       1.225   8.611  18.674  0.00  0.00    +0.000 OA
BRANCH  10  12
ATOM     12  C   UNL     1       2.984   6.953  18.643  0.00  0.00    +0.000 A 
ATOM     13  C   UNL     1       3.680   7.473  17.536  0.00  0.00    +0.000 A 
ATOM     14  C   UNL     1       4.589   6.694  16.815  0.00  0.00    +0.000 A 
ATOM     15  C   UNL     1       4.823   5.373  17.187  0.00  0.00    +0.000 A 
ATOM     16  C   UNL     1       4.131   4.839  18.282  0.00  0.00    +0.000 A 
ATOM     17  C   UNL     1       3.215   5.618  19.005  0.00  0.00    +0.000 A 
BRANCH  16  18
ATOM     18  N   UNL     1       4.380   3.447  18.678  0.00  0.00    +0.000 N 
ATOM     19  O   UNL     1       3.865   2.551  17.997  0.00  0.00    +0.000 OA
ATOM     20  O   UNL     1       5.095   3.250  19.669  0.00  0.00    +0.000 OA
ENDBRANCH  16  18
ENDBRANCH  10  12
ENDBRANCH   6   7
ENDBRANCH   3   5
BRANCH   2  21
ATOM     21  C   UNL     1      -4.187  11.645  16.913  0.00  0.00    +0.000 C 
BRANCH  21  22
ATOM     22  S   UNL     1      -5.779  11.506  17.779  0.00  0.00    +0.000 S 
BRANCH  22  23
ATOM     23  C   UNL     1      -5.306  11.996  19.386  0.00  0.00    +0.000 A 
ATOM     24  N   UNL     1      -4.112  12.477  19.644  0.00  0.00    +0.000 NA
ATOM     25  N   UNL     1      -4.013  12.897  20.952  0.00  0.00    +0.000 NA
ATOM     26  C   UNL     1      -5.115  12.722  21.650  0.00  0.00    +0.000 A 
ATOM     27  N   UNL     1      -5.374  13.103  22.928  0.00  0.00    +0.000 N 
ATOM     28  S   UNL     1      -6.357  11.942  20.732  0.00  0.00    +0.000 S 
ATOM     29  H   UNL     1      -6.291  12.862  23.288  0.00  0.00    +0.000 HD
BRANCH  27  30
ATOM     30  C   UNL     1      -4.746  14.148  23.636  0.00  0.00    +0.000 A 
ATOM     31  C   UNL     1      -3.585  13.860  24.375  0.00  0.00    +0.000 A 
ATOM     32  C   UNL     1      -2.953  14.841  25.147  0.00  0.00    +0.000 A 
ATOM     33  C   UNL     1      -3.465  16.134  25.183  0.00  0.00    +0.000 A 
ATOM     34  C   UNL     1      -4.601  16.445  24.446  0.00  0.00    +0.000 A 
ATOM     35  C   UNL     1      -5.233  15.460  23.678  0.00  0.00    +0.000 A 
ENDBRANCH  27  30
ENDBRANCH  22  23
ENDBRANCH  21  22
ENDBRANCH   2  21
TORSDOF 8
ENDMDL
