MODEL 1
REMARK VINA RESULT:      -7.7      0.000      0.000
REMARK  Name = 
REMARK  4 active torsions:
REMARK  status: ('A' for Active; 'I' for Inactive)
REMARK    1  A    between atoms: C_1  and  S_2
REMARK    2  A    between atoms: S_2  and  C_3
REMARK    3  A    between atoms: N_9  and  C_10
REMARK    4  A    between atoms: N_18  and  C_19
REMARK                            x       y       z     vdW  Elec       q    Type
REMARK                         _______ _______ _______ _____ _____    ______ ____
ROOT
ATOM      1  C   UNL     1       4.066   3.558  17.425  0.00  0.00    +0.000 A 
ATOM      2  N   UNL     1       4.749   3.779  16.341  0.00  0.00    +0.000 NA
ATOM      3  C   UNL     1       5.802   4.614  16.488  0.00  0.00    +0.000 A 
ATOM      4  C   UNL     1       6.180   5.228  17.650  0.00  0.00    +0.000 A 
ATOM      5  C   UNL     1       7.337   5.944  17.338  0.00  0.00    +0.000 A 
ATOM      6  N   UNL     1       7.675   5.818  16.050  0.00  0.00    +0.000 NA
ATOM      7  N   UNL     1       6.709   5.006  15.508  0.00  0.00    +0.000 N 
ATOM      8  C   UNL     1       5.415   5.027  18.852  0.00  0.00    +0.000 A 
ATOM      9  O   UNL     1       5.716   5.603  19.894  0.00  0.00    +0.000 OA
ATOM     10  N   UNL     1       4.349   4.117  18.687  0.00  0.00    +0.000 N 
ENDROOT
BRANCH   7  11
ATOM     11  C   UNL     1       6.732   4.668  14.122  0.00  0.00    +0.000 A 
ATOM     12  C   UNL     1       7.639   5.309  13.264  0.00  0.00    +0.000 A 
ATOM     13  C   UNL     1       7.706   4.955  11.913  0.00  0.00    +0.000 A 
ATOM     14  C   UNL     1       6.866   3.968  11.401  0.00  0.00    +0.000 A 
ATOM     15  C   UNL     1       5.945   3.344  12.237  0.00  0.00    +0.000 A 
ATOM     16  C   UNL     1       5.877   3.692  13.588  0.00  0.00    +0.000 A 
ENDBRANCH   7  11
BRANCH  10  17
ATOM     17  C   UNL     1       3.547   3.832  19.829  0.00  0.00    +0.000 A 
ATOM     18  C   UNL     1       2.604   4.769  20.269  0.00  0.00    +0.000 A 
ATOM     19  C   UNL     1       1.756   4.461  21.333  0.00  0.00    +0.000 A 
ATOM     20  C   UNL     1       1.863   3.229  21.978  0.00  0.00    +0.000 A 
ATOM     21  C   UNL     1       2.826   2.308  21.573  0.00  0.00    +0.000 A 
ATOM     22  C   UNL     1       3.668   2.609  20.501  0.00  0.00    +0.000 A 
ENDBRANCH  10  17
BRANCH   1  24
ATOM     23  C   UNL     1       1.360   3.762  17.326  0.00  0.00    +0.000 C 
ATOM     24  S   UNL     1       2.661   2.517  17.209  0.00  0.00    +0.000 S 
ENDBRANCH   1  24
TORSDOF 3
ENDMDL
MODEL 2
REMARK VINA RESULT:      -7.5      0.714      1.306
REMARK  Name = 
REMARK  4 active torsions:
REMARK  status: ('A' for Active; 'I' for Inactive)
REMARK    1  A    between atoms: C_1  and  S_2
REMARK    2  A    between atoms: S_2  and  C_3
REMARK    3  A    between atoms: N_9  and  C_10
REMARK    4  A    between atoms: N_18  and  C_19
REMARK                            x       y       z     vdW  Elec       q    Type
REMARK                         _______ _______ _______ _____ _____    ______ ____
ROOT
ATOM      1  C   UNL     1       4.015   3.590  17.353  0.00  0.00    +0.000 A 
ATOM      2  N   UNL     1       4.777   3.845  16.330  0.00  0.00    +0.000 NA
ATOM      3  C   UNL     1       5.685   4.827  16.524  0.00  0.00    +0.000 A 
ATOM      4  C   UNL     1       5.848   5.552  17.672  0.00  0.00    +0.000 A 
ATOM      5  C   UNL     1       6.924   6.405  17.427  0.00  0.00    +0.000 A 
ATOM      6  N   UNL     1       7.414   6.258  16.192  0.00  0.00    +0.000 NA
ATOM      7  N   UNL     1       6.632   5.289  15.614  0.00  0.00    +0.000 N 
ATOM      8  C   UNL     1       4.990   5.312  18.802  0.00  0.00    +0.000 A 
ATOM      9  O   UNL     1       5.095   5.981  19.826  0.00  0.00    +0.000 OA
ATOM     10  N   UNL     1       4.081   4.252  18.595  0.00  0.00    +0.000 N 
ENDROOT
BRANCH   7  11
ATOM     11  C   UNL     1       6.852   4.881  14.264  0.00  0.00    +0.000 A 
ATOM     12  C   UNL     1       6.132   3.798  13.738  0.00  0.00    +0.000 A 
ATOM     13  C   UNL     1       6.303   3.416  12.403  0.00  0.00    +0.000 A 
ATOM     14  C   UNL     1       7.198   4.103  11.584  0.00  0.00    +0.000 A 
ATOM     15  C   UNL     1       7.935   5.162  12.103  0.00  0.00    +0.000 A 
ATOM     16  C   UNL     1       7.766   5.548  13.434  0.00  0.00    +0.000 A 
ENDBRANCH   7  11
BRANCH  10  17
ATOM     17  C   UNL     1       3.205   3.921  19.668  0.00  0.00    +0.000 A 
ATOM     18  C   UNL     1       1.955   4.545  19.765  0.00  0.00    +0.000 A 
ATOM     19  C   UNL     1       1.058   4.162  20.763  0.00  0.00    +0.000 A 
ATOM     20  C   UNL     1       1.414   3.176  21.681  0.00  0.00    +0.000 A 
ATOM     21  C   UNL     1       2.670   2.580  21.617  0.00  0.00    +0.000 A 
ATOM     22  C   UNL     1       3.567   2.952  20.612  0.00  0.00    +0.000 A 
ENDBRANCH  10  17
BRANCH   1  24
ATOM     23  C   UNL     1       3.514   1.013  18.047  0.00  0.00    +0.000 C 
ATOM     24  S   UNL     1       2.795   2.350  17.071  0.00  0.00    +0.000 S 
ENDBRANCH   1  24
TORSDOF 3
ENDMDL
MODEL 3
REMARK VINA RESULT:      -7.5      5.286      7.801
REMARK  Name = 
REMARK  4 active torsions:
REMARK  status: ('A' for Active; 'I' for Inactive)
REMARK    1  A    between atoms: C_1  and  S_2
REMARK    2  A    between atoms: S_2  and  C_3
REMARK    3  A    between atoms: N_9  and  C_10
REMARK    4  A    between atoms: N_18  and  C_19
REMARK                            x       y       z     vdW  Elec       q    Type
REMARK                         _______ _______ _______ _____ _____    ______ ____
ROOT
ATOM      1  C   UNL     1       0.928   8.620  20.371  0.00  0.00    +0.000 A 
ATOM      2  N   UNL     1       1.462   7.435  20.380  0.00  0.00    +0.000 NA
ATOM      3  C   UNL     1       2.293   7.173  19.347  0.00  0.00    +0.000 A 
ATOM      4  C   UNL     1       2.593   8.030  18.324  0.00  0.00    +0.000 A 
ATOM      5  C   UNL     1       3.521   7.356  17.530  0.00  0.00    +0.000 A 
ATOM      6  N   UNL     1       3.789   6.131  17.996  0.00  0.00    +0.000 NA
ATOM      7  N   UNL     1       3.009   6.002  19.118  0.00  0.00    +0.000 N 
ATOM      8  C   UNL     1       1.984   9.332  18.275  0.00  0.00    +0.000 A 
ATOM      9  O   UNL     1       2.210  10.099  17.343  0.00  0.00    +0.000 OA
ATOM     10  N   UNL     1       1.157   9.602  19.387  0.00  0.00    +0.000 N 
ENDROOT
BRANCH   7  11
ATOM     11  C   UNL     1       3.016   4.793  19.877  0.00  0.00    +0.000 A 
ATOM     12  C   UNL     1       2.128   4.640  20.952  0.00  0.00    +0.000 A 
ATOM     13  C   UNL     1       2.091   3.443  21.675  0.00  0.00    +0.000 A 
ATOM     14  C   UNL     1       2.943   2.393  21.341  0.00  0.00    +0.000 A 
ATOM     15  C   UNL     1       3.846   2.543  20.294  0.00  0.00    +0.000 A 
ATOM     16  C   UNL     1       3.884   3.735  19.567  0.00  0.00    +0.000 A 
ENDBRANCH   7  11
BRANCH  10  17
ATOM     17  C   UNL     1       0.527  10.879  19.441  0.00  0.00    +0.000 A 
ATOM     18  C   UNL     1       1.158  11.937  20.107  0.00  0.00    +0.000 A 
ATOM     19  C   UNL     1       0.589  13.212  20.090  0.00  0.00    +0.000 A 
ATOM     20  C   UNL     1      -0.621  13.428  19.431  0.00  0.00    +0.000 A 
ATOM     21  C   UNL     1      -1.274  12.372  18.802  0.00  0.00    +0.000 A 
ATOM     22  C   UNL     1      -0.702  11.098  18.807  0.00  0.00    +0.000 A 
ENDBRANCH  10  17
BRANCH   1  24
ATOM     23  C   UNL     1       0.982   9.388  22.976  0.00  0.00    +0.000 C 
ATOM     24  S   UNL     1      -0.199   8.930  21.689  0.00  0.00    +0.000 S 
ENDBRANCH   1  24
TORSDOF 3
ENDMDL
MODEL 4
REMARK VINA RESULT:      -7.5      5.714      8.219
REMARK  Name = 
REMARK  4 active torsions:
REMARK  status: ('A' for Active; 'I' for Inactive)
REMARK    1  A    between atoms: C_1  and  S_2
REMARK    2  A    between atoms: S_2  and  C_3
REMARK    3  A    between atoms: N_9  and  C_10
REMARK    4  A    between atoms: N_18  and  C_19
REMARK                            x       y       z     vdW  Elec       q    Type
REMARK                         _______ _______ _______ _____ _____    ______ ____
ROOT
ATOM      1  C   UNL     1       0.757   9.242  20.234  0.00  0.00    +0.000 A 
ATOM      2  N   UNL     1       1.038   7.972  20.220  0.00  0.00    +0.000 NA
ATOM      3  C   UNL     1       1.882   7.584  19.239  0.00  0.00    +0.000 A 
ATOM      4  C   UNL     1       2.433   8.398  18.288  0.00  0.00    +0.000 A 
ATOM      5  C   UNL     1       3.268   7.577  17.529  0.00  0.00    +0.000 A 
ATOM      6  N   UNL     1       3.244   6.307  17.949  0.00  0.00    +0.000 NA
ATOM      7  N   UNL     1       2.363   6.299  19.002  0.00  0.00    +0.000 N 
ATOM      8  C   UNL     1       2.104   9.798  18.263  0.00  0.00    +0.000 A 
ATOM      9  O   UNL     1       2.558  10.536  17.391  0.00  0.00    +0.000 OA
ATOM     10  N   UNL     1       1.260  10.191  19.323  0.00  0.00    +0.000 N 
ENDROOT
BRANCH   7  11
ATOM     11  C   UNL     1       2.063   5.088  19.694  0.00  0.00    +0.000 A 
ATOM     12  C   UNL     1       1.376   4.060  19.033  0.00  0.00    +0.000 A 
ATOM     13  C   UNL     1       1.116   2.849  19.683  0.00  0.00    +0.000 A 
ATOM     14  C   UNL     1       1.529   2.655  21.000  0.00  0.00    +0.000 A 
ATOM     15  C   UNL     1       2.189   3.677  21.674  0.00  0.00    +0.000 A 
ATOM     16  C   UNL     1       2.454   4.886  21.027  0.00  0.00    +0.000 A 
ENDBRANCH   7  11
BRANCH  10  17
ATOM     17  C   UNL     1       0.899  11.567  19.398  0.00  0.00    +0.000 A 
ATOM     18  C   UNL     1       1.663  12.445  20.175  0.00  0.00    +0.000 A 
ATOM     19  C   UNL     1       1.367  13.809  20.184  0.00  0.00    +0.000 A 
ATOM     20  C   UNL     1       0.294  14.296  19.439  0.00  0.00    +0.000 A 
ATOM     21  C   UNL     1      -0.496  13.423  18.696  0.00  0.00    +0.000 A 
ATOM     22  C   UNL     1      -0.196  12.059  18.676  0.00  0.00    +0.000 A 
ENDBRANCH  10  17
BRANCH   1  24
ATOM     23  C   UNL     1       0.623   9.416  22.941  0.00  0.00    +0.000 C 
ATOM     24  S   UNL     1      -0.391   9.727  21.480  0.00  0.00    +0.000 S 
ENDBRANCH   1  24
TORSDOF 3
ENDMDL
MODEL 5
REMARK VINA RESULT:      -7.4      5.300      7.780
REMARK  Name = 
REMARK  4 active torsions:
REMARK  status: ('A' for Active; 'I' for Inactive)
REMARK    1  A    between atoms: C_1  and  S_2
REMARK    2  A    between atoms: S_2  and  C_3
REMARK    3  A    between atoms: N_9  and  C_10
REMARK    4  A    between atoms: N_18  and  C_19
REMARK                            x       y       z     vdW  Elec       q    Type
REMARK                         _______ _______ _______ _____ _____    ______ ____
ROOT
ATOM      1  C   UNL     1       0.886   8.636  20.385  0.00  0.00    +0.000 A 
ATOM      2  N   UNL     1       1.405   7.443  20.381  0.00  0.00    +0.000 NA
ATOM      3  C   UNL     1       2.243   7.186  19.353  0.00  0.00    +0.000 A 
ATOM      4  C   UNL     1       2.566   8.054  18.347  0.00  0.00    +0.000 A 
ATOM      5  C   UNL     1       3.493   7.380  17.552  0.00  0.00    +0.000 A 
ATOM      6  N   UNL     1       3.739   6.145  18.002  0.00  0.00    +0.000 NA
ATOM      7  N   UNL     1       2.946   6.009  19.114  0.00  0.00    +0.000 N 
ATOM      8  C   UNL     1       1.974   9.365  18.312  0.00  0.00    +0.000 A 
ATOM      9  O   UNL     1       2.222  10.143  17.394  0.00  0.00    +0.000 OA
ATOM     10  N   UNL     1       1.139   9.629  19.418  0.00  0.00    +0.000 N 
ENDROOT
BRANCH   7  11
ATOM     11  C   UNL     1       2.928   4.788  19.854  0.00  0.00    +0.000 A 
ATOM     12  C   UNL     1       3.821   3.759  19.520  0.00  0.00    +0.000 A 
ATOM     13  C   UNL     1       3.848   2.576  20.266  0.00  0.00    +0.000 A 
ATOM     14  C   UNL     1       2.980   2.403  21.343  0.00  0.00    +0.000 A 
ATOM     15  C   UNL     1       2.073   3.407  21.666  0.00  0.00    +0.000 A 
ATOM     16  C   UNL     1       2.045   4.591  20.927  0.00  0.00    +0.000 A 
ENDBRANCH   7  11
BRANCH  10  17
ATOM     17  C   UNL     1       0.527  10.914  19.486  0.00  0.00    +0.000 A 
ATOM     18  C   UNL     1      -0.711  11.128  18.867  0.00  0.00    +0.000 A 
ATOM     19  C   UNL     1      -1.357  12.357  19.003  0.00  0.00    +0.000 A 
ATOM     20  C   UNL     1      -0.760  13.384  19.734  0.00  0.00    +0.000 A 
ATOM     21  C   UNL     1       0.490  13.192  20.317  0.00  0.00    +0.000 A 
ATOM     22  C   UNL     1       1.134  11.959  20.193  0.00  0.00    +0.000 A 
ENDBRANCH  10  17
BRANCH   1  24
ATOM     23  C   UNL     1       0.918   9.422  22.984  0.00  0.00    +0.000 C 
ATOM     24  S   UNL     1      -0.251   8.940  21.696  0.00  0.00    +0.000 S 
ENDBRANCH   1  24
TORSDOF 3
ENDMDL
MODEL 6
REMARK VINA RESULT:      -7.4      5.658      8.125
REMARK  Name = 
REMARK  4 active torsions:
REMARK  status: ('A' for Active; 'I' for Inactive)
REMARK    1  A    between atoms: C_1  and  S_2
REMARK    2  A    between atoms: S_2  and  C_3
REMARK    3  A    between atoms: N_9  and  C_10
REMARK    4  A    between atoms: N_18  and  C_19
REMARK                            x       y       z     vdW  Elec       q    Type
REMARK                         _______ _______ _______ _____ _____    ______ ____
ROOT
ATOM      1  C   UNL     1       0.749   9.149  20.243  0.00  0.00    +0.000 A 
ATOM      2  N   UNL     1       1.043   7.883  20.211  0.00  0.00    +0.000 NA
ATOM      3  C   UNL     1       1.888   7.515  19.222  0.00  0.00    +0.000 A 
ATOM      4  C   UNL     1       2.429   8.347  18.280  0.00  0.00    +0.000 A 
ATOM      5  C   UNL     1       3.270   7.544  17.509  0.00  0.00    +0.000 A 
ATOM      6  N   UNL     1       3.258   6.269  17.912  0.00  0.00    +0.000 NA
ATOM      7  N   UNL     1       2.381   6.239  18.967  0.00  0.00    +0.000 N 
ATOM      8  C   UNL     1       2.087   9.745  18.275  0.00  0.00    +0.000 A 
ATOM      9  O   UNL     1       2.531  10.498  17.412  0.00  0.00    +0.000 OA
ATOM     10  N   UNL     1       1.241  10.115  19.342  0.00  0.00    +0.000 N 
ENDROOT
BRANCH   7  11
ATOM     11  C   UNL     1       2.094   5.016  19.644  0.00  0.00    +0.000 A 
ATOM     12  C   UNL     1       2.512   4.840  20.972  0.00  0.00    +0.000 A 
ATOM     13  C   UNL     1       2.198   3.665  21.663  0.00  0.00    +0.000 A 
ATOM     14  C   UNL     1       1.475   2.652  21.036  0.00  0.00    +0.000 A 
ATOM     15  C   UNL     1       1.078   2.805  19.712  0.00  0.00    +0.000 A 
ATOM     16  C   UNL     1       1.387   3.977  19.019  0.00  0.00    +0.000 A 
ENDBRANCH   7  11
BRANCH  10  17
ATOM     17  C   UNL     1       0.867  11.487  19.437  0.00  0.00    +0.000 A 
ATOM     18  C   UNL     1      -0.245  11.955  18.727  0.00  0.00    +0.000 A 
ATOM     19  C   UNL     1      -0.668  13.276  18.883  0.00  0.00    +0.000 A 
ATOM     20  C   UNL     1       0.031  14.139  19.726  0.00  0.00    +0.000 A 
ATOM     21  C   UNL     1       1.162  13.691  20.404  0.00  0.00    +0.000 A 
ATOM     22  C   UNL     1       1.582  12.367  20.259  0.00  0.00    +0.000 A 
ENDBRANCH  10  17
BRANCH   1  24
ATOM     23  C   UNL     1       0.665   9.418  22.943  0.00  0.00    +0.000 C 
ATOM     24  S   UNL     1      -0.399   9.607  21.498  0.00  0.00    +0.000 S 
ENDBRANCH   1  24
TORSDOF 3
ENDMDL
MODEL 7
REMARK VINA RESULT:      -7.4      4.859      8.321
REMARK  Name = 
REMARK  4 active torsions:
REMARK  status: ('A' for Active; 'I' for Inactive)
REMARK    1  A    between atoms: C_1  and  S_2
REMARK    2  A    between atoms: S_2  and  C_3
REMARK    3  A    between atoms: N_9  and  C_10
REMARK    4  A    between atoms: N_18  and  C_19
REMARK                            x       y       z     vdW  Elec       q    Type
REMARK                         _______ _______ _______ _____ _____    ______ ____
ROOT
ATOM      1  C   UNL     1       2.219   6.660  19.878  0.00  0.00    +0.000 A 
ATOM      2  N   UNL     1       1.549   7.662  20.366  0.00  0.00    +0.000 NA
ATOM      3  C   UNL     1       1.513   8.762  19.583  0.00  0.00    +0.000 A 
ATOM      4  C   UNL     1       2.118   8.898  18.363  0.00  0.00    +0.000 A 
ATOM      5  C   UNL     1       1.768  10.170  17.910  0.00  0.00    +0.000 A 
ATOM      6  N   UNL     1       1.004  10.826  18.789  0.00  0.00    +0.000 NA
ATOM      7  N   UNL     1       0.858   9.962  19.846  0.00  0.00    +0.000 N 
ATOM      8  C   UNL     1       2.896   7.814  17.823  0.00  0.00    +0.000 A 
ATOM      9  O   UNL     1       3.479   7.933  16.749  0.00  0.00    +0.000 OA
ATOM     10  N   UNL     1       2.881   6.660  18.635  0.00  0.00    +0.000 N 
ENDROOT
BRANCH   7  11
ATOM     11  C   UNL     1       0.109  10.340  21.001  0.00  0.00    +0.000 A 
ATOM     12  C   UNL     1      -0.699  11.486  20.962  0.00  0.00    +0.000 A 
ATOM     13  C   UNL     1      -1.474  11.843  22.070  0.00  0.00    +0.000 A 
ATOM     14  C   UNL     1      -1.445  11.068  23.228  0.00  0.00    +0.000 A 
ATOM     15  C   UNL     1      -0.627   9.944  23.287  0.00  0.00    +0.000 A 
ATOM     16  C   UNL     1       0.146   9.583  22.182  0.00  0.00    +0.000 A 
ENDBRANCH   7  11
BRANCH  10  17
ATOM     17  C   UNL     1       3.603   5.523  18.170  0.00  0.00    +0.000 A 
ATOM     18  C   UNL     1       2.934   4.511  17.472  0.00  0.00    +0.000 A 
ATOM     19  C   UNL     1       3.650   3.438  16.939  0.00  0.00    +0.000 A 
ATOM     20  C   UNL     1       5.029   3.358  17.123  0.00  0.00    +0.000 A 
ATOM     21  C   UNL     1       5.696   4.340  17.851  0.00  0.00    +0.000 A 
ATOM     22  C   UNL     1       4.985   5.421  18.376  0.00  0.00    +0.000 A 
ENDBRANCH  10  17
BRANCH   1  24
ATOM     23  C   UNL     1       0.872   4.344  20.324  0.00  0.00    +0.000 C 
ATOM     24  S   UNL     1       2.309   5.251  20.933  0.00  0.00    +0.000 S 
ENDBRANCH   1  24
TORSDOF 3
ENDMDL
MODEL 8
REMARK VINA RESULT:      -7.3      0.085      1.396
REMARK  Name = 
REMARK  4 active torsions:
REMARK  status: ('A' for Active; 'I' for Inactive)
REMARK    1  A    between atoms: C_1  and  S_2
REMARK    2  A    between atoms: S_2  and  C_3
REMARK    3  A    between atoms: N_9  and  C_10
REMARK    4  A    between atoms: N_18  and  C_19
REMARK                            x       y       z     vdW  Elec       q    Type
REMARK                         _______ _______ _______ _____ _____    ______ ____
ROOT
ATOM      1  C   UNL     1       4.073   3.558  17.366  0.00  0.00    +0.000 A 
ATOM      2  N   UNL     1       4.788   3.790  16.304  0.00  0.00    +0.000 NA
ATOM      3  C   UNL     1       5.835   4.623  16.491  0.00  0.00    +0.000 A 
ATOM      4  C   UNL     1       6.179   5.226  17.669  0.00  0.00    +0.000 A 
ATOM      5  C   UNL     1       7.343   5.945  17.397  0.00  0.00    +0.000 A 
ATOM      6  N   UNL     1       7.719   5.832  16.119  0.00  0.00    +0.000 NA
ATOM      7  N   UNL     1       6.770   5.025  15.541  0.00  0.00    +0.000 N 
ATOM      8  C   UNL     1       5.379   5.013  18.846  0.00  0.00    +0.000 A 
ATOM      9  O   UNL     1       5.649   5.579  19.902  0.00  0.00    +0.000 OA
ATOM     10  N   UNL     1       4.318   4.105  18.641  0.00  0.00    +0.000 N 
ENDROOT
BRANCH   7  11
ATOM     11  C   UNL     1       6.834   4.700  14.153  0.00  0.00    +0.000 A 
ATOM     12  C   UNL     1       6.012   3.688  13.636  0.00  0.00    +0.000 A 
ATOM     13  C   UNL     1       6.031   3.391  12.269  0.00  0.00    +0.000 A 
ATOM     14  C   UNL     1       6.874   4.091  11.408  0.00  0.00    +0.000 A 
ATOM     15  C   UNL     1       7.712   5.078  11.914  0.00  0.00    +0.000 A 
ATOM     16  C   UNL     1       7.695   5.381  13.278  0.00  0.00    +0.000 A 
ENDBRANCH   7  11
BRANCH  10  17
ATOM     17  C   UNL     1       3.484   3.809  19.757  0.00  0.00    +0.000 A 
ATOM     18  C   UNL     1       3.613   2.581  20.416  0.00  0.00    +0.000 A 
ATOM     19  C   UNL     1       2.860   2.320  21.562  0.00  0.00    +0.000 A 
ATOM     20  C   UNL     1       1.959   3.271  22.037  0.00  0.00    +0.000 A 
ATOM     21  C   UNL     1       1.794   4.478  21.363  0.00  0.00    +0.000 A 
ATOM     22  C   UNL     1       2.555   4.748  20.223  0.00  0.00    +0.000 A 
ENDBRANCH  10  17
BRANCH   1  24
ATOM     23  C   UNL     1       1.365   3.746  17.280  0.00  0.00    +0.000 C 
ATOM     24  S   UNL     1       2.676   2.518  17.099  0.00  0.00    +0.000 S 
ENDBRANCH   1  24
TORSDOF 3
ENDMDL
MODEL 9
REMARK VINA RESULT:      -7.2      4.891      8.361
REMARK  Name = 
REMARK  4 active torsions:
REMARK  status: ('A' for Active; 'I' for Inactive)
REMARK    1  A    between atoms: C_1  and  S_2
REMARK    2  A    between atoms: S_2  and  C_3
REMARK    3  A    between atoms: N_9  and  C_10
REMARK    4  A    between atoms: N_18  and  C_19
REMARK                            x       y       z     vdW  Elec       q    Type
REMARK                         _______ _______ _______ _____ _____    ______ ____
ROOT
ATOM      1  C   UNL     1       2.188   6.708  19.900  0.00  0.00    +0.000 A 
ATOM      2  N   UNL     1       1.491   7.700  20.370  0.00  0.00    +0.000 NA
ATOM      3  C   UNL     1       1.453   8.798  19.582  0.00  0.00    +0.000 A 
ATOM      4  C   UNL     1       2.081   8.939  18.376  0.00  0.00    +0.000 A 
ATOM      5  C   UNL     1       1.720  10.204  17.911  0.00  0.00    +0.000 A 
ATOM      6  N   UNL     1       0.926  10.850  18.771  0.00  0.00    +0.000 NA
ATOM      7  N   UNL     1       0.772   9.987  19.828  0.00  0.00    +0.000 N 
ATOM      8  C   UNL     1       2.888   7.868  17.856  0.00  0.00    +0.000 A 
ATOM      9  O   UNL     1       3.492   7.993  16.794  0.00  0.00    +0.000 OA
ATOM     10  N   UNL     1       2.877   6.716  18.670  0.00  0.00    +0.000 N 
ENDROOT
BRANCH   7  11
ATOM     11  C   UNL     1      -0.007  10.355  20.965  0.00  0.00    +0.000 A 
ATOM     12  C   UNL     1       0.083   9.602  22.145  0.00  0.00    +0.000 A 
ATOM     13  C   UNL     1      -0.639   9.979  23.282  0.00  0.00    +0.000 A 
ATOM     14  C   UNL     1      -1.464  11.101  23.252  0.00  0.00    +0.000 A 
ATOM     15  C   UNL     1      -1.581  11.841  22.079  0.00  0.00    +0.000 A 
ATOM     16  C   UNL     1      -0.859  11.470  20.942  0.00  0.00    +0.000 A 
ENDBRANCH   7  11
BRANCH  10  17
ATOM     17  C   UNL     1       3.628   5.590  18.225  0.00  0.00    +0.000 A 
ATOM     18  C   UNL     1       4.981   5.479  18.563  0.00  0.00    +0.000 A 
ATOM     19  C   UNL     1       5.700   4.338  18.204  0.00  0.00    +0.000 A 
ATOM     20  C   UNL     1       5.078   3.317  17.487  0.00  0.00    +0.000 A 
ATOM     21  C   UNL     1       3.743   3.439  17.111  0.00  0.00    +0.000 A 
ATOM     22  C   UNL     1       3.017   4.574  17.479  0.00  0.00    +0.000 A 
ENDBRANCH  10  17
BRANCH   1  24
ATOM     23  C   UNL     1       0.872   4.371  20.325  0.00  0.00    +0.000 C 
ATOM     24  S   UNL     1       2.280   5.305  20.961  0.00  0.00    +0.000 S 
ENDBRANCH   1  24
TORSDOF 3
ENDMDL
