MODEL 1
REMARK VINA RESULT:      -8.4      0.000      0.000
REMARK  Name = 
REMARK  10 active torsions:
REMARK  status: ('A' for Active; 'I' for Inactive)
REMARK    1  A    between atoms: C_1  and  C_2
REMARK    2  A    between atoms: C_2  and  O_3
REMARK    3  A    between atoms: O_3  and  C_4
REMARK    4  A    between atoms: C_4  and  C_6
REMARK    5  A    between atoms: C_11  and  O_12
REMARK    6  A    between atoms: O_12  and  C_13
REMARK    7  A    between atoms: C_13  and  C_14
REMARK    8  A    between atoms: C_14  and  C_15
REMARK    9  A    between atoms: C_17  and  C_18
REMARK   10  A    between atoms: C_25  and  C_26
REMARK                            x       y       z     vdW  Elec       q    Type
REMARK                         _______ _______ _______ _____ _____    ______ ____
ROOT
ATOM      1  C   UNL     1       6.125   5.108  15.730  0.00  0.00    +0.000 A 
ATOM      2  C   UNL     1       4.962   4.460  15.924  0.00  0.00    +0.000 A 
ATOM      3  C   UNL     1       4.180   4.688  17.125  0.00  0.00    +0.000 A 
ATOM      4  C   UNL     1       2.952   4.067  17.361  0.00  0.00    +0.000 A 
ATOM      5  C   UNL     1       2.252   4.331  18.547  0.00  0.00    +0.000 A 
ATOM      6  C   UNL     1       2.762   5.219  19.499  0.00  0.00    +0.000 A 
ATOM      7  C   UNL     1       3.999   5.817  19.274  0.00  0.00    +0.000 A 
ATOM      8  C   UNL     1       4.683   5.547  18.091  0.00  0.00    +0.000 A 
ATOM      9  O   UNL     1       5.916   6.197  17.904  0.00  0.00    +0.000 OA
ATOM     10  C   UNL     1       6.645   6.073  16.724  0.00  0.00    +0.000 A 
ATOM     11  O   UNL     1       7.648   6.752  16.549  0.00  0.00    +0.000 OA
ENDROOT
BRANCH   1  12
ATOM     12  C   UNL     1       6.875   4.740  14.509  0.00  0.00    +0.000 C 
ATOM     13  O   UNL     1       7.763   5.431  14.023  0.00  0.00    +0.000 OA
BRANCH  12  14
ATOM     14  O   UNL     1       6.323   3.652  13.928  0.00  0.00    +0.000 OA
BRANCH  14  16
ATOM     15  C   UNL     1       4.955   3.345  12.009  0.00  0.00    +0.000 C 
ATOM     16  C   UNL     1       6.368   3.608  12.497  0.00  0.00    +0.000 C 
ENDBRANCH  14  16
ENDBRANCH  12  14
ENDBRANCH   1  12
BRANCH   6  17
ATOM     17  O   UNL     1       1.995   5.402  20.620  0.00  0.00    +0.000 OA
BRANCH  17  18
ATOM     18  C   UNL     1       1.087   6.511  20.562  0.00  0.00    +0.000 C 
BRANCH  18  19
ATOM     19  C   UNL     1       1.737   7.728  21.215  0.00  0.00    +0.000 C 
BRANCH  19  20
ATOM     20  C   UNL     1       0.958   8.970  20.969  0.00  0.00    +0.000 A 
ATOM     21  N   UNL     1       0.322   9.638  21.998  0.00  0.00    +0.000 NA
ATOM     22  C   UNL     1      -0.254  10.670  21.413  0.00  0.00    +0.000 A 
ATOM     23  O   UNL     1      -0.028  10.734  20.060  0.00  0.00    +0.000 OA
ATOM     24  C   UNL     1       0.747   9.646  19.787  0.00  0.00    +0.000 A 
ATOM     25  C   UNL     1       1.162   9.456  18.389  0.00  0.00    +0.000 C 
BRANCH  22  26
ATOM     26  C   UNL     1      -1.073  11.744  21.975  0.00  0.00    +0.000 A 
ATOM     27  C   UNL     1      -1.903  11.501  23.078  0.00  0.00    +0.000 A 
ATOM     28  C   UNL     1      -2.697  12.520  23.617  0.00  0.00    +0.000 A 
ATOM     29  C   UNL     1      -2.669  13.797  23.057  0.00  0.00    +0.000 A 
ATOM     30  C   UNL     1      -1.847  14.056  21.965  0.00  0.00    +0.000 A 
ATOM     31  C   UNL     1      -1.053  13.039  21.430  0.00  0.00    +0.000 A 
ENDBRANCH  22  26
ENDBRANCH  19  20
ENDBRANCH  18  19
ENDBRANCH  17  18
ENDBRANCH   6  17
TORSDOF 8
ENDMDL
MODEL 2
REMARK VINA RESULT:      -8.4      5.996      8.164
REMARK  Name = 
REMARK  10 active torsions:
REMARK  status: ('A' for Active; 'I' for Inactive)
REMARK    1  A    between atoms: C_1  and  C_2
REMARK    2  A    between atoms: C_2  and  O_3
REMARK    3  A    between atoms: O_3  and  C_4
REMARK    4  A    between atoms: C_4  and  C_6
REMARK    5  A    between atoms: C_11  and  O_12
REMARK    6  A    between atoms: O_12  and  C_13
REMARK    7  A    between atoms: C_13  and  C_14
REMARK    8  A    between atoms: C_14  and  C_15
REMARK    9  A    between atoms: C_17  and  C_18
REMARK   10  A    between atoms: C_25  and  C_26
REMARK                            x       y       z     vdW  Elec       q    Type
REMARK                         _______ _______ _______ _____ _____    ______ ____
ROOT
ATOM      1  C   UNL     1       4.185   3.674  18.543  0.00  0.00    +0.000 A 
ATOM      2  C   UNL     1       5.433   3.933  18.974  0.00  0.00    +0.000 A 
ATOM      3  C   UNL     1       6.112   5.155  18.584  0.00  0.00    +0.000 A 
ATOM      4  C   UNL     1       7.393   5.486  19.028  0.00  0.00    +0.000 A 
ATOM      5  C   UNL     1       7.990   6.684  18.608  0.00  0.00    +0.000 A 
ATOM      6  C   UNL     1       7.314   7.561  17.754  0.00  0.00    +0.000 A 
ATOM      7  C   UNL     1       6.047   7.216  17.291  0.00  0.00    +0.000 A 
ATOM      8  C   UNL     1       5.466   6.025  17.718  0.00  0.00    +0.000 A 
ATOM      9  O   UNL     1       4.175   5.737  17.239  0.00  0.00    +0.000 OA
ATOM     10  C   UNL     1       3.460   4.621  17.666  0.00  0.00    +0.000 A 
ATOM     11  O   UNL     1       2.294   4.473  17.326  0.00  0.00    +0.000 OA
ENDROOT
BRANCH   1  12
ATOM     12  C   UNL     1       3.622   2.364  18.937  0.00  0.00    +0.000 C 
ATOM     13  O   UNL     1       3.587   1.388  18.195  0.00  0.00    +0.000 OA
BRANCH  12  14
ATOM     14  O   UNL     1       3.005   2.458  20.135  0.00  0.00    +0.000 OA
BRANCH  14  16
ATOM     15  C   UNL     1       1.072   3.771  20.568  0.00  0.00    +0.000 C 
ATOM     16  C   UNL     1       1.573   2.411  20.115  0.00  0.00    +0.000 C 
ENDBRANCH  14  16
ENDBRANCH  12  14
ENDBRANCH   1  12
BRANCH   6  17
ATOM     17  O   UNL     1       7.992   8.701  17.407  0.00  0.00    +0.000 OA
BRANCH  17  18
ATOM     18  C   UNL     1       8.592   9.409  18.501  0.00  0.00    +0.000 C 
BRANCH  18  19
ATOM     19  C   UNL     1       9.312  10.644  17.965  0.00  0.00    +0.000 C 
BRANCH  19  20
ATOM     20  C   UNL     1       9.721  11.564  19.059  0.00  0.00    +0.000 A 
ATOM     21  N   UNL     1       8.914  11.779  20.159  0.00  0.00    +0.000 NA
ATOM     22  C   UNL     1       9.591  12.633  20.902  0.00  0.00    +0.000 A 
ATOM     23  O   UNL     1      10.805  12.989  20.366  0.00  0.00    +0.000 OA
ATOM     24  C   UNL     1      10.878  12.300  19.192  0.00  0.00    +0.000 A 
ATOM     25  C   UNL     1      12.098  12.478  18.389  0.00  0.00    +0.000 C 
BRANCH  22  26
ATOM     26  C   UNL     1       9.259  13.243  22.190  0.00  0.00    +0.000 A 
ATOM     27  C   UNL     1       9.483  14.610  22.406  0.00  0.00    +0.000 A 
ATOM     28  C   UNL     1       9.176  15.201  23.637  0.00  0.00    +0.000 A 
ATOM     29  C   UNL     1       8.641  14.429  24.668  0.00  0.00    +0.000 A 
ATOM     30  C   UNL     1       8.408  13.072  24.468  0.00  0.00    +0.000 A 
ATOM     31  C   UNL     1       8.712  12.485  23.238  0.00  0.00    +0.000 A 
ENDBRANCH  22  26
ENDBRANCH  19  20
ENDBRANCH  18  19
ENDBRANCH  17  18
ENDBRANCH   6  17
TORSDOF 8
ENDMDL
MODEL 3
REMARK VINA RESULT:      -8.2      5.549      7.772
REMARK  Name = 
REMARK  10 active torsions:
REMARK  status: ('A' for Active; 'I' for Inactive)
REMARK    1  A    between atoms: C_1  and  C_2
REMARK    2  A    between atoms: C_2  and  O_3
REMARK    3  A    between atoms: O_3  and  C_4
REMARK    4  A    between atoms: C_4  and  C_6
REMARK    5  A    between atoms: C_11  and  O_12
REMARK    6  A    between atoms: O_12  and  C_13
REMARK    7  A    between atoms: C_13  and  C_14
REMARK    8  A    between atoms: C_14  and  C_15
REMARK    9  A    between atoms: C_17  and  C_18
REMARK   10  A    between atoms: C_25  and  C_26
REMARK                            x       y       z     vdW  Elec       q    Type
REMARK                         _______ _______ _______ _____ _____    ______ ____
ROOT
ATOM      1  C   UNL     1       3.644   3.399  18.611  0.00  0.00    +0.000 A 
ATOM      2  C   UNL     1       3.592   4.400  17.714  0.00  0.00    +0.000 A 
ATOM      3  C   UNL     1       4.704   5.321  17.569  0.00  0.00    +0.000 A 
ATOM      4  C   UNL     1       4.715   6.357  16.633  0.00  0.00    +0.000 A 
ATOM      5  C   UNL     1       5.823   7.213  16.551  0.00  0.00    +0.000 A 
ATOM      6  C   UNL     1       6.927   7.038  17.390  0.00  0.00    +0.000 A 
ATOM      7  C   UNL     1       6.903   6.022  18.341  0.00  0.00    +0.000 A 
ATOM      8  C   UNL     1       5.797   5.178  18.410  0.00  0.00    +0.000 A 
ATOM      9  O   UNL     1       5.836   4.153  19.372  0.00  0.00    +0.000 OA
ATOM     10  C   UNL     1       4.828   3.197  19.474  0.00  0.00    +0.000 A 
ATOM     11  O   UNL     1       4.958   2.248  20.236  0.00  0.00    +0.000 OA
ENDROOT
BRANCH   1  12
ATOM     12  C   UNL     1       2.423   2.570  18.727  0.00  0.00    +0.000 C 
ATOM     13  O   UNL     1       1.714   2.267  17.774  0.00  0.00    +0.000 OA
BRANCH  12  14
ATOM     14  O   UNL     1       2.117   2.363  20.027  0.00  0.00    +0.000 OA
BRANCH  14  16
ATOM     15  C   UNL     1       1.173   4.463  20.616  0.00  0.00    +0.000 C 
ATOM     16  C   UNL     1       0.910   2.972  20.499  0.00  0.00    +0.000 C 
ENDBRANCH  14  16
ENDBRANCH  12  14
ENDBRANCH   1  12
BRANCH   6  17
ATOM     17  O   UNL     1       7.953   7.932  17.224  0.00  0.00    +0.000 OA
BRANCH  17  18
ATOM     18  C   UNL     1       7.878   9.105  18.045  0.00  0.00    +0.000 C 
BRANCH  18  19
ATOM     19  C   UNL     1       9.267   9.728  18.162  0.00  0.00    +0.000 C 
BRANCH  19  20
ATOM     20  C   UNL     1       9.270  10.907  19.067  0.00  0.00    +0.000 A 
ATOM     21  N   UNL     1       8.941  10.790  20.404  0.00  0.00    +0.000 NA
ATOM     22  C   UNL     1       9.054  12.015  20.879  0.00  0.00    +0.000 A 
ATOM     23  O   UNL     1       9.449  12.937  19.940  0.00  0.00    +0.000 OA
ATOM     24  C   UNL     1       9.586  12.219  18.789  0.00  0.00    +0.000 A 
ATOM     25  C   UNL     1      10.019  12.955  17.591  0.00  0.00    +0.000 C 
BRANCH  22  26
ATOM     26  C   UNL     1       8.835  12.534  22.229  0.00  0.00    +0.000 A 
ATOM     27  C   UNL     1       8.434  11.676  23.263  0.00  0.00    +0.000 A 
ATOM     28  C   UNL     1       8.215  12.165  24.556  0.00  0.00    +0.000 A 
ATOM     29  C   UNL     1       8.394  13.520  24.830  0.00  0.00    +0.000 A 
ATOM     30  C   UNL     1       8.798  14.384  23.816  0.00  0.00    +0.000 A 
ATOM     31  C   UNL     1       9.019  13.894  22.527  0.00  0.00    +0.000 A 
ENDBRANCH  22  26
ENDBRANCH  19  20
ENDBRANCH  18  19
ENDBRANCH  17  18
ENDBRANCH   6  17
TORSDOF 8
ENDMDL
MODEL 4
REMARK VINA RESULT:      -8.2      2.765      3.486
REMARK  Name = 
REMARK  10 active torsions:
REMARK  status: ('A' for Active; 'I' for Inactive)
REMARK    1  A    between atoms: C_1  and  C_2
REMARK    2  A    between atoms: C_2  and  O_3
REMARK    3  A    between atoms: O_3  and  C_4
REMARK    4  A    between atoms: C_4  and  C_6
REMARK    5  A    between atoms: C_11  and  O_12
REMARK    6  A    between atoms: O_12  and  C_13
REMARK    7  A    between atoms: C_13  and  C_14
REMARK    8  A    between atoms: C_14  and  C_15
REMARK    9  A    between atoms: C_17  and  C_18
REMARK   10  A    between atoms: C_25  and  C_26
REMARK                            x       y       z     vdW  Elec       q    Type
REMARK                         _______ _______ _______ _____ _____    ______ ____
ROOT
ATOM      1  C   UNL     1       5.300   5.203  16.917  0.00  0.00    +0.000 A 
ATOM      2  C   UNL     1       4.755   4.685  18.033  0.00  0.00    +0.000 A 
ATOM      3  C   UNL     1       3.755   5.426  18.780  0.00  0.00    +0.000 A 
ATOM      4  C   UNL     1       3.135   4.922  19.925  0.00  0.00    +0.000 A 
ATOM      5  C   UNL     1       2.179   5.695  20.599  0.00  0.00    +0.000 A 
ATOM      6  C   UNL     1       1.827   6.966  20.134  0.00  0.00    +0.000 A 
ATOM      7  C   UNL     1       2.466   7.478  19.008  0.00  0.00    +0.000 A 
ATOM      8  C   UNL     1       3.412   6.698  18.347  0.00  0.00    +0.000 A 
ATOM      9  O   UNL     1       4.008   7.254  17.201  0.00  0.00    +0.000 OA
ATOM     10  C   UNL     1       4.901   6.534  16.410  0.00  0.00    +0.000 A 
ATOM     11  O   UNL     1       5.299   7.004  15.352  0.00  0.00    +0.000 OA
ENDROOT
BRANCH   1  12
ATOM     12  C   UNL     1       6.366   4.395  16.282  0.00  0.00    +0.000 C 
ATOM     13  O   UNL     1       7.555   4.504  16.557  0.00  0.00    +0.000 OA
BRANCH  12  14
ATOM     14  O   UNL     1       5.862   3.677  15.254  0.00  0.00    +0.000 OA
BRANCH  14  16
ATOM     15  C   UNL     1       5.391   3.676  12.925  0.00  0.00    +0.000 C 
ATOM     16  C   UNL     1       6.467   3.894  13.974  0.00  0.00    +0.000 C 
ENDBRANCH  14  16
ENDBRANCH  12  14
ENDBRANCH   1  12
BRANCH   6  17
ATOM     17  O   UNL     1       0.883   7.634  20.870  0.00  0.00    +0.000 OA
BRANCH  17  18
ATOM     18  C   UNL     1       1.382   8.725  21.656  0.00  0.00    +0.000 C 
BRANCH  18  19
ATOM     19  C   UNL     1       0.387   9.882  21.599  0.00  0.00    +0.000 C 
BRANCH  19  20
ATOM     20  C   UNL     1       0.748  10.871  20.550  0.00  0.00    +0.000 A 
ATOM     21  N   UNL     1       1.484  12.001  20.848  0.00  0.00    +0.000 NA
ATOM     22  C   UNL     1       1.608  12.627  19.693  0.00  0.00    +0.000 A 
ATOM     23  O   UNL     1       1.008  11.973  18.644  0.00  0.00    +0.000 OA
ATOM     24  C   UNL     1       0.464  10.854  19.202  0.00  0.00    +0.000 A 
ATOM     25  C   UNL     1      -0.248   9.938  18.298  0.00  0.00    +0.000 C 
BRANCH  22  26
ATOM     26  C   UNL     1       2.281  13.882  19.361  0.00  0.00    +0.000 A 
ATOM     27  C   UNL     1       2.002  15.050  20.084  0.00  0.00    +0.000 A 
ATOM     28  C   UNL     1       2.635  16.258  19.768  0.00  0.00    +0.000 A 
ATOM     29  C   UNL     1       3.556  16.311  18.722  0.00  0.00    +0.000 A 
ATOM     30  C   UNL     1       3.849  15.159  17.999  0.00  0.00    +0.000 A 
ATOM     31  C   UNL     1       3.218  13.954  18.317  0.00  0.00    +0.000 A 
ENDBRANCH  22  26
ENDBRANCH  19  20
ENDBRANCH  18  19
ENDBRANCH  17  18
ENDBRANCH   6  17
TORSDOF 8
ENDMDL
MODEL 5
REMARK VINA RESULT:      -8.1      2.367     10.422
REMARK  Name = 
REMARK  10 active torsions:
REMARK  status: ('A' for Active; 'I' for Inactive)
REMARK    1  A    between atoms: C_1  and  C_2
REMARK    2  A    between atoms: C_2  and  O_3
REMARK    3  A    between atoms: O_3  and  C_4
REMARK    4  A    between atoms: C_4  and  C_6
REMARK    5  A    between atoms: C_11  and  O_12
REMARK    6  A    between atoms: O_12  and  C_13
REMARK    7  A    between atoms: C_13  and  C_14
REMARK    8  A    between atoms: C_14  and  C_15
REMARK    9  A    between atoms: C_17  and  C_18
REMARK   10  A    between atoms: C_25  and  C_26
REMARK                            x       y       z     vdW  Elec       q    Type
REMARK                         _______ _______ _______ _____ _____    ______ ____
ROOT
ATOM      1  C   UNL     1       0.565  11.199  20.055  0.00  0.00    +0.000 A 
ATOM      2  C   UNL     1       0.535  10.033  20.726  0.00  0.00    +0.000 A 
ATOM      3  C   UNL     1       1.198   8.857  20.195  0.00  0.00    +0.000 A 
ATOM      4  C   UNL     1       1.224   7.632  20.865  0.00  0.00    +0.000 A 
ATOM      5  C   UNL     1       1.882   6.535  20.290  0.00  0.00    +0.000 A 
ATOM      6  C   UNL     1       2.524   6.652  19.053  0.00  0.00    +0.000 A 
ATOM      7  C   UNL     1       2.474   7.866  18.374  0.00  0.00    +0.000 A 
ATOM      8  C   UNL     1       1.819   8.947  18.958  0.00  0.00    +0.000 A 
ATOM      9  O   UNL     1       1.820  10.157  18.240  0.00  0.00    +0.000 OA
ATOM     10  C   UNL     1       1.274  11.327  18.763  0.00  0.00    +0.000 A 
ATOM     11  O   UNL     1       1.407  12.386  18.164  0.00  0.00    +0.000 OA
ENDROOT
BRANCH   1  12
ATOM     12  C   UNL     1      -0.211  12.309  20.651  0.00  0.00    +0.000 C 
ATOM     13  O   UNL     1      -0.867  13.109  19.994  0.00  0.00    +0.000 OA
BRANCH  12  14
ATOM     14  O   UNL     1       0.057  12.415  21.972  0.00  0.00    +0.000 OA
BRANCH  14  16
ATOM     15  C   UNL     1      -1.805  11.563  23.179  0.00  0.00    +0.000 C 
ATOM     16  C   UNL     1      -1.034  12.817  22.808  0.00  0.00    +0.000 C 
ENDBRANCH  14  16
ENDBRANCH  12  14
ENDBRANCH   1  12
BRANCH   6  17
ATOM     17  O   UNL     1       3.134   5.517  18.585  0.00  0.00    +0.000 OA
BRANCH  17  18
ATOM     18  C   UNL     1       3.766   4.708  19.587  0.00  0.00    +0.000 C 
BRANCH  18  19
ATOM     19  C   UNL     1       4.529   3.573  18.909  0.00  0.00    +0.000 C 
BRANCH  19  20
ATOM     20  C   UNL     1       5.436   4.075  17.844  0.00  0.00    +0.000 A 
ATOM     21  N   UNL     1       5.255   3.726  16.519  0.00  0.00    +0.000 NA
ATOM     22  C   UNL     1       6.227   4.348  15.880  0.00  0.00    +0.000 A 
ATOM     23  O   UNL     1       7.036   5.097  16.699  0.00  0.00    +0.000 OA
ATOM     24  C   UNL     1       6.521   4.918  17.949  0.00  0.00    +0.000 A 
ATOM     25  C   UNL     1       7.190   5.623  19.053  0.00  0.00    +0.000 C 
BRANCH  22  26
ATOM     26  C   UNL     1       6.566   4.369  14.457  0.00  0.00    +0.000 A 
ATOM     27  C   UNL     1       7.519   5.273  13.968  0.00  0.00    +0.000 A 
ATOM     28  C   UNL     1       7.844   5.306  12.607  0.00  0.00    +0.000 A 
ATOM     29  C   UNL     1       7.217   4.433  11.718  0.00  0.00    +0.000 A 
ATOM     30  C   UNL     1       6.273   3.526  12.188  0.00  0.00    +0.000 A 
ATOM     31  C   UNL     1       5.952   3.492  13.547  0.00  0.00    +0.000 A 
ENDBRANCH  22  26
ENDBRANCH  19  20
ENDBRANCH  18  19
ENDBRANCH  17  18
ENDBRANCH   6  17
TORSDOF 8
ENDMDL
MODEL 6
REMARK VINA RESULT:      -8.1      5.978      8.597
REMARK  Name = 
REMARK  10 active torsions:
REMARK  status: ('A' for Active; 'I' for Inactive)
REMARK    1  A    between atoms: C_1  and  C_2
REMARK    2  A    between atoms: C_2  and  O_3
REMARK    3  A    between atoms: O_3  and  C_4
REMARK    4  A    between atoms: C_4  and  C_6
REMARK    5  A    between atoms: C_11  and  O_12
REMARK    6  A    between atoms: O_12  and  C_13
REMARK    7  A    between atoms: C_13  and  C_14
REMARK    8  A    between atoms: C_14  and  C_15
REMARK    9  A    between atoms: C_17  and  C_18
REMARK   10  A    between atoms: C_25  and  C_26
REMARK                            x       y       z     vdW  Elec       q    Type
REMARK                         _______ _______ _______ _____ _____    ______ ____
ROOT
ATOM      1  C   UNL     1       3.756   3.274  18.578  0.00  0.00    +0.000 A 
ATOM      2  C   UNL     1       3.673   4.275  17.683  0.00  0.00    +0.000 A 
ATOM      3  C   UNL     1       4.760   5.226  17.535  0.00  0.00    +0.000 A 
ATOM      4  C   UNL     1       4.739   6.263  16.601  0.00  0.00    +0.000 A 
ATOM      5  C   UNL     1       5.824   7.148  16.515  0.00  0.00    +0.000 A 
ATOM      6  C   UNL     1       6.937   7.001  17.350  0.00  0.00    +0.000 A 
ATOM      7  C   UNL     1       6.944   5.983  18.299  0.00  0.00    +0.000 A 
ATOM      8  C   UNL     1       5.861   5.110  18.371  0.00  0.00    +0.000 A 
ATOM      9  O   UNL     1       5.931   4.084  19.331  0.00  0.00    +0.000 OA
ATOM     10  C   UNL     1       4.949   3.102  19.435  0.00  0.00    +0.000 A 
ATOM     11  O   UNL     1       5.108   2.155  20.194  0.00  0.00    +0.000 OA
ENDROOT
BRANCH   1  12
ATOM     12  C   UNL     1       2.558   2.413  18.698  0.00  0.00    +0.000 C 
ATOM     13  O   UNL     1       1.774   2.208  17.778  0.00  0.00    +0.000 OA
BRANCH  12  14
ATOM     14  O   UNL     1       2.366   2.051  19.986  0.00  0.00    +0.000 OA
BRANCH  14  16
ATOM     15  C   UNL     1       0.727   3.761  20.177  0.00  0.00    +0.000 C 
ATOM     16  C   UNL     1       1.892   3.075  20.868  0.00  0.00    +0.000 C 
ENDBRANCH  14  16
ENDBRANCH  12  14
ENDBRANCH   1  12
BRANCH   6  17
ATOM     17  O   UNL     1       7.938   7.922  17.181  0.00  0.00    +0.000 OA
BRANCH  17  18
ATOM     18  C   UNL     1       7.773   9.143  17.915  0.00  0.00    +0.000 C 
BRANCH  18  19
ATOM     19  C   UNL     1       9.015   9.389  18.767  0.00  0.00    +0.000 C 
BRANCH  19  20
ATOM     20  C   UNL     1       9.233  10.838  19.021  0.00  0.00    +0.000 A 
ATOM     21  N   UNL     1       9.530  11.713  17.994  0.00  0.00    +0.000 NA
ATOM     22  C   UNL     1       9.652  12.885  18.585  0.00  0.00    +0.000 A 
ATOM     23  O   UNL     1       9.442  12.843  19.942  0.00  0.00    +0.000 OA
ATOM     24  C   UNL     1       9.174  11.533  20.209  0.00  0.00    +0.000 A 
ATOM     25  C   UNL     1       8.893  11.182  21.610  0.00  0.00    +0.000 C 
BRANCH  22  26
ATOM     26  C   UNL     1       9.961  14.202  18.029  0.00  0.00    +0.000 A 
ATOM     27  C   UNL     1       9.158  15.309  18.337  0.00  0.00    +0.000 A 
ATOM     28  C   UNL     1       9.441  16.572  17.803  0.00  0.00    +0.000 A 
ATOM     29  C   UNL     1      10.533  16.741  16.952  0.00  0.00    +0.000 A 
ATOM     30  C   UNL     1      11.343  15.653  16.640  0.00  0.00    +0.000 A 
ATOM     31  C   UNL     1      11.061  14.395  17.177  0.00  0.00    +0.000 A 
ENDBRANCH  22  26
ENDBRANCH  19  20
ENDBRANCH  18  19
ENDBRANCH  17  18
ENDBRANCH   6  17
TORSDOF 8
ENDMDL
MODEL 7
REMARK VINA RESULT:      -8.1      6.446      8.595
REMARK  Name = 
REMARK  10 active torsions:
REMARK  status: ('A' for Active; 'I' for Inactive)
REMARK    1  A    between atoms: C_1  and  C_2
REMARK    2  A    between atoms: C_2  and  O_3
REMARK    3  A    between atoms: O_3  and  C_4
REMARK    4  A    between atoms: C_4  and  C_6
REMARK    5  A    between atoms: C_11  and  O_12
REMARK    6  A    between atoms: O_12  and  C_13
REMARK    7  A    between atoms: C_13  and  C_14
REMARK    8  A    between atoms: C_14  and  C_15
REMARK    9  A    between atoms: C_17  and  C_18
REMARK   10  A    between atoms: C_25  and  C_26
REMARK                            x       y       z     vdW  Elec       q    Type
REMARK                         _______ _______ _______ _____ _____    ______ ____
ROOT
ATOM      1  C   UNL     1       4.374   3.619  18.584  0.00  0.00    +0.000 A 
ATOM      2  C   UNL     1       5.554   3.996  19.108  0.00  0.00    +0.000 A 
ATOM      3  C   UNL     1       6.214   5.205  18.651  0.00  0.00    +0.000 A 
ATOM      4  C   UNL     1       7.422   5.658  19.184  0.00  0.00    +0.000 A 
ATOM      5  C   UNL     1       8.005   6.835  18.691  0.00  0.00    +0.000 A 
ATOM      6  C   UNL     1       7.386   7.571  17.676  0.00  0.00    +0.000 A 
ATOM      7  C   UNL     1       6.195   7.103  17.128  0.00  0.00    +0.000 A 
ATOM      8  C   UNL     1       5.627   5.934  17.628  0.00  0.00    +0.000 A 
ATOM      9  O   UNL     1       4.411   5.521  17.055  0.00  0.00    +0.000 OA
ATOM     10  C   UNL     1       3.706   4.418  17.533  0.00  0.00    +0.000 A 
ATOM     11  O   UNL     1       2.592   4.166  17.094  0.00  0.00    +0.000 OA
ENDROOT
BRANCH   1  12
ATOM     12  C   UNL     1       3.833   2.329  19.067  0.00  0.00    +0.000 C 
ATOM     13  O   UNL     1       3.693   1.341  18.355  0.00  0.00    +0.000 OA
BRANCH  12  14
ATOM     14  O   UNL     1       3.360   2.460  20.327  0.00  0.00    +0.000 OA
BRANCH  14  16
ATOM     15  C   UNL     1       1.499   2.640  21.794  0.00  0.00    +0.000 C 
ATOM     16  C   UNL     1       2.074   3.077  20.458  0.00  0.00    +0.000 C 
ENDBRANCH  14  16
ENDBRANCH  12  14
ENDBRANCH   1  12
BRANCH   6  17
ATOM     17  O   UNL     1       8.044   8.704  17.271  0.00  0.00    +0.000 OA
BRANCH  17  18
ATOM     18  C   UNL     1       8.444   9.586  18.328  0.00  0.00    +0.000 C 
BRANCH  18  19
ATOM     19  C   UNL     1       9.567  10.492  17.829  0.00  0.00    +0.000 C 
BRANCH  19  20
ATOM     20  C   UNL     1       9.513  11.838  18.458  0.00  0.00    +0.000 A 
ATOM     21  N   UNL     1       9.573  12.991  17.700  0.00  0.00    +0.000 NA
ATOM     22  C   UNL     1       9.498  13.969  18.583  0.00  0.00    +0.000 A 
ATOM     23  O   UNL     1       9.382  13.533  19.880  0.00  0.00    +0.000 OA
ATOM     24  C   UNL     1       9.391  12.173  19.789  0.00  0.00    +0.000 A 
ATOM     25  C   UNL     1       9.267  11.419  21.047  0.00  0.00    +0.000 C 
BRANCH  22  26
ATOM     26  C   UNL     1       9.511  15.420  18.396  0.00  0.00    +0.000 A 
ATOM     27  C   UNL     1       8.654  16.239  19.144  0.00  0.00    +0.000 A 
ATOM     28  C   UNL     1       8.654  17.627  18.967  0.00  0.00    +0.000 A 
ATOM     29  C   UNL     1       9.512  18.213  18.036  0.00  0.00    +0.000 A 
ATOM     30  C   UNL     1      10.373  17.414  17.290  0.00  0.00    +0.000 A 
ATOM     31  C   UNL     1      10.374  16.029  17.470  0.00  0.00    +0.000 A 
ENDBRANCH  22  26
ENDBRANCH  19  20
ENDBRANCH  18  19
ENDBRANCH  17  18
ENDBRANCH   6  17
TORSDOF 8
ENDMDL
MODEL 8
REMARK VINA RESULT:      -8.0      5.924      8.192
REMARK  Name = 
REMARK  10 active torsions:
REMARK  status: ('A' for Active; 'I' for Inactive)
REMARK    1  A    between atoms: C_1  and  C_2
REMARK    2  A    between atoms: C_2  and  O_3
REMARK    3  A    between atoms: O_3  and  C_4
REMARK    4  A    between atoms: C_4  and  C_6
REMARK    5  A    between atoms: C_11  and  O_12
REMARK    6  A    between atoms: O_12  and  C_13
REMARK    7  A    between atoms: C_13  and  C_14
REMARK    8  A    between atoms: C_14  and  C_15
REMARK    9  A    between atoms: C_17  and  C_18
REMARK   10  A    between atoms: C_25  and  C_26
REMARK                            x       y       z     vdW  Elec       q    Type
REMARK                         _______ _______ _______ _____ _____    ______ ____
ROOT
ATOM      1  C   UNL     1       4.217   3.649  18.639  0.00  0.00    +0.000 A 
ATOM      2  C   UNL     1       5.421   3.985  19.138  0.00  0.00    +0.000 A 
ATOM      3  C   UNL     1       6.119   5.162  18.653  0.00  0.00    +0.000 A 
ATOM      4  C   UNL     1       7.355   5.572  19.158  0.00  0.00    +0.000 A 
ATOM      5  C   UNL     1       7.974   6.719  18.640  0.00  0.00    +0.000 A 
ATOM      6  C   UNL     1       7.367   7.467  17.626  0.00  0.00    +0.000 A 
ATOM      7  C   UNL     1       6.148   7.040  17.106  0.00  0.00    +0.000 A 
ATOM      8  C   UNL     1       5.543   5.901  17.631  0.00  0.00    +0.000 A 
ATOM      9  O   UNL     1       4.301   5.529  17.086  0.00  0.00    +0.000 OA
ATOM     10  C   UNL     1       3.562   4.461  17.591  0.00  0.00    +0.000 A 
ATOM     11  O   UNL     1       2.431   4.248  17.175  0.00  0.00    +0.000 OA
ENDROOT
BRANCH   1  12
ATOM     12  C   UNL     1       3.635   2.388  19.149  0.00  0.00    +0.000 C 
ATOM     13  O   UNL     1       3.594   1.348  18.502  0.00  0.00    +0.000 OA
BRANCH  12  14
ATOM     14  O   UNL     1       3.009   2.601  20.328  0.00  0.00    +0.000 OA
BRANCH  14  16
ATOM     15  C   UNL     1       1.148   4.059  20.577  0.00  0.00    +0.000 C 
ATOM     16  C   UNL     1       1.577   2.631  20.288  0.00  0.00    +0.000 C 
ENDBRANCH  14  16
ENDBRANCH  12  14
ENDBRANCH   1  12
BRANCH   6  17
ATOM     17  O   UNL     1       8.061   8.567  17.195  0.00  0.00    +0.000 OA
BRANCH  17  18
ATOM     18  C   UNL     1       8.036   9.691  18.086  0.00  0.00    +0.000 C 
BRANCH  18  19
ATOM     19  C   UNL     1       9.440   9.926  18.638  0.00  0.00    +0.000 C 
BRANCH  19  20
ATOM     20  C   UNL     1       9.694  11.366  18.907  0.00  0.00    +0.000 A 
ATOM     21  N   UNL     1       8.669  12.292  18.898  0.00  0.00    +0.000 NA
ATOM     22  C   UNL     1       9.260  13.439  19.174  0.00  0.00    +0.000 A 
ATOM     23  O   UNL     1      10.615  13.327  19.376  0.00  0.00    +0.000 OA
ATOM     24  C   UNL     1      10.880  12.001  19.205  0.00  0.00    +0.000 A 
ATOM     25  C   UNL     1      12.277  11.573  19.375  0.00  0.00    +0.000 C 
BRANCH  22  26
ATOM     26  C   UNL     1       8.706  14.786  19.303  0.00  0.00    +0.000 A 
ATOM     27  C   UNL     1       8.086  15.407  18.210  0.00  0.00    +0.000 A 
ATOM     28  C   UNL     1       7.559  16.699  18.322  0.00  0.00    +0.000 A 
ATOM     29  C   UNL     1       7.648  17.386  19.532  0.00  0.00    +0.000 A 
ATOM     30  C   UNL     1       8.255  16.782  20.629  0.00  0.00    +0.000 A 
ATOM     31  C   UNL     1       8.778  15.492  20.516  0.00  0.00    +0.000 A 
ENDBRANCH  22  26
ENDBRANCH  19  20
ENDBRANCH  18  19
ENDBRANCH  17  18
ENDBRANCH   6  17
TORSDOF 8
ENDMDL
MODEL 9
REMARK VINA RESULT:      -8.0      2.924      9.701
REMARK  Name = 
REMARK  10 active torsions:
REMARK  status: ('A' for Active; 'I' for Inactive)
REMARK    1  A    between atoms: C_1  and  C_2
REMARK    2  A    between atoms: C_2  and  O_3
REMARK    3  A    between atoms: O_3  and  C_4
REMARK    4  A    between atoms: C_4  and  C_6
REMARK    5  A    between atoms: C_11  and  O_12
REMARK    6  A    between atoms: O_12  and  C_13
REMARK    7  A    between atoms: C_13  and  C_14
REMARK    8  A    between atoms: C_14  and  C_15
REMARK    9  A    between atoms: C_17  and  C_18
REMARK   10  A    between atoms: C_25  and  C_26
REMARK                            x       y       z     vdW  Elec       q    Type
REMARK                         _______ _______ _______ _____ _____    ______ ____
ROOT
ATOM      1  C   UNL     1       1.076  10.101  19.325  0.00  0.00    +0.000 A 
ATOM      2  C   UNL     1       1.585   9.300  18.371  0.00  0.00    +0.000 A 
ATOM      3  C   UNL     1       2.046   7.963  18.697  0.00  0.00    +0.000 A 
ATOM      4  C   UNL     1       2.553   7.081  17.741  0.00  0.00    +0.000 A 
ATOM      5  C   UNL     1       2.985   5.804  18.128  0.00  0.00    +0.000 A 
ATOM      6  C   UNL     1       2.907   5.395  19.463  0.00  0.00    +0.000 A 
ATOM      7  C   UNL     1       2.427   6.286  20.419  0.00  0.00    +0.000 A 
ATOM      8  C   UNL     1       2.000   7.550  20.020  0.00  0.00    +0.000 A 
ATOM      9  O   UNL     1       1.500   8.400  21.023  0.00  0.00    +0.000 OA
ATOM     10  C   UNL     1       0.964   9.652  20.730  0.00  0.00    +0.000 A 
ATOM     11  O   UNL     1       0.424  10.308  21.611  0.00  0.00    +0.000 OA
ENDROOT
BRANCH   1  12
ATOM     12  C   UNL     1       0.710  11.469  18.895  0.00  0.00    +0.000 C 
ATOM     13  O   UNL     1       1.523  12.374  18.747  0.00  0.00    +0.000 OA
BRANCH  12  14
ATOM     14  O   UNL     1      -0.634  11.612  18.870  0.00  0.00    +0.000 OA
BRANCH  14  16
ATOM     15  C   UNL     1      -2.783  10.788  18.278  0.00  0.00    +0.000 C 
ATOM     16  C   UNL     1      -1.329  10.885  17.851  0.00  0.00    +0.000 C 
ENDBRANCH  14  16
ENDBRANCH  12  14
ENDBRANCH   1  12
BRANCH   6  17
ATOM     17  O   UNL     1       3.358   4.128  19.729  0.00  0.00    +0.000 OA
BRANCH  17  18
ATOM     18  C   UNL     1       4.622   3.795  19.139  0.00  0.00    +0.000 C 
BRANCH  18  19
ATOM     19  C   UNL     1       5.541   5.012  19.199  0.00  0.00    +0.000 C 
BRANCH  19  20
ATOM     20  C   UNL     1       6.175   5.292  17.885  0.00  0.00    +0.000 A 
ATOM     21  N   UNL     1       5.871   4.544  16.764  0.00  0.00    +0.000 NA
ATOM     22  C   UNL     1       6.608   5.072  15.806  0.00  0.00    +0.000 A 
ATOM     23  O   UNL     1       7.376   6.133  16.222  0.00  0.00    +0.000 OA
ATOM     24  C   UNL     1       7.091   6.266  17.548  0.00  0.00    +0.000 A 
ATOM     25  C   UNL     1       7.772   7.351  18.271  0.00  0.00    +0.000 C 
BRANCH  22  26
ATOM     26  C   UNL     1       6.727   4.715  14.392  0.00  0.00    +0.000 A 
ATOM     27  C   UNL     1       5.845   3.788  13.818  0.00  0.00    +0.000 A 
ATOM     28  C   UNL     1       5.956   3.434  12.469  0.00  0.00    +0.000 A 
ATOM     29  C   UNL     1       6.953   4.003  11.677  0.00  0.00    +0.000 A 
ATOM     30  C   UNL     1       7.832   4.929  12.230  0.00  0.00    +0.000 A 
ATOM     31  C   UNL     1       7.718   5.283  13.576  0.00  0.00    +0.000 A 
ENDBRANCH  22  26
ENDBRANCH  19  20
ENDBRANCH  18  19
ENDBRANCH  17  18
ENDBRANCH   6  17
TORSDOF 8
ENDMDL
