MODEL 1
REMARK VINA RESULT:      -8.0      0.000      0.000
REMARK  Name = 
REMARK  7 active torsions:
REMARK  status: ('A' for Active; 'I' for Inactive)
REMARK    1  A    between atoms: C_1  and  C_2
REMARK    2  A    between atoms: C_6  and  O_7
REMARK    3  A    between atoms: C_8  and  C_9
REMARK    4  A    between atoms: C_9  and  C_10
REMARK    5  A    between atoms: C_9  and  C_11
REMARK    6  A    between atoms: C_11  and  C_13
REMARK    7  A    between atoms: C_23  and  C_24
REMARK                            x       y       z     vdW  Elec       q    Type
REMARK                         _______ _______ _______ _____ _____    ______ ____
ROOT
ATOM      1  C   UNL     1       0.254   9.890  21.013  0.00  0.00    +0.000 C 
ATOM      2  C   UNL     1       1.078   8.874  20.269  0.00  0.00    +0.000 A 
ATOM      3  C   UNL     1       1.354   7.640  20.875  0.00  0.00    +0.000 A 
ATOM      4  C   UNL     1       2.021   6.621  20.208  0.00  0.00    +0.000 A 
ATOM      5  N   UNL     1       2.191   5.439  20.826  0.00  0.00    +0.000 NA
ATOM      6  C   UNL     1       2.803   4.481  20.112  0.00  0.00    +0.000 A 
ATOM      7  C   UNL     1       3.274   4.660  18.816  0.00  0.00    +0.000 A 
ATOM      8  N   UNL     1       3.110   5.865  18.197  0.00  0.00    +0.000 NA
ATOM      9  C   UNL     1       2.477   6.842  18.891  0.00  0.00    +0.000 A 
ATOM     10  C   UNL     1       2.246   8.084  18.304  0.00  0.00    +0.000 A 
ATOM     11  C   UNL     1       1.539   9.106  18.965  0.00  0.00    +0.000 A 
ATOM     12  C   UNL     1       1.248  10.396  18.248  0.00  0.00    +0.000 C 
ENDROOT
BRANCH   6  13
ATOM     13  O   UNL     1       2.922   3.328  20.800  0.00  0.00    +0.000 OA
ATOM     14  H   UNL     1       2.344   3.513  21.562  0.00  0.00    +0.000 HD
ENDBRANCH   6  13
BRANCH   7  15
ATOM     15  C   UNL     1       4.030   3.599  18.049  0.00  0.00    +0.000 C 
ATOM     16  C   UNL     1       3.070   2.674  17.281  0.00  0.00    +0.000 C 
BRANCH  15  17
ATOM     17  C   UNL     1       5.099   4.151  17.106  0.00  0.00    +0.000 C 
ATOM     18  O   UNL     1       5.292   3.668  15.986  0.00  0.00    +0.000 OA
BRANCH  17  19
ATOM     19  C   UNL     1       6.023   5.248  17.540  0.00  0.00    +0.000 A 
ATOM     20  C   UNL     1       6.948   5.109  18.581  0.00  0.00    +0.000 A 
ATOM     21  C   UNL     1       7.807   6.171  18.905  0.00  0.00    +0.000 A 
ATOM     22  C   UNL     1       7.747   7.365  18.190  0.00  0.00    +0.000 A 
ATOM     23 CL   UNL     1       8.798   8.665  18.597  0.00  0.00    +0.000 Cl
ATOM     24  C   UNL     1       6.844   7.511  17.141  0.00  0.00    +0.000 A 
ATOM     25  C   UNL     1       5.989   6.454  16.817  0.00  0.00    +0.000 A 
ENDBRANCH  17  19
ENDBRANCH  15  17
ENDBRANCH   7  15
TORSDOF 4
ENDMDL
MODEL 2
REMARK VINA RESULT:      -7.4      1.459      2.020
REMARK  Name = 
REMARK  7 active torsions:
REMARK  status: ('A' for Active; 'I' for Inactive)
REMARK    1  A    between atoms: C_1  and  C_2
REMARK    2  A    between atoms: C_6  and  O_7
REMARK    3  A    between atoms: C_8  and  C_9
REMARK    4  A    between atoms: C_9  and  C_10
REMARK    5  A    between atoms: C_9  and  C_11
REMARK    6  A    between atoms: C_11  and  C_13
REMARK    7  A    between atoms: C_23  and  C_24
REMARK                            x       y       z     vdW  Elec       q    Type
REMARK                         _______ _______ _______ _____ _____    ______ ____
ROOT
ATOM      1  C   UNL     1       0.752   8.329  21.340  0.00  0.00    +0.000 C 
ATOM      2  C   UNL     1       1.674   7.813  20.268  0.00  0.00    +0.000 A 
ATOM      3  C   UNL     1       2.391   6.630  20.495  0.00  0.00    +0.000 A 
ATOM      4  C   UNL     1       3.181   6.044  19.514  0.00  0.00    +0.000 A 
ATOM      5  N   UNL     1       3.786   4.873  19.778  0.00  0.00    +0.000 NA
ATOM      6  C   UNL     1       4.499   4.336  18.774  0.00  0.00    +0.000 A 
ATOM      7  C   UNL     1       4.652   4.930  17.526  0.00  0.00    +0.000 A 
ATOM      8  N   UNL     1       4.045   6.125  17.267  0.00  0.00    +0.000 NA
ATOM      9  C   UNL     1       3.305   6.677  18.259  0.00  0.00    +0.000 A 
ATOM     10  C   UNL     1       2.631   7.878  18.048  0.00  0.00    +0.000 A 
ATOM     11  C   UNL     1       1.801   8.455  19.027  0.00  0.00    +0.000 A 
ATOM     12  C   UNL     1       1.034   9.709  18.711  0.00  0.00    +0.000 C 
ENDROOT
BRANCH   6  13
ATOM     13  O   UNL     1       5.060   3.161  19.117  0.00  0.00    +0.000 OA
ATOM     14  H   UNL     1       5.976   3.302  18.813  0.00  0.00    +0.000 HD
ENDBRANCH   6  13
BRANCH   7  15
ATOM     15  C   UNL     1       5.518   4.356  16.428  0.00  0.00    +0.000 C 
ATOM     16  C   UNL     1       5.024   4.794  15.039  0.00  0.00    +0.000 C 
BRANCH  15  17
ATOM     17  C   UNL     1       7.007   4.664  16.580  0.00  0.00    +0.000 C 
ATOM     18  O   UNL     1       7.877   3.853  16.250  0.00  0.00    +0.000 OA
BRANCH  17  19
ATOM     19  C   UNL     1       7.474   5.933  17.226  0.00  0.00    +0.000 A 
ATOM     20  C   UNL     1       7.394   7.186  16.608  0.00  0.00    +0.000 A 
ATOM     21  C   UNL     1       7.818   8.336  17.292  0.00  0.00    +0.000 A 
ATOM     22  C   UNL     1       8.316   8.237  18.590  0.00  0.00    +0.000 A 
ATOM     23 CL   UNL     1       8.839   9.650  19.420  0.00  0.00    +0.000 Cl
ATOM     24  C   UNL     1       8.384   6.999  19.223  0.00  0.00    +0.000 A 
ATOM     25  C   UNL     1       7.962   5.854  18.543  0.00  0.00    +0.000 A 
ENDBRANCH  17  19
ENDBRANCH  15  17
ENDBRANCH   7  15
TORSDOF 4
ENDMDL
MODEL 3
REMARK VINA RESULT:      -7.3      1.887      2.318
REMARK  Name = 
REMARK  7 active torsions:
REMARK  status: ('A' for Active; 'I' for Inactive)
REMARK    1  A    between atoms: C_1  and  C_2
REMARK    2  A    between atoms: C_6  and  O_7
REMARK    3  A    between atoms: C_8  and  C_9
REMARK    4  A    between atoms: C_9  and  C_10
REMARK    5  A    between atoms: C_9  and  C_11
REMARK    6  A    between atoms: C_11  and  C_13
REMARK    7  A    between atoms: C_23  and  C_24
REMARK                            x       y       z     vdW  Elec       q    Type
REMARK                         _______ _______ _______ _____ _____    ______ ____
ROOT
ATOM      1  C   UNL     1       0.079  10.459  21.122  0.00  0.00    +0.000 C 
ATOM      2  C   UNL     1       0.881   9.381  20.445  0.00  0.00    +0.000 A 
ATOM      3  C   UNL     1       1.041   8.144  21.085  0.00  0.00    +0.000 A 
ATOM      4  C   UNL     1       1.682   7.073  20.475  0.00  0.00    +0.000 A 
ATOM      5  N   UNL     1       1.739   5.895  21.120  0.00  0.00    +0.000 NA
ATOM      6  C   UNL     1       2.332   4.887  20.460  0.00  0.00    +0.000 A 
ATOM      7  C   UNL     1       2.891   5.012  19.193  0.00  0.00    +0.000 A 
ATOM      8  N   UNL     1       2.841   6.213  18.547  0.00  0.00    +0.000 NA
ATOM      9  C   UNL     1       2.230   7.241  19.185  0.00  0.00    +0.000 A 
ATOM     10  C   UNL     1       2.113   8.484  18.567  0.00  0.00    +0.000 A 
ATOM     11  C   UNL     1       1.433   9.559  19.168  0.00  0.00    +0.000 A 
ATOM     12  C   UNL     1       1.268  10.851  18.415  0.00  0.00    +0.000 C 
ENDROOT
BRANCH   6  13
ATOM     13  O   UNL     1       2.337   3.742  21.170  0.00  0.00    +0.000 OA
ATOM     14  H   UNL     1       2.244   3.086  20.455  0.00  0.00    +0.000 HD
ENDBRANCH   6  13
BRANCH   7  15
ATOM     15  C   UNL     1       3.624   3.892  18.489  0.00  0.00    +0.000 C 
ATOM     16  C   UNL     1       3.002   3.595  17.114  0.00  0.00    +0.000 C 
BRANCH  15  17
ATOM     17  C   UNL     1       5.129   4.119  18.350  0.00  0.00    +0.000 C 
ATOM     18  O   UNL     1       5.868   4.204  19.335  0.00  0.00    +0.000 OA
BRANCH  17  19
ATOM     19  C   UNL     1       5.758   4.342  17.009  0.00  0.00    +0.000 A 
ATOM     20  C   UNL     1       5.587   3.475  15.923  0.00  0.00    +0.000 A 
ATOM     21  C   UNL     1       6.179   3.772  14.686  0.00  0.00    +0.000 A 
ATOM     22  C   UNL     1       6.936   4.931  14.530  0.00  0.00    +0.000 A 
ATOM     23 CL   UNL     1       7.664   5.284  13.012  0.00  0.00    +0.000 Cl
ATOM     24  C   UNL     1       7.100   5.810  15.596  0.00  0.00    +0.000 A 
ATOM     25  C   UNL     1       6.510   5.517  16.827  0.00  0.00    +0.000 A 
ENDBRANCH  17  19
ENDBRANCH  15  17
ENDBRANCH   7  15
TORSDOF 4
ENDMDL
MODEL 4
REMARK VINA RESULT:      -7.2      1.118      1.540
REMARK  Name = 
REMARK  7 active torsions:
REMARK  status: ('A' for Active; 'I' for Inactive)
REMARK    1  A    between atoms: C_1  and  C_2
REMARK    2  A    between atoms: C_6  and  O_7
REMARK    3  A    between atoms: C_8  and  C_9
REMARK    4  A    between atoms: C_9  and  C_10
REMARK    5  A    between atoms: C_9  and  C_11
REMARK    6  A    between atoms: C_11  and  C_13
REMARK    7  A    between atoms: C_23  and  C_24
REMARK                            x       y       z     vdW  Elec       q    Type
REMARK                         _______ _______ _______ _____ _____    ______ ____
ROOT
ATOM      1  C   UNL     1       0.324  10.752  20.793  0.00  0.00    +0.000 C 
ATOM      2  C   UNL     1       0.987   9.537  20.202  0.00  0.00    +0.000 A 
ATOM      3  C   UNL     1       1.015   8.345  20.941  0.00  0.00    +0.000 A 
ATOM      4  C   UNL     1       1.520   7.163  20.418  0.00  0.00    +0.000 A 
ATOM      5  N   UNL     1       1.453   6.042  21.158  0.00  0.00    +0.000 NA
ATOM      6  C   UNL     1       1.916   4.922  20.578  0.00  0.00    +0.000 A 
ATOM      7  C   UNL     1       2.465   4.879  19.302  0.00  0.00    +0.000 A 
ATOM      8  N   UNL     1       2.542   6.021  18.559  0.00  0.00    +0.000 NA
ATOM      9  C   UNL     1       2.063   7.161  19.115  0.00  0.00    +0.000 A 
ATOM     10  C   UNL     1       2.079   8.354  18.397  0.00  0.00    +0.000 A 
ATOM     11  C   UNL     1       1.535   9.546  18.911  0.00  0.00    +0.000 A 
ATOM     12  C   UNL     1       1.507  10.783  18.056  0.00  0.00    +0.000 C 
ENDROOT
BRANCH   6  13
ATOM     13  O   UNL     1       1.801   3.846  21.381  0.00  0.00    +0.000 OA
ATOM     14  H   UNL     1       1.737   4.277  22.253  0.00  0.00    +0.000 HD
ENDBRANCH   6  13
BRANCH   7  15
ATOM     15  C   UNL     1       3.054   3.629  18.688  0.00  0.00    +0.000 C 
ATOM     16  C   UNL     1       2.645   3.484  17.212  0.00  0.00    +0.000 C 
BRANCH  15  17
ATOM     17  C   UNL     1       4.572   3.518  18.828  0.00  0.00    +0.000 C 
ATOM     18  O   UNL     1       5.107   2.542  19.362  0.00  0.00    +0.000 OA
BRANCH  17  19
ATOM     19  C   UNL     1       5.473   4.637  18.404  0.00  0.00    +0.000 A 
ATOM     20  C   UNL     1       5.367   5.286  17.168  0.00  0.00    +0.000 A 
ATOM     21  C   UNL     1       6.225   6.352  16.858  0.00  0.00    +0.000 A 
ATOM     22  C   UNL     1       7.182   6.774  17.779  0.00  0.00    +0.000 A 
ATOM     23 CL   UNL     1       8.234   8.078  17.388  0.00  0.00    +0.000 Cl
ATOM     24  C   UNL     1       7.286   6.150  19.018  0.00  0.00    +0.000 A 
ATOM     25  C   UNL     1       6.432   5.089  19.328  0.00  0.00    +0.000 A 
ENDBRANCH  17  19
ENDBRANCH  15  17
ENDBRANCH   7  15
TORSDOF 4
ENDMDL
MODEL 5
REMARK VINA RESULT:      -7.2      4.589      8.080
REMARK  Name = 
REMARK  7 active torsions:
REMARK  status: ('A' for Active; 'I' for Inactive)
REMARK    1  A    between atoms: C_1  and  C_2
REMARK    2  A    between atoms: C_6  and  O_7
REMARK    3  A    between atoms: C_8  and  C_9
REMARK    4  A    between atoms: C_9  and  C_10
REMARK    5  A    between atoms: C_9  and  C_11
REMARK    6  A    between atoms: C_11  and  C_13
REMARK    7  A    between atoms: C_23  and  C_24
REMARK                            x       y       z     vdW  Elec       q    Type
REMARK                         _______ _______ _______ _____ _____    ______ ____
ROOT
ATOM      1  C   UNL     1       4.052   4.766  19.197  0.00  0.00    +0.000 C 
ATOM      2  C   UNL     1       3.316   6.068  19.028  0.00  0.00    +0.000 A 
ATOM      3  C   UNL     1       2.443   6.497  20.038  0.00  0.00    +0.000 A 
ATOM      4  C   UNL     1       1.811   7.733  19.992  0.00  0.00    +0.000 A 
ATOM      5  N   UNL     1       1.041   8.109  21.029  0.00  0.00    +0.000 NA
ATOM      6  C   UNL     1       0.493   9.332  20.945  0.00  0.00    +0.000 A 
ATOM      7  C   UNL     1       0.663  10.186  19.861  0.00  0.00    +0.000 A 
ATOM      8  N   UNL     1       1.436   9.796  18.807  0.00  0.00    +0.000 NA
ATOM      9  C   UNL     1       2.015   8.572  18.876  0.00  0.00    +0.000 A 
ATOM     10  C   UNL     1       2.845   8.127  17.850  0.00  0.00    +0.000 A 
ATOM     11  C   UNL     1       3.515   6.891  17.909  0.00  0.00    +0.000 A 
ATOM     12  C   UNL     1       4.463   6.502  16.808  0.00  0.00    +0.000 C 
ENDROOT
BRANCH   6  13
ATOM     13  O   UNL     1      -0.252   9.634  22.027  0.00  0.00    +0.000 OA
ATOM     14  H   UNL     1       0.388   9.457  22.741  0.00  0.00    +0.000 HD
ENDBRANCH   6  13
BRANCH   7  15
ATOM     15  C   UNL     1      -0.019  11.530  19.743  0.00  0.00    +0.000 C 
ATOM     16  C   UNL     1       0.628  12.391  18.644  0.00  0.00    +0.000 C 
BRANCH  15  17
ATOM     17  C   UNL     1      -1.530  11.449  19.528  0.00  0.00    +0.000 C 
ATOM     18  O   UNL     1      -2.330  11.621  20.452  0.00  0.00    +0.000 OA
BRANCH  17  19
ATOM     19  C   UNL     1      -2.103  11.063  18.198  0.00  0.00    +0.000 A 
ATOM     20  C   UNL     1      -1.576  10.044  17.397  0.00  0.00    +0.000 A 
ATOM     21  C   UNL     1      -2.191   9.715  16.180  0.00  0.00    +0.000 A 
ATOM     22  C   UNL     1      -3.333  10.397  15.764  0.00  0.00    +0.000 A 
ATOM     23 CL   UNL     1      -4.079   9.993  14.268  0.00  0.00    +0.000 Cl
ATOM     24  C   UNL     1      -3.879  11.401  16.559  0.00  0.00    +0.000 A 
ATOM     25  C   UNL     1      -3.267  11.728  17.771  0.00  0.00    +0.000 A 
ENDBRANCH  17  19
ENDBRANCH  15  17
ENDBRANCH   7  15
TORSDOF 4
ENDMDL
MODEL 6
REMARK VINA RESULT:      -7.2      4.007      7.361
REMARK  Name = 
REMARK  7 active torsions:
REMARK  status: ('A' for Active; 'I' for Inactive)
REMARK    1  A    between atoms: C_1  and  C_2
REMARK    2  A    between atoms: C_6  and  O_7
REMARK    3  A    between atoms: C_8  and  C_9
REMARK    4  A    between atoms: C_9  and  C_10
REMARK    5  A    between atoms: C_9  and  C_11
REMARK    6  A    between atoms: C_11  and  C_13
REMARK    7  A    between atoms: C_23  and  C_24
REMARK                            x       y       z     vdW  Elec       q    Type
REMARK                         _______ _______ _______ _____ _____    ______ ____
ROOT
ATOM      1  C   UNL     1       7.397   3.103  11.055  0.00  0.00    +0.000 C 
ATOM      2  C   UNL     1       6.721   3.609  12.301  0.00  0.00    +0.000 A 
ATOM      3  C   UNL     1       7.493   4.228  13.295  0.00  0.00    +0.000 A 
ATOM      4  C   UNL     1       6.922   4.806  14.421  0.00  0.00    +0.000 A 
ATOM      5  N   UNL     1       7.716   5.444  15.299  0.00  0.00    +0.000 NA
ATOM      6  C   UNL     1       7.100   6.020  16.344  0.00  0.00    +0.000 A 
ATOM      7  C   UNL     1       5.727   5.967  16.561  0.00  0.00    +0.000 A 
ATOM      8  N   UNL     1       4.927   5.309  15.673  0.00  0.00    +0.000 NA
ATOM      9  C   UNL     1       5.524   4.735  14.600  0.00  0.00    +0.000 A 
ATOM     10  C   UNL     1       4.761   4.079  13.637  0.00  0.00    +0.000 A 
ATOM     11  C   UNL     1       5.332   3.524  12.478  0.00  0.00    +0.000 A 
ATOM     12  C   UNL     1       4.446   2.900  11.434  0.00  0.00    +0.000 C 
ENDROOT
BRANCH   6  13
ATOM     13  O   UNL     1       7.964   6.645  17.166  0.00  0.00    +0.000 OA
ATOM     14  H   UNL     1       8.763   6.102  17.036  0.00  0.00    +0.000 HD
ENDBRANCH   6  13
BRANCH   7  15
ATOM     15  C   UNL     1       5.051   6.553  17.780  0.00  0.00    +0.000 C 
ATOM     16  C   UNL     1       3.697   7.186  17.417  0.00  0.00    +0.000 C 
BRANCH  15  17
ATOM     17  C   UNL     1       4.882   5.568  18.936  0.00  0.00    +0.000 C 
ATOM     18  O   UNL     1       5.746   5.430  19.806  0.00  0.00    +0.000 OA
BRANCH  17  19
ATOM     19  C   UNL     1       3.693   4.659  19.011  0.00  0.00    +0.000 A 
ATOM     20  C   UNL     1       2.539   4.957  19.744  0.00  0.00    +0.000 A 
ATOM     21  C   UNL     1       1.451   4.071  19.736  0.00  0.00    +0.000 A 
ATOM     22  C   UNL     1       1.511   2.893  18.994  0.00  0.00    +0.000 A 
ATOM     23 CL   UNL     1       0.175   1.809  18.993  0.00  0.00    +0.000 Cl
ATOM     24  C   UNL     1       2.645   2.592  18.246  0.00  0.00    +0.000 A 
ATOM     25  C   UNL     1       3.728   3.475  18.253  0.00  0.00    +0.000 A 
ENDBRANCH  17  19
ENDBRANCH  15  17
ENDBRANCH   7  15
TORSDOF 4
ENDMDL
MODEL 7
REMARK VINA RESULT:      -7.2      4.047      7.505
REMARK  Name = 
REMARK  7 active torsions:
REMARK  status: ('A' for Active; 'I' for Inactive)
REMARK    1  A    between atoms: C_1  and  C_2
REMARK    2  A    between atoms: C_6  and  O_7
REMARK    3  A    between atoms: C_8  and  C_9
REMARK    4  A    between atoms: C_9  and  C_10
REMARK    5  A    between atoms: C_9  and  C_11
REMARK    6  A    between atoms: C_11  and  C_13
REMARK    7  A    between atoms: C_23  and  C_24
REMARK                            x       y       z     vdW  Elec       q    Type
REMARK                         _______ _______ _______ _____ _____    ______ ____
ROOT
ATOM      1  C   UNL     1       3.848   3.838  18.940  0.00  0.00    +0.000 C 
ATOM      2  C   UNL     1       3.150   5.114  19.325  0.00  0.00    +0.000 A 
ATOM      3  C   UNL     1       3.278   6.240  18.499  0.00  0.00    +0.000 A 
ATOM      4  C   UNL     1       2.582   7.417  18.741  0.00  0.00    +0.000 A 
ATOM      5  N   UNL     1       2.699   8.434  17.869  0.00  0.00    +0.000 NA
ATOM      6  C   UNL     1       1.966   9.528  18.134  0.00  0.00    +0.000 A 
ATOM      7  C   UNL     1       1.139   9.658  19.244  0.00  0.00    +0.000 A 
ATOM      8  N   UNL     1       1.032   8.627  20.132  0.00  0.00    +0.000 NA
ATOM      9  C   UNL     1       1.748   7.505  19.876  0.00  0.00    +0.000 A 
ATOM     10  C   UNL     1       1.657   6.404  20.724  0.00  0.00    +0.000 A 
ATOM     11  C   UNL     1       2.333   5.198  20.462  0.00  0.00    +0.000 A 
ATOM     12  C   UNL     1       2.129   4.015  21.370  0.00  0.00    +0.000 C 
ENDROOT
BRANCH   6  13
ATOM     13  O   UNL     1       2.133  10.492  17.208  0.00  0.00    +0.000 OA
ATOM     14  H   UNL     1       2.815  10.084  16.643  0.00  0.00    +0.000 HD
ENDBRANCH   6  13
BRANCH   7  15
ATOM     15  C   UNL     1       0.377  10.921  19.575  0.00  0.00    +0.000 C 
ATOM     16  C   UNL     1      -0.857  10.619  20.441  0.00  0.00    +0.000 C 
BRANCH  15  17
ATOM     17  C   UNL     1       1.226  12.012  20.227  0.00  0.00    +0.000 C 
ATOM     18  O   UNL     1       1.585  11.940  21.406  0.00  0.00    +0.000 OA
BRANCH  17  19
ATOM     19  C   UNL     1       1.582  13.264  19.486  0.00  0.00    +0.000 A 
ATOM     20  C   UNL     1       0.753  14.390  19.433  0.00  0.00    +0.000 A 
ATOM     21  C   UNL     1       1.173  15.541  18.749  0.00  0.00    +0.000 A 
ATOM     22  C   UNL     1       2.417  15.571  18.123  0.00  0.00    +0.000 A 
ATOM     23 CL   UNL     1       2.922  16.984  17.280  0.00  0.00    +0.000 Cl
ATOM     24  C   UNL     1       3.259  14.465  18.182  0.00  0.00    +0.000 A 
ATOM     25  C   UNL     1       2.843  13.319  18.864  0.00  0.00    +0.000 A 
ENDBRANCH  17  19
ENDBRANCH  15  17
ENDBRANCH   7  15
TORSDOF 4
ENDMDL
MODEL 8
REMARK VINA RESULT:      -7.1      1.854      2.225
REMARK  Name = 
REMARK  7 active torsions:
REMARK  status: ('A' for Active; 'I' for Inactive)
REMARK    1  A    between atoms: C_1  and  C_2
REMARK    2  A    between atoms: C_6  and  O_7
REMARK    3  A    between atoms: C_8  and  C_9
REMARK    4  A    between atoms: C_9  and  C_10
REMARK    5  A    between atoms: C_9  and  C_11
REMARK    6  A    between atoms: C_11  and  C_13
REMARK    7  A    between atoms: C_23  and  C_24
REMARK                            x       y       z     vdW  Elec       q    Type
REMARK                         _______ _______ _______ _____ _____    ______ ____
ROOT
ATOM      1  C   UNL     1       0.379  10.730  20.879  0.00  0.00    +0.000 C 
ATOM      2  C   UNL     1       1.064   9.545  20.254  0.00  0.00    +0.000 A 
ATOM      3  C   UNL     1       1.117   8.334  20.960  0.00  0.00    +0.000 A 
ATOM      4  C   UNL     1       1.643   7.176  20.404  0.00  0.00    +0.000 A 
ATOM      5  N   UNL     1       1.599   6.034  21.113  0.00  0.00    +0.000 NA
ATOM      6  C   UNL     1       2.083   4.941  20.502  0.00  0.00    +0.000 A 
ATOM      7  C   UNL     1       2.630   4.942  19.224  0.00  0.00    +0.000 A 
ATOM      8  N   UNL     1       2.683   6.106  18.513  0.00  0.00    +0.000 NA
ATOM      9  C   UNL     1       2.184   7.220  19.101  0.00  0.00    +0.000 A 
ATOM     10  C   UNL     1       2.175   8.433  18.416  0.00  0.00    +0.000 A 
ATOM     11  C   UNL     1       1.610   9.600  18.963  0.00  0.00    +0.000 A 
ATOM     12  C   UNL     1       1.556  10.859  18.142  0.00  0.00    +0.000 C 
ENDROOT
BRANCH   6  13
ATOM     13  O   UNL     1       1.990   3.840  21.275  0.00  0.00    +0.000 OA
ATOM     14  H   UNL     1       1.093   3.534  21.046  0.00  0.00    +0.000 HD
ENDBRANCH   6  13
BRANCH   7  15
ATOM     15  C   UNL     1       3.241   3.721  18.575  0.00  0.00    +0.000 C 
ATOM     16  C   UNL     1       2.674   3.495  17.164  0.00  0.00    +0.000 C 
BRANCH  15  17
ATOM     17  C   UNL     1       4.769   3.733  18.535  0.00  0.00    +0.000 C 
ATOM     18  O   UNL     1       5.450   3.444  19.524  0.00  0.00    +0.000 OA
BRANCH  17  19
ATOM     19  C   UNL     1       5.508   4.188  17.314  0.00  0.00    +0.000 A 
ATOM     20  C   UNL     1       6.593   5.072  17.353  0.00  0.00    +0.000 A 
ATOM     21  C   UNL     1       7.258   5.423  16.169  0.00  0.00    +0.000 A 
ATOM     22  C   UNL     1       6.847   4.891  14.949  0.00  0.00    +0.000 A 
ATOM     23 CL   UNL     1       7.664   5.330  13.500  0.00  0.00    +0.000 Cl
ATOM     24  C   UNL     1       5.781   3.997  14.896  0.00  0.00    +0.000 A 
ATOM     25  C   UNL     1       5.119   3.647  16.075  0.00  0.00    +0.000 A 
ENDBRANCH  17  19
ENDBRANCH  15  17
ENDBRANCH   7  15
TORSDOF 4
ENDMDL
MODEL 9
REMARK VINA RESULT:      -7.0      4.005      7.502
REMARK  Name = 
REMARK  7 active torsions:
REMARK  status: ('A' for Active; 'I' for Inactive)
REMARK    1  A    between atoms: C_1  and  C_2
REMARK    2  A    between atoms: C_6  and  O_7
REMARK    3  A    between atoms: C_8  and  C_9
REMARK    4  A    between atoms: C_9  and  C_10
REMARK    5  A    between atoms: C_9  and  C_11
REMARK    6  A    between atoms: C_11  and  C_13
REMARK    7  A    between atoms: C_23  and  C_24
REMARK                            x       y       z     vdW  Elec       q    Type
REMARK                         _______ _______ _______ _____ _____    ______ ____
ROOT
ATOM      1  C   UNL     1       4.082   3.708  18.852  0.00  0.00    +0.000 C 
ATOM      2  C   UNL     1       3.348   4.961  19.244  0.00  0.00    +0.000 A 
ATOM      3  C   UNL     1       3.438   6.093  18.422  0.00  0.00    +0.000 A 
ATOM      4  C   UNL     1       2.708   7.248  18.671  0.00  0.00    +0.000 A 
ATOM      5  N   UNL     1       2.790   8.271  17.801  0.00  0.00    +0.000 NA
ATOM      6  C   UNL     1       2.027   9.341  18.074  0.00  0.00    +0.000 A 
ATOM      7  C   UNL     1       1.202   9.443  19.188  0.00  0.00    +0.000 A 
ATOM      8  N   UNL     1       1.130   8.407  20.073  0.00  0.00    +0.000 NA
ATOM      9  C   UNL     1       1.877   7.307  19.810  0.00  0.00    +0.000 A 
ATOM     10  C   UNL     1       1.823   6.201  20.655  0.00  0.00    +0.000 A 
ATOM     11  C   UNL     1       2.534   5.016  20.386  0.00  0.00    +0.000 A 
ATOM     12  C   UNL     1       2.370   3.826  21.290  0.00  0.00    +0.000 C 
ENDROOT
BRANCH   6  13
ATOM     13  O   UNL     1       2.160  10.312  17.150  0.00  0.00    +0.000 OA
ATOM     14  H   UNL     1       2.833  10.875  17.575  0.00  0.00    +0.000 HD
ENDBRANCH   6  13
BRANCH   7  15
ATOM     15  C   UNL     1       0.404  10.682  19.526  0.00  0.00    +0.000 C 
ATOM     16  C   UNL     1      -0.871  10.329  20.312  0.00  0.00    +0.000 C 
BRANCH  15  17
ATOM     17  C   UNL     1       1.200  11.756  20.267  0.00  0.00    +0.000 C 
ATOM     18  O   UNL     1       1.552  11.612  21.441  0.00  0.00    +0.000 OA
BRANCH  17  19
ATOM     19  C   UNL     1       1.507  13.074  19.624  0.00  0.00    +0.000 A 
ATOM     20  C   UNL     1       2.677  13.323  18.897  0.00  0.00    +0.000 A 
ATOM     21  C   UNL     1       2.877  14.572  18.291  0.00  0.00    +0.000 A 
ATOM     22  C   UNL     1       1.911  15.570  18.406  0.00  0.00    +0.000 A 
ATOM     23 CL   UNL     1       2.166  17.102  17.666  0.00  0.00    +0.000 Cl
ATOM     24  C   UNL     1       0.735  15.331  19.111  0.00  0.00    +0.000 A 
ATOM     25  C   UNL     1       0.535  14.087  19.713  0.00  0.00    +0.000 A 
ENDBRANCH  17  19
ENDBRANCH  15  17
ENDBRANCH   7  15
TORSDOF 4
ENDMDL
