MODEL 1
REMARK VINA RESULT:      -7.1      0.000      0.000
REMARK  Name = 
REMARK  5 active torsions:
REMARK  status: ('A' for Active; 'I' for Inactive)
REMARK    1  A    between atoms: C_1  and  C_2
REMARK    2  A    between atoms: C_5  and  C_6
REMARK    3  A    between atoms: C_6  and  N_7
REMARK    4  A    between atoms: N_10  and  S_11
REMARK    5  A    between atoms: S_11  and  C_14
REMARK                            x       y       z     vdW  Elec       q    Type
REMARK                         _______ _______ _______ _____ _____    ______ ____
ROOT
ATOM      1  N   UNL     1       1.537   8.190  19.337  0.00  0.00    +0.000 NA
ATOM      2  C   UNL     1       1.191   9.589  19.044  0.00  0.00    +0.000 C 
ATOM      3  C   UNL     1      -0.274   9.789  19.426  0.00  0.00    +0.000 C 
ATOM      4  N   UNL     1      -0.491   9.576  20.888  0.00  0.00    +0.000 NA
ATOM      5  C   UNL     1      -0.005   8.188  21.255  0.00  0.00    +0.000 C 
ATOM      6  C   UNL     1       1.454   7.934  20.784  0.00  0.00    +0.000 C 
ENDROOT
BRANCH   4   7
ATOM      7  S   UNL     1       0.046  10.809  21.939  0.00  0.00    +0.000 S 
ATOM      8  O   UNL     1       0.287  10.209  23.238  0.00  0.00    +0.000 OA
ATOM      9  O   UNL     1       1.084  11.573  21.273  0.00  0.00    +0.000 OA
BRANCH   7  10
ATOM     10  C   UNL     1      -1.371  11.880  22.111  0.00  0.00    +0.000 A 
ATOM     11  C   UNL     1      -1.665  12.809  21.110  0.00  0.00    +0.000 A 
ATOM     12  C   UNL     1      -2.793  13.626  21.240  0.00  0.00    +0.000 A 
ATOM     13  C   UNL     1      -3.633  13.501  22.355  0.00  0.00    +0.000 A 
ATOM     14 CL   UNL     1      -5.029  14.517  22.429  0.00  0.00    +0.000 Cl
ATOM     15  C   UNL     1      -3.328  12.570  23.356  0.00  0.00    +0.000 A 
ATOM     16 CL   UNL     1      -4.338  12.336  24.739  0.00  0.00    +0.000 Cl
ATOM     17  C   UNL     1      -2.186  11.770  23.244  0.00  0.00    +0.000 A 
ENDBRANCH   7  10
ENDBRANCH   4   7
BRANCH   1  18
ATOM     18  C   UNL     1       2.770   7.772  18.687  0.00  0.00    +0.000 C 
BRANCH  18  23
ATOM     19  C   UNL     1       3.130   1.950  18.391  0.00  0.00    +0.000 C 
ATOM     20  C   UNL     1       3.052   3.446  18.448  0.00  0.00    +0.000 A 
ATOM     21  C   UNL     1       4.009   4.188  19.151  0.00  0.00    +0.000 A 
ATOM     22  C   UNL     1       3.904   5.577  19.243  0.00  0.00    +0.000 A 
ATOM     23  C   UNL     1       2.841   6.253  18.635  0.00  0.00    +0.000 A 
ATOM     24  C   UNL     1       1.900   5.508  17.906  0.00  0.00    +0.000 A 
ATOM     25  C   UNL     1       2.004   4.118  17.811  0.00  0.00    +0.000 A 
ENDBRANCH  18  23
ENDBRANCH   1  18
TORSDOF 4
ENDMDL
MODEL 2
REMARK VINA RESULT:      -7.0      0.790      1.179
REMARK  Name = 
REMARK  5 active torsions:
REMARK  status: ('A' for Active; 'I' for Inactive)
REMARK    1  A    between atoms: C_1  and  C_2
REMARK    2  A    between atoms: C_5  and  C_6
REMARK    3  A    between atoms: C_6  and  N_7
REMARK    4  A    between atoms: N_10  and  S_11
REMARK    5  A    between atoms: S_11  and  C_14
REMARK                            x       y       z     vdW  Elec       q    Type
REMARK                         _______ _______ _______ _____ _____    ______ ____
ROOT
ATOM      1  N   UNL     1       1.424   8.766  19.002  0.00  0.00    +0.000 NA
ATOM      2  C   UNL     1       0.778  10.083  18.896  0.00  0.00    +0.000 C 
ATOM      3  C   UNL     1      -0.611   9.964  19.519  0.00  0.00    +0.000 C 
ATOM      4  N   UNL     1      -0.530   9.626  20.972  0.00  0.00    +0.000 NA
ATOM      5  C   UNL     1       0.262   8.344  21.130  0.00  0.00    +0.000 C 
ATOM      6  C   UNL     1       1.640   8.414  20.415  0.00  0.00    +0.000 C 
ENDROOT
BRANCH   4   7
ATOM      7  S   UNL     1      -0.061  10.878  22.034  0.00  0.00    +0.000 S 
ATOM      8  O   UNL     1       0.176  10.286  23.338  0.00  0.00    +0.000 OA
ATOM      9  O   UNL     1       0.961  11.680  21.389  0.00  0.00    +0.000 OA
BRANCH   7  10
ATOM     10  C   UNL     1      -1.520  11.895  22.178  0.00  0.00    +0.000 A 
ATOM     11  C   UNL     1      -1.854  12.780  21.149  0.00  0.00    +0.000 A 
ATOM     12  C   UNL     1      -3.014  13.553  21.258  0.00  0.00    +0.000 A 
ATOM     13  C   UNL     1      -3.846  13.429  22.379  0.00  0.00    +0.000 A 
ATOM     14 CL   UNL     1      -5.282  14.389  22.426  0.00  0.00    +0.000 Cl
ATOM     15  C   UNL     1      -3.501  12.542  23.407  0.00  0.00    +0.000 A 
ATOM     16 CL   UNL     1      -4.497  12.311  24.800  0.00  0.00    +0.000 Cl
ATOM     17  C   UNL     1      -2.328  11.787  23.316  0.00  0.00    +0.000 A 
ENDBRANCH   7  10
ENDBRANCH   4   7
BRANCH   1  18
ATOM     18  C   UNL     1       2.584   8.641  18.131  0.00  0.00    +0.000 C 
BRANCH  18  23
ATOM     19  C   UNL     1       3.878   2.987  17.448  0.00  0.00    +0.000 C 
ATOM     20  C   UNL     1       3.548   4.436  17.647  0.00  0.00    +0.000 A 
ATOM     21  C   UNL     1       2.243   4.841  17.951  0.00  0.00    +0.000 A 
ATOM     22  C   UNL     1       1.932   6.195  18.086  0.00  0.00    +0.000 A 
ATOM     23  C   UNL     1       2.919   7.172  17.920  0.00  0.00    +0.000 A 
ATOM     24  C   UNL     1       4.232   6.761  17.644  0.00  0.00    +0.000 A 
ATOM     25  C   UNL     1       4.547   5.406  17.510  0.00  0.00    +0.000 A 
ENDBRANCH  18  23
ENDBRANCH   1  18
TORSDOF 4
ENDMDL
MODEL 3
REMARK VINA RESULT:      -7.0      1.498      1.920
REMARK  Name = 
REMARK  5 active torsions:
REMARK  status: ('A' for Active; 'I' for Inactive)
REMARK    1  A    between atoms: C_1  and  C_2
REMARK    2  A    between atoms: C_5  and  C_6
REMARK    3  A    between atoms: C_6  and  N_7
REMARK    4  A    between atoms: N_10  and  S_11
REMARK    5  A    between atoms: S_11  and  C_14
REMARK                            x       y       z     vdW  Elec       q    Type
REMARK                         _______ _______ _______ _____ _____    ______ ____
ROOT
ATOM      1  N   UNL     1       1.432   8.386  19.567  0.00  0.00    +0.000 NA
ATOM      2  C   UNL     1       1.444   9.524  18.637  0.00  0.00    +0.000 C 
ATOM      3  C   UNL     1       0.023  10.080  18.573  0.00  0.00    +0.000 C 
ATOM      4  N   UNL     1      -0.420  10.599  19.902  0.00  0.00    +0.000 NA
ATOM      5  C   UNL     1      -0.303   9.485  20.922  0.00  0.00    +0.000 C 
ATOM      6  C   UNL     1       1.111   8.841  20.930  0.00  0.00    +0.000 C 
ENDROOT
BRANCH   4   7
ATOM      7  S   UNL     1       0.238  12.089  20.410  0.00  0.00    +0.000 S 
ATOM      8  O   UNL     1       1.407  11.803  21.221  0.00  0.00    +0.000 OA
ATOM      9  O   UNL     1       0.333  12.974  19.264  0.00  0.00    +0.000 OA
BRANCH   7  10
ATOM     10  C   UNL     1      -1.004  12.764  21.499  0.00  0.00    +0.000 A 
ATOM     11  C   UNL     1      -0.618  13.522  22.608  0.00  0.00    +0.000 A 
ATOM     12  C   UNL     1      -1.598  14.070  23.440  0.00  0.00    +0.000 A 
ATOM     13  C   UNL     1      -2.956  13.879  23.157  0.00  0.00    +0.000 A 
ATOM     14 CL   UNL     1      -4.111  14.618  24.209  0.00  0.00    +0.000 Cl
ATOM     15  C   UNL     1      -3.335  13.115  22.045  0.00  0.00    +0.000 A 
ATOM     16 CL   UNL     1      -4.990  12.868  21.614  0.00  0.00    +0.000 Cl
ATOM     17  C   UNL     1      -2.359  12.541  21.225  0.00  0.00    +0.000 A 
ENDBRANCH   7  10
ENDBRANCH   4   7
BRANCH   1  18
ATOM     18  C   UNL     1       2.615   7.547  19.440  0.00  0.00    +0.000 C 
BRANCH  18  23
ATOM     19  C   UNL     1       0.922   1.992  18.813  0.00  0.00    +0.000 C 
ATOM     20  C   UNL     1       1.335   3.426  18.969  0.00  0.00    +0.000 A 
ATOM     21  C   UNL     1       1.749   4.177  17.863  0.00  0.00    +0.000 A 
ATOM     22  C   UNL     1       2.179   5.496  18.021  0.00  0.00    +0.000 A 
ATOM     23  C   UNL     1       2.205   6.090  19.286  0.00  0.00    +0.000 A 
ATOM     24  C   UNL     1       1.761   5.343  20.389  0.00  0.00    +0.000 A 
ATOM     25  C   UNL     1       1.328   4.023  20.233  0.00  0.00    +0.000 A 
ENDBRANCH  18  23
ENDBRANCH   1  18
TORSDOF 4
ENDMDL
MODEL 4
REMARK VINA RESULT:      -6.9      5.918      9.285
REMARK  Name = 
REMARK  5 active torsions:
REMARK  status: ('A' for Active; 'I' for Inactive)
REMARK    1  A    between atoms: C_1  and  C_2
REMARK    2  A    between atoms: C_5  and  C_6
REMARK    3  A    between atoms: C_6  and  N_7
REMARK    4  A    between atoms: N_10  and  S_11
REMARK    5  A    between atoms: S_11  and  C_14
REMARK                            x       y       z     vdW  Elec       q    Type
REMARK                         _______ _______ _______ _____ _____    ______ ____
ROOT
ATOM      1  N   UNL     1       1.795   6.163  19.958  0.00  0.00    +0.000 NA
ATOM      2  C   UNL     1       1.956   4.992  20.833  0.00  0.00    +0.000 C 
ATOM      3  C   UNL     1       1.228   3.822  20.174  0.00  0.00    +0.000 C 
ATOM      4  N   UNL     1       1.838   3.475  18.855  0.00  0.00    +0.000 NA
ATOM      5  C   UNL     1       1.823   4.707  17.973  0.00  0.00    +0.000 C 
ATOM      6  C   UNL     1       2.472   5.935  18.670  0.00  0.00    +0.000 C 
ENDROOT
BRANCH   4   7
ATOM      7  S   UNL     1       3.331   2.649  18.885  0.00  0.00    +0.000 S 
ATOM      8  O   UNL     1       3.627   2.322  20.268  0.00  0.00    +0.000 OA
ATOM      9  O   UNL     1       3.314   1.615  17.868  0.00  0.00    +0.000 OA
BRANCH   7  10
ATOM     10  C   UNL     1       4.518   3.878  18.371  0.00  0.00    +0.000 A 
ATOM     11  C   UNL     1       5.246   4.585  19.332  0.00  0.00    +0.000 A 
ATOM     12  C   UNL     1       6.194   5.526  18.921  0.00  0.00    +0.000 A 
ATOM     13  C   UNL     1       6.428   5.747  17.557  0.00  0.00    +0.000 A 
ATOM     14 CL   UNL     1       7.641   6.898  17.123  0.00  0.00    +0.000 Cl
ATOM     15  C   UNL     1       5.691   5.036  16.600  0.00  0.00    +0.000 A 
ATOM     16 CL   UNL     1       5.952   5.230  14.903  0.00  0.00    +0.000 Cl
ATOM     17  C   UNL     1       4.722   4.114  17.006  0.00  0.00    +0.000 A 
ENDBRANCH   7  10
ENDBRANCH   4   7
BRANCH   1  18
ATOM     18  C   UNL     1       2.114   7.412  20.632  0.00  0.00    +0.000 C 
BRANCH  18  23
ATOM     19  C   UNL     1      -1.169  11.674  18.358  0.00  0.00    +0.000 C 
ATOM     20  C   UNL     1      -0.343  10.564  18.935  0.00  0.00    +0.000 A 
ATOM     21  C   UNL     1      -0.553  10.120  20.246  0.00  0.00    +0.000 A 
ATOM     22  C   UNL     1       0.252   9.120  20.795  0.00  0.00    +0.000 A 
ATOM     23  C   UNL     1       1.283   8.545  20.046  0.00  0.00    +0.000 A 
ATOM     24  C   UNL     1       1.472   8.973  18.722  0.00  0.00    +0.000 A 
ATOM     25  C   UNL     1       0.667   9.972  18.170  0.00  0.00    +0.000 A 
ENDBRANCH  18  23
ENDBRANCH   1  18
TORSDOF 4
ENDMDL
MODEL 5
REMARK VINA RESULT:      -6.9      1.640      1.922
REMARK  Name = 
REMARK  5 active torsions:
REMARK  status: ('A' for Active; 'I' for Inactive)
REMARK    1  A    between atoms: C_1  and  C_2
REMARK    2  A    between atoms: C_5  and  C_6
REMARK    3  A    between atoms: C_6  and  N_7
REMARK    4  A    between atoms: N_10  and  S_11
REMARK    5  A    between atoms: S_11  and  C_14
REMARK                            x       y       z     vdW  Elec       q    Type
REMARK                         _______ _______ _______ _____ _____    ______ ____
ROOT
ATOM      1  N   UNL     1       1.427   8.418  19.535  0.00  0.00    +0.000 NA
ATOM      2  C   UNL     1       1.401   9.566  18.617  0.00  0.00    +0.000 C 
ATOM      3  C   UNL     1      -0.024  10.114  18.607  0.00  0.00    +0.000 C 
ATOM      4  N   UNL     1      -0.424  10.618  19.955  0.00  0.00    +0.000 NA
ATOM      5  C   UNL     1      -0.268   9.494  20.960  0.00  0.00    +0.000 C 
ATOM      6  C   UNL     1       1.149   8.858  20.913  0.00  0.00    +0.000 C 
ENDROOT
BRANCH   4   7
ATOM      7  S   UNL     1       0.242  12.106  20.456  0.00  0.00    +0.000 S 
ATOM      8  O   UNL     1       1.352  11.817  21.346  0.00  0.00    +0.000 OA
ATOM      9  O   UNL     1       0.430  12.951  19.292  0.00  0.00    +0.000 OA
BRANCH   7  10
ATOM     10  C   UNL     1      -1.043  12.848  21.446  0.00  0.00    +0.000 A 
ATOM     11  C   UNL     1      -2.384  12.644  21.109  0.00  0.00    +0.000 A 
ATOM     12  C   UNL     1      -3.386  13.205  21.907  0.00  0.00    +0.000 A 
ATOM     13  C   UNL     1      -3.051  13.950  23.046  0.00  0.00    +0.000 A 
ATOM     14 CL   UNL     1      -4.343  14.581  24.004  0.00  0.00    +0.000 Cl
ATOM     15  C   UNL     1      -1.704  14.152  23.374  0.00  0.00    +0.000 A 
ATOM     16 CL   UNL     1      -1.218  15.028  24.783  0.00  0.00    +0.000 Cl
ATOM     17  C   UNL     1      -0.698  13.617  22.564  0.00  0.00    +0.000 A 
ENDBRANCH   7  10
ENDBRANCH   4   7
BRANCH   1  18
ATOM     18  C   UNL     1       2.609   7.588  19.359  0.00  0.00    +0.000 C 
BRANCH  18  23
ATOM     19  C   UNL     1       0.932   2.015  18.859  0.00  0.00    +0.000 C 
ATOM     20  C   UNL     1       1.340   3.453  18.983  0.00  0.00    +0.000 A 
ATOM     21  C   UNL     1       1.695   4.198  17.853  0.00  0.00    +0.000 A 
ATOM     22  C   UNL     1       2.122   5.521  17.979  0.00  0.00    +0.000 A 
ATOM     23  C   UNL     1       2.203   6.126  19.238  0.00  0.00    +0.000 A 
ATOM     24  C   UNL     1       1.819   5.384  20.366  0.00  0.00    +0.000 A 
ATOM     25  C   UNL     1       1.390   4.060  20.242  0.00  0.00    +0.000 A 
ENDBRANCH  18  23
ENDBRANCH   1  18
TORSDOF 4
ENDMDL
MODEL 6
REMARK VINA RESULT:      -6.9      0.997      1.635
REMARK  Name = 
REMARK  5 active torsions:
REMARK  status: ('A' for Active; 'I' for Inactive)
REMARK    1  A    between atoms: C_1  and  C_2
REMARK    2  A    between atoms: C_5  and  C_6
REMARK    3  A    between atoms: C_6  and  N_7
REMARK    4  A    between atoms: N_10  and  S_11
REMARK    5  A    between atoms: S_11  and  C_14
REMARK                            x       y       z     vdW  Elec       q    Type
REMARK                         _______ _______ _______ _____ _____    ______ ____
ROOT
ATOM      1  N   UNL     1       1.846   8.321  18.616  0.00  0.00    +0.000 NA
ATOM      2  C   UNL     1       1.436   9.615  18.051  0.00  0.00    +0.000 C 
ATOM      3  C   UNL     1      -0.039   9.817  18.388  0.00  0.00    +0.000 C 
ATOM      4  N   UNL     1      -0.256   9.890  19.865  0.00  0.00    +0.000 NA
ATOM      5  C   UNL     1       0.292   8.629  20.500  0.00  0.00    +0.000 C 
ATOM      6  C   UNL     1       1.765   8.355  20.086  0.00  0.00    +0.000 C 
ENDROOT
BRANCH   4   7
ATOM      7  S   UNL     1       0.214  11.332  20.646  0.00  0.00    +0.000 S 
ATOM      8  O   UNL     1       1.190  10.986  21.663  0.00  0.00    +0.000 OA
ATOM      9  O   UNL     1       0.518  12.333  19.641  0.00  0.00    +0.000 OA
BRANCH   7  10
ATOM     10  C   UNL     1      -1.261  11.867  21.496  0.00  0.00    +0.000 A 
ATOM     11  C   UNL     1      -1.448  11.532  22.840  0.00  0.00    +0.000 A 
ATOM     12  C   UNL     1      -2.593  11.979  23.506  0.00  0.00    +0.000 A 
ATOM     13  C   UNL     1      -3.537  12.772  22.840  0.00  0.00    +0.000 A 
ATOM     14 CL   UNL     1      -4.908  13.319  23.738  0.00  0.00    +0.000 Cl
ATOM     15  C   UNL     1      -3.343  13.100  21.492  0.00  0.00    +0.000 A 
ATOM     16 CL   UNL     1      -4.445  14.105  20.618  0.00  0.00    +0.000 Cl
ATOM     17  C   UNL     1      -2.213  12.633  20.813  0.00  0.00    +0.000 A 
ENDBRANCH   7  10
ENDBRANCH   4   7
BRANCH   1  18
ATOM     18  C   UNL     1       3.102   7.840  18.060  0.00  0.00    +0.000 C 
BRANCH  18  23
ATOM     19  C   UNL     1       3.203   2.002  17.920  0.00  0.00    +0.000 C 
ATOM     20  C   UNL     1       3.181   3.502  17.933  0.00  0.00    +0.000 A 
ATOM     21  C   UNL     1       4.368   4.237  18.032  0.00  0.00    +0.000 A 
ATOM     22  C   UNL     1       4.338   5.631  18.093  0.00  0.00    +0.000 A 
ATOM     23  C   UNL     1       3.121   6.319  18.057  0.00  0.00    +0.000 A 
ATOM     24  C   UNL     1       1.934   5.580  17.928  0.00  0.00    +0.000 A 
ATOM     25  C   UNL     1       1.962   4.184  17.865  0.00  0.00    +0.000 A 
ENDBRANCH  18  23
ENDBRANCH   1  18
TORSDOF 4
ENDMDL
MODEL 7
REMARK VINA RESULT:      -6.8      1.338      1.641
REMARK  Name = 
REMARK  5 active torsions:
REMARK  status: ('A' for Active; 'I' for Inactive)
REMARK    1  A    between atoms: C_1  and  C_2
REMARK    2  A    between atoms: C_5  and  C_6
REMARK    3  A    between atoms: C_6  and  N_7
REMARK    4  A    between atoms: N_10  and  S_11
REMARK    5  A    between atoms: S_11  and  C_14
REMARK                            x       y       z     vdW  Elec       q    Type
REMARK                         _______ _______ _______ _____ _____    ______ ____
ROOT
ATOM      1  N   UNL     1       1.436   8.362  19.575  0.00  0.00    +0.000 NA
ATOM      2  C   UNL     1       1.461   9.499  18.644  0.00  0.00    +0.000 C 
ATOM      3  C   UNL     1       0.045  10.067  18.574  0.00  0.00    +0.000 C 
ATOM      4  N   UNL     1      -0.398  10.592  19.900  0.00  0.00    +0.000 NA
ATOM      5  C   UNL     1      -0.295   9.478  20.923  0.00  0.00    +0.000 C 
ATOM      6  C   UNL     1       1.114   8.822  20.936  0.00  0.00    +0.000 C 
ENDROOT
BRANCH   4   7
ATOM      7  S   UNL     1       0.271  12.077  20.409  0.00  0.00    +0.000 S 
ATOM      8  O   UNL     1       1.190  11.798  21.498  0.00  0.00    +0.000 OA
ATOM      9  O   UNL     1       0.712  12.816  19.242  0.00  0.00    +0.000 OA
BRANCH   7  10
ATOM     10  C   UNL     1      -1.113  12.961  21.105  0.00  0.00    +0.000 A 
ATOM     11  C   UNL     1      -1.542  14.154  20.516  0.00  0.00    +0.000 A 
ATOM     12  C   UNL     1      -2.646  14.826  21.050  0.00  0.00    +0.000 A 
ATOM     13  C   UNL     1      -3.328  14.301  22.156  0.00  0.00    +0.000 A 
ATOM     14 CL   UNL     1      -4.705  15.168  22.739  0.00  0.00    +0.000 Cl
ATOM     15  C   UNL     1      -2.888  13.107  22.743  0.00  0.00    +0.000 A 
ATOM     16 CL   UNL     1      -3.702  12.383  24.084  0.00  0.00    +0.000 Cl
ATOM     17  C   UNL     1      -1.769  12.445  22.229  0.00  0.00    +0.000 A 
ENDBRANCH   7  10
ENDBRANCH   4   7
BRANCH   1  18
ATOM     18  C   UNL     1       2.611   7.513  19.453  0.00  0.00    +0.000 C 
BRANCH  18  23
ATOM     19  C   UNL     1       0.873   1.970  18.847  0.00  0.00    +0.000 C 
ATOM     20  C   UNL     1       1.297   3.400  18.997  0.00  0.00    +0.000 A 
ATOM     21  C   UNL     1       1.719   4.144  17.888  0.00  0.00    +0.000 A 
ATOM     22  C   UNL     1       2.161   5.459  18.041  0.00  0.00    +0.000 A 
ATOM     23  C   UNL     1       2.189   6.058  19.305  0.00  0.00    +0.000 A 
ATOM     24  C   UNL     1       1.738   5.319  20.410  0.00  0.00    +0.000 A 
ATOM     25  C   UNL     1       1.294   4.003  20.259  0.00  0.00    +0.000 A 
ENDBRANCH  18  23
ENDBRANCH   1  18
TORSDOF 4
ENDMDL
MODEL 8
REMARK VINA RESULT:      -6.8      5.845      9.511
REMARK  Name = 
REMARK  5 active torsions:
REMARK  status: ('A' for Active; 'I' for Inactive)
REMARK    1  A    between atoms: C_1  and  C_2
REMARK    2  A    between atoms: C_5  and  C_6
REMARK    3  A    between atoms: C_6  and  N_7
REMARK    4  A    between atoms: N_10  and  S_11
REMARK    5  A    between atoms: S_11  and  C_14
REMARK                            x       y       z     vdW  Elec       q    Type
REMARK                         _______ _______ _______ _____ _____    ______ ____
ROOT
ATOM      1  N   UNL     1       1.705   6.398  20.035  0.00  0.00    +0.000 NA
ATOM      2  C   UNL     1       1.609   5.199  20.881  0.00  0.00    +0.000 C 
ATOM      3  C   UNL     1       0.978   4.092  20.039  0.00  0.00    +0.000 C 
ATOM      4  N   UNL     1       1.839   3.740  18.869  0.00  0.00    +0.000 NA
ATOM      5  C   UNL     1       2.082   4.992  18.051  0.00  0.00    +0.000 C 
ATOM      6  C   UNL     1       2.630   6.161  18.915  0.00  0.00    +0.000 C 
ENDROOT
BRANCH   4   7
ATOM      7  S   UNL     1       3.243   2.824  19.188  0.00  0.00    +0.000 S 
ATOM      8  O   UNL     1       3.664   3.119  20.545  0.00  0.00    +0.000 OA
ATOM      9  O   UNL     1       3.015   1.455  18.766  0.00  0.00    +0.000 OA
BRANCH   7  10
ATOM     10  C   UNL     1       4.471   3.518  18.095  0.00  0.00    +0.000 A 
ATOM     11  C   UNL     1       4.347   3.349  16.714  0.00  0.00    +0.000 A 
ATOM     12  C   UNL     1       5.299   3.920  15.863  0.00  0.00    +0.000 A 
ATOM     13  C   UNL     1       6.358   4.670  16.388  0.00  0.00    +0.000 A 
ATOM     14 CL   UNL     1       7.475   5.377  15.275  0.00  0.00    +0.000 Cl
ATOM     15  C   UNL     1       6.478   4.832  17.775  0.00  0.00    +0.000 A 
ATOM     16 CL   UNL     1       7.737   5.775  18.491  0.00  0.00    +0.000 Cl
ATOM     17  C   UNL     1       5.544   4.240  18.631  0.00  0.00    +0.000 A 
ENDBRANCH   7  10
ENDBRANCH   4   7
BRANCH   1  18
ATOM     18  C   UNL     1       1.937   7.609  20.807  0.00  0.00    +0.000 C 
BRANCH  18  23
ATOM     19  C   UNL     1      -1.171  11.969  18.474  0.00  0.00    +0.000 C 
ATOM     20  C   UNL     1      -0.390  10.834  19.066  0.00  0.00    +0.000 A 
ATOM     21  C   UNL     1      -0.649  10.385  20.367  0.00  0.00    +0.000 A 
ATOM     22  C   UNL     1       0.114   9.362  20.931  0.00  0.00    +0.000 A 
ATOM     23  C   UNL     1       1.153   8.766  20.207  0.00  0.00    +0.000 A 
ATOM     24  C   UNL     1       1.391   9.199  18.893  0.00  0.00    +0.000 A 
ATOM     25  C   UNL     1       0.627  10.222  18.326  0.00  0.00    +0.000 A 
ENDBRANCH  18  23
ENDBRANCH   1  18
TORSDOF 4
ENDMDL
MODEL 9
REMARK VINA RESULT:      -6.7      6.366     10.042
REMARK  Name = 
REMARK  5 active torsions:
REMARK  status: ('A' for Active; 'I' for Inactive)
REMARK    1  A    between atoms: C_1  and  C_2
REMARK    2  A    between atoms: C_5  and  C_6
REMARK    3  A    between atoms: C_6  and  N_7
REMARK    4  A    between atoms: N_10  and  S_11
REMARK    5  A    between atoms: S_11  and  C_14
REMARK                            x       y       z     vdW  Elec       q    Type
REMARK                         _______ _______ _______ _____ _____    ______ ____
ROOT
ATOM      1  N   UNL     1       1.927   6.698  20.033  0.00  0.00    +0.000 NA
ATOM      2  C   UNL     1       1.907   5.255  20.314  0.00  0.00    +0.000 C 
ATOM      3  C   UNL     1       1.683   4.532  18.988  0.00  0.00    +0.000 C 
ATOM      4  N   UNL     1       2.806   4.781  18.034  0.00  0.00    +0.000 NA
ATOM      5  C   UNL     1       2.951   6.276  17.835  0.00  0.00    +0.000 C 
ATOM      6  C   UNL     1       3.080   7.038  19.183  0.00  0.00    +0.000 C 
ENDROOT
BRANCH   4   7
ATOM      7  S   UNL     1       4.274   3.965  18.336  0.00  0.00    +0.000 S 
ATOM      8  O   UNL     1       4.899   4.591  19.487  0.00  0.00    +0.000 OA
ATOM      9  O   UNL     1       4.029   2.536  18.314  0.00  0.00    +0.000 OA
BRANCH   7  10
ATOM     10  C   UNL     1       5.285   4.351  16.917  0.00  0.00    +0.000 A 
ATOM     11  C   UNL     1       6.515   4.991  17.094  0.00  0.00    +0.000 A 
ATOM     12  C   UNL     1       7.314   5.264  15.979  0.00  0.00    +0.000 A 
ATOM     13  C   UNL     1       6.895   4.885  14.697  0.00  0.00    +0.000 A 
ATOM     14 CL   UNL     1       7.951   5.222  13.372  0.00  0.00    +0.000 Cl
ATOM     15  C   UNL     1       5.659   4.247  14.529  0.00  0.00    +0.000 A 
ATOM     16 CL   UNL     1       5.096   3.718  12.983  0.00  0.00    +0.000 Cl
ATOM     17  C   UNL     1       4.844   3.996  15.636  0.00  0.00    +0.000 A 
ENDBRANCH   7  10
ENDBRANCH   4   7
BRANCH   1  18
ATOM     18  C   UNL     1       1.763   7.504  21.233  0.00  0.00    +0.000 C 
BRANCH  18  23
ATOM     19  C   UNL     1      -1.448  12.244  20.079  0.00  0.00    +0.000 C 
ATOM     20  C   UNL     1      -0.605  11.041  20.380  0.00  0.00    +0.000 A 
ATOM     21  C   UNL     1       0.169  10.439  19.380  0.00  0.00    +0.000 A 
ATOM     22  C   UNL     1       0.913   9.290  19.653  0.00  0.00    +0.000 A 
ATOM     23  C   UNL     1       0.899   8.719  20.929  0.00  0.00    +0.000 A 
ATOM     24  C   UNL     1       0.145   9.342  21.937  0.00  0.00    +0.000 A 
ATOM     25  C   UNL     1      -0.599  10.494  21.667  0.00  0.00    +0.000 A 
ENDBRANCH  18  23
ENDBRANCH   1  18
TORSDOF 4
ENDMDL
