MODEL 1
REMARK VINA RESULT:      -9.1      0.000      0.000
REMARK  Name = 
REMARK  7 active torsions:
REMARK  status: ('A' for Active; 'I' for Inactive)
REMARK    1  A    between atoms: C_1  and  C_2
REMARK    2  A    between atoms: C_2  and  C_3
REMARK    3  A    between atoms: C_3  and  N_4
REMARK    4  A    between atoms: C_9  and  C_11
REMARK    5  A    between atoms: C_13  and  C_14
REMARK    6  A    between atoms: C_14  and  C_15
REMARK    7  A    between atoms: C_18  and  O_19
REMARK                            x       y       z     vdW  Elec       q    Type
REMARK                         _______ _______ _______ _____ _____    ______ ____
ROOT
ATOM      1  C   UNL     1       2.871   4.365  18.497  0.00  0.00    +0.000 A 
ATOM      2  C   UNL     1       2.983   5.492  19.320  0.00  0.00    +0.000 A 
ATOM      3  C   UNL     1       2.020   5.792  20.297  0.00  0.00    +0.000 A 
ATOM      4  C   UNL     1       1.025   4.845  20.561  0.00  0.00    +0.000 A 
ATOM      5  C   UNL     1       1.001   3.637  19.859  0.00  0.00    +0.000 A 
ATOM      6  C   UNL     1       1.909   3.409  18.826  0.00  0.00    +0.000 A 
ATOM      7  F   UNL     1       1.817   2.245  18.165  0.00  0.00    +0.000 F 
ENDROOT
BRANCH   1  13
ATOM      8  N   UNL     1       7.507   5.997  18.062  0.00  0.00    +0.000 NA
ATOM      9  C   UNL     1       6.873   6.255  16.751  0.00  0.00    +0.000 C 
ATOM     10  C   UNL     1       6.759   5.037  15.829  0.00  0.00    +0.000 C 
ATOM     11  C   UNL     1       5.972   3.813  16.297  0.00  0.00    +0.000 C 
ATOM     12  N   UNL     1       5.156   3.997  17.493  0.00  0.00    +0.000 N 
ATOM     13  C   UNL     1       3.771   4.142  17.328  0.00  0.00    +0.000 C 
ATOM     14  O   UNL     1       3.238   4.100  16.215  0.00  0.00    +0.000 OA
ATOM     15  C   UNL     1       5.949   4.114  18.724  0.00  0.00    +0.000 C 
ATOM     16  C   UNL     1       6.497   5.508  19.020  0.00  0.00    +0.000 C 
BRANCH   8  17
ATOM     17  C   UNL     1       8.122   7.249  18.571  0.00  0.00    +0.000 C 
BRANCH  17  19
ATOM     18  C   UNL     1       8.634   9.736  18.209  0.00  0.00    +0.000 C 
ATOM     19  C   UNL     1       7.869   8.513  17.726  0.00  0.00    +0.000 C 
ENDBRANCH  17  19
ENDBRANCH   8  17
ENDBRANCH   1  13
BRANCH   3  20
ATOM     20  C   UNL     1       2.097   7.114  21.036  0.00  0.00    +0.000 C 
BRANCH  20  21
ATOM     21  C   UNL     1       1.423   8.291  20.353  0.00  0.00    +0.000 A 
ATOM     22  N   UNL     1       1.699   8.430  19.026  0.00  0.00    +0.000 NA
ATOM     23  N   UNL     1       1.227   9.500  18.330  0.00  0.00    +0.000 NA
ATOM     24  C   UNL     1       0.468  10.406  18.967  0.00  0.00    +0.000 A 
ATOM     25  C   UNL     1       0.107  10.320  20.307  0.00  0.00    +0.000 A 
ATOM     26  C   UNL     1      -0.716  11.280  20.941  0.00  0.00    +0.000 A 
ATOM     27  C   UNL     1      -1.050  11.160  22.287  0.00  0.00    +0.000 A 
ATOM     28  C   UNL     1      -0.549  10.097  23.026  0.00  0.00    +0.000 A 
ATOM     29  C   UNL     1       0.280   9.151  22.413  0.00  0.00    +0.000 A 
ATOM     30  C   UNL     1       0.610   9.225  21.040  0.00  0.00    +0.000 A 
BRANCH  24  31
ATOM     31  O   UNL     1       0.084  11.466  18.194  0.00  0.00    +0.000 OA
ATOM     32  H   UNL     1       0.291  12.217  18.777  0.00  0.00    +0.000 HD
ENDBRANCH  24  31
ENDBRANCH  20  21
ENDBRANCH   3  20
TORSDOF 6
ENDMDL
MODEL 2
REMARK VINA RESULT:      -9.1      2.277      3.407
REMARK  Name = 
REMARK  7 active torsions:
REMARK  status: ('A' for Active; 'I' for Inactive)
REMARK    1  A    between atoms: C_1  and  C_2
REMARK    2  A    between atoms: C_2  and  C_3
REMARK    3  A    between atoms: C_3  and  N_4
REMARK    4  A    between atoms: C_9  and  C_11
REMARK    5  A    between atoms: C_13  and  C_14
REMARK    6  A    between atoms: C_14  and  C_15
REMARK    7  A    between atoms: C_18  and  O_19
REMARK                            x       y       z     vdW  Elec       q    Type
REMARK                         _______ _______ _______ _____ _____    ______ ____
ROOT
ATOM      1  C   UNL     1       1.947   6.407  19.128  0.00  0.00    +0.000 A 
ATOM      2  C   UNL     1       2.048   7.647  18.487  0.00  0.00    +0.000 A 
ATOM      3  C   UNL     1       1.602   8.832  19.096  0.00  0.00    +0.000 A 
ATOM      4  C   UNL     1       1.208   8.782  20.437  0.00  0.00    +0.000 A 
ATOM      5  C   UNL     1       1.261   7.575  21.140  0.00  0.00    +0.000 A 
ATOM      6  C   UNL     1       1.614   6.397  20.483  0.00  0.00    +0.000 A 
ATOM      7  F   UNL     1       1.616   5.263  21.201  0.00  0.00    +0.000 F 
ENDROOT
BRANCH   1  13
ATOM      8  N   UNL     1       6.417   4.527  18.213  0.00  0.00    +0.000 NA
ATOM      9  C   UNL     1       5.647   4.341  16.964  0.00  0.00    +0.000 C 
ATOM     10  C   UNL     1       4.676   3.156  16.966  0.00  0.00    +0.000 C 
ATOM     11  C   UNL     1       3.557   3.103  18.008  0.00  0.00    +0.000 C 
ATOM     12  N   UNL     1       3.333   4.330  18.766  0.00  0.00    +0.000 N 
ATOM     13  C   UNL     1       2.229   5.123  18.422  0.00  0.00    +0.000 C 
ATOM     14  O   UNL     1       1.449   4.800  17.522  0.00  0.00    +0.000 OA
ATOM     15  C   UNL     1       4.397   4.614  19.738  0.00  0.00    +0.000 C 
ATOM     16  C   UNL     1       5.627   5.321  19.175  0.00  0.00    +0.000 C 
BRANCH   8  17
ATOM     17  C   UNL     1       7.692   5.223  17.911  0.00  0.00    +0.000 C 
BRANCH  17  19
ATOM     18  C   UNL     1       7.760   7.765  17.569  0.00  0.00    +0.000 C 
ATOM     19  C   UNL     1       7.868   6.612  18.557  0.00  0.00    +0.000 C 
ENDBRANCH  17  19
ENDBRANCH   8  17
ENDBRANCH   1  13
BRANCH   3  20
ATOM     20  C   UNL     1       1.571  10.116  18.290  0.00  0.00    +0.000 C 
BRANCH  20  21
ATOM     21  C   UNL     1       0.464  11.093  18.646  0.00  0.00    +0.000 A 
ATOM     22  N   UNL     1       0.848  12.156  19.405  0.00  0.00    +0.000 NA
ATOM     23  N   UNL     1      -0.073  13.047  19.864  0.00  0.00    +0.000 NA
ATOM     24  C   UNL     1      -1.364  12.872  19.538  0.00  0.00    +0.000 A 
ATOM     25  C   UNL     1      -1.835  11.839  18.736  0.00  0.00    +0.000 A 
ATOM     26  C   UNL     1      -3.199  11.698  18.391  0.00  0.00    +0.000 A 
ATOM     27  C   UNL     1      -3.631  10.646  17.590  0.00  0.00    +0.000 A 
ATOM     28  C   UNL     1      -2.714   9.704  17.143  0.00  0.00    +0.000 A 
ATOM     29  C   UNL     1      -1.366   9.822  17.492  0.00  0.00    +0.000 A 
ATOM     30  C   UNL     1      -0.889  10.899  18.276  0.00  0.00    +0.000 A 
BRANCH  24  31
ATOM     31  O   UNL     1      -2.215  13.791  20.085  0.00  0.00    +0.000 OA
ATOM     32  H   UNL     1      -3.063  13.315  20.052  0.00  0.00    +0.000 HD
ENDBRANCH  24  31
ENDBRANCH  20  21
ENDBRANCH   3  20
TORSDOF 6
ENDMDL
MODEL 3
REMARK VINA RESULT:      -8.5      1.208      1.334
REMARK  Name = 
REMARK  7 active torsions:
REMARK  status: ('A' for Active; 'I' for Inactive)
REMARK    1  A    between atoms: C_1  and  C_2
REMARK    2  A    between atoms: C_2  and  C_3
REMARK    3  A    between atoms: C_3  and  N_4
REMARK    4  A    between atoms: C_9  and  C_11
REMARK    5  A    between atoms: C_13  and  C_14
REMARK    6  A    between atoms: C_14  and  C_15
REMARK    7  A    between atoms: C_18  and  O_19
REMARK                            x       y       z     vdW  Elec       q    Type
REMARK                         _______ _______ _______ _____ _____    ______ ____
ROOT
ATOM      1  C   UNL     1       3.275   3.886  18.897  0.00  0.00    +0.000 A 
ATOM      2  C   UNL     1       2.827   5.085  19.463  0.00  0.00    +0.000 A 
ATOM      3  C   UNL     1       2.188   5.119  20.714  0.00  0.00    +0.000 A 
ATOM      4  C   UNL     1       2.158   3.946  21.476  0.00  0.00    +0.000 A 
ATOM      5  C   UNL     1       2.752   2.778  20.990  0.00  0.00    +0.000 A 
ATOM      6  C   UNL     1       3.292   2.748  19.705  0.00  0.00    +0.000 A 
ATOM      7  F   UNL     1       3.819   1.590  19.280  0.00  0.00    +0.000 F 
ENDROOT
BRANCH   1  13
ATOM      8  N   UNL     1       6.892   6.619  16.949  0.00  0.00    +0.000 NA
ATOM      9  C   UNL     1       5.822   6.595  15.928  0.00  0.00    +0.000 C 
ATOM     10  C   UNL     1       5.749   5.317  15.087  0.00  0.00    +0.000 C 
ATOM     11  C   UNL     1       5.520   3.974  15.780  0.00  0.00    +0.000 C 
ATOM     12  N   UNL     1       5.119   4.039  17.182  0.00  0.00    +0.000 N 
ATOM     13  C   UNL     1       3.772   3.808  17.492  0.00  0.00    +0.000 C 
ATOM     14  O   UNL     1       2.939   3.537  16.622  0.00  0.00    +0.000 OA
ATOM     15  C   UNL     1       6.206   4.459  18.077  0.00  0.00    +0.000 C 
ATOM     16  C   UNL     1       6.420   5.967  18.185  0.00  0.00    +0.000 C 
BRANCH   8  17
ATOM     17  C   UNL     1       7.275   8.024  17.234  0.00  0.00    +0.000 C 
BRANCH  17  19
ATOM     18  C   UNL     1       8.770   9.667  18.517  0.00  0.00    +0.000 C 
ATOM     19  C   UNL     1       8.332   8.221  18.339  0.00  0.00    +0.000 C 
ENDBRANCH  17  19
ENDBRANCH   8  17
ENDBRANCH   1  13
BRANCH   3  20
ATOM     20  C   UNL     1       1.566   6.414  21.197  0.00  0.00    +0.000 C 
BRANCH  20  21
ATOM     21  C   UNL     1       1.541   7.550  20.189  0.00  0.00    +0.000 A 
ATOM     22  N   UNL     1       2.210   7.312  19.027  0.00  0.00    +0.000 NA
ATOM     23  N   UNL     1       2.335   8.290  18.088  0.00  0.00    +0.000 NA
ATOM     24  C   UNL     1       1.770   9.486  18.317  0.00  0.00    +0.000 A 
ATOM     25  C   UNL     1       1.036   9.799  19.456  0.00  0.00    +0.000 A 
ATOM     26  C   UNL     1       0.431  11.062  19.654  0.00  0.00    +0.000 A 
ATOM     27  C   UNL     1      -0.291  11.337  20.811  0.00  0.00    +0.000 A 
ATOM     28  C   UNL     1      -0.399  10.368  21.799  0.00  0.00    +0.000 A 
ATOM     29  C   UNL     1       0.210   9.122  21.622  0.00  0.00    +0.000 A 
ATOM     30  C   UNL     1       0.921   8.798  20.443  0.00  0.00    +0.000 A 
BRANCH  24  31
ATOM     31  O   UNL     1       1.991  10.413  17.337  0.00  0.00    +0.000 OA
ATOM     32  H   UNL     1       1.948  11.244  17.842  0.00  0.00    +0.000 HD
ENDBRANCH  24  31
ENDBRANCH  20  21
ENDBRANCH   3  20
TORSDOF 6
ENDMDL
MODEL 4
REMARK VINA RESULT:      -8.4      3.203      8.208
REMARK  Name = 
REMARK  7 active torsions:
REMARK  status: ('A' for Active; 'I' for Inactive)
REMARK    1  A    between atoms: C_1  and  C_2
REMARK    2  A    between atoms: C_2  and  C_3
REMARK    3  A    between atoms: C_3  and  N_4
REMARK    4  A    between atoms: C_9  and  C_11
REMARK    5  A    between atoms: C_13  and  C_14
REMARK    6  A    between atoms: C_14  and  C_15
REMARK    7  A    between atoms: C_18  and  O_19
REMARK                            x       y       z     vdW  Elec       q    Type
REMARK                         _______ _______ _______ _____ _____    ______ ____
ROOT
ATOM      1  C   UNL     1       0.578   9.649  19.340  0.00  0.00    +0.000 A 
ATOM      2  C   UNL     1       1.330   8.811  18.508  0.00  0.00    +0.000 A 
ATOM      3  C   UNL     1       2.146   7.793  19.027  0.00  0.00    +0.000 A 
ATOM      4  C   UNL     1       2.066   7.509  20.394  0.00  0.00    +0.000 A 
ATOM      5  C   UNL     1       1.191   8.232  21.210  0.00  0.00    +0.000 A 
ATOM      6  C   UNL     1       0.466   9.302  20.687  0.00  0.00    +0.000 A 
ATOM      7  F   UNL     1      -0.332   9.980  21.525  0.00  0.00    +0.000 F 
ENDROOT
BRANCH   1  13
ATOM      8  N   UNL     1       1.575  14.332  20.533  0.00  0.00    +0.000 NA
ATOM      9  C   UNL     1       0.100  14.224  20.557  0.00  0.00    +0.000 C 
ATOM     10  C   UNL     1      -0.581  14.267  19.186  0.00  0.00    +0.000 C 
ATOM     11  C   UNL     1      -0.229  13.208  18.139  0.00  0.00    +0.000 C 
ATOM     12  N   UNL     1       0.543  12.067  18.621  0.00  0.00    +0.000 N 
ATOM     13  C   UNL     1      -0.132  10.855  18.821  0.00  0.00    +0.000 C 
ATOM     14  O   UNL     1      -1.338  10.731  18.586  0.00  0.00    +0.000 OA
ATOM     15  C   UNL     1       1.938  12.401  18.936  0.00  0.00    +0.000 C 
ATOM     16  C   UNL     1       2.172  12.999  20.321  0.00  0.00    +0.000 C 
BRANCH   8  17
ATOM     17  C   UNL     1       2.052  14.900  21.819  0.00  0.00    +0.000 C 
BRANCH  17  19
ATOM     18  C   UNL     1       2.307  17.212  20.737  0.00  0.00    +0.000 C 
ATOM     19  C   UNL     1       1.900  16.427  21.975  0.00  0.00    +0.000 C 
ENDBRANCH  17  19
ENDBRANCH   8  17
ENDBRANCH   1  13
BRANCH   3  20
ATOM     20  C   UNL     1       3.072   7.034  18.096  0.00  0.00    +0.000 C 
BRANCH  20  21
ATOM     21  C   UNL     1       3.545   5.680  18.595  0.00  0.00    +0.000 A 
ATOM     22  N   UNL     1       4.857   5.619  18.955  0.00  0.00    +0.000 NA
ATOM     23  N   UNL     1       5.417   4.436  19.330  0.00  0.00    +0.000 NA
ATOM     24  C   UNL     1       4.650   3.335  19.358  0.00  0.00    +0.000 A 
ATOM     25  C   UNL     1       3.295   3.317  19.045  0.00  0.00    +0.000 A 
ATOM     26  C   UNL     1       2.510   2.143  19.110  0.00  0.00    +0.000 A 
ATOM     27  C   UNL     1       1.157   2.166  18.783  0.00  0.00    +0.000 A 
ATOM     28  C   UNL     1       0.575   3.354  18.361  0.00  0.00    +0.000 A 
ATOM     29  C   UNL     1       1.345   4.517  18.276  0.00  0.00    +0.000 A 
ATOM     30  C   UNL     1       2.713   4.535  18.635  0.00  0.00    +0.000 A 
BRANCH  24  31
ATOM     31  O   UNL     1       5.315   2.191  19.701  0.00  0.00    +0.000 OA
ATOM     32  H   UNL     1       5.014   2.057  20.617  0.00  0.00    +0.000 HD
ENDBRANCH  24  31
ENDBRANCH  20  21
ENDBRANCH   3  20
TORSDOF 6
ENDMDL
MODEL 5
REMARK VINA RESULT:      -8.4      1.905      2.811
REMARK  Name = 
REMARK  7 active torsions:
REMARK  status: ('A' for Active; 'I' for Inactive)
REMARK    1  A    between atoms: C_1  and  C_2
REMARK    2  A    between atoms: C_2  and  C_3
REMARK    3  A    between atoms: C_3  and  N_4
REMARK    4  A    between atoms: C_9  and  C_11
REMARK    5  A    between atoms: C_13  and  C_14
REMARK    6  A    between atoms: C_14  and  C_15
REMARK    7  A    between atoms: C_18  and  O_19
REMARK                            x       y       z     vdW  Elec       q    Type
REMARK                         _______ _______ _______ _____ _____    ______ ____
ROOT
ATOM      1  C   UNL     1       1.979   6.308  19.221  0.00  0.00    +0.000 A 
ATOM      2  C   UNL     1       1.962   7.608  18.702  0.00  0.00    +0.000 A 
ATOM      3  C   UNL     1       1.445   8.689  19.434  0.00  0.00    +0.000 A 
ATOM      4  C   UNL     1       1.100   8.480  20.774  0.00  0.00    +0.000 A 
ATOM      5  C   UNL     1       1.270   7.219  21.354  0.00  0.00    +0.000 A 
ATOM      6  C   UNL     1       1.692   6.141  20.576  0.00  0.00    +0.000 A 
ATOM      7  F   UNL     1       1.805   4.948  21.179  0.00  0.00    +0.000 F 
ENDROOT
BRANCH   1  13
ATOM      8  N   UNL     1       6.507   5.140  17.644  0.00  0.00    +0.000 NA
ATOM      9  C   UNL     1       5.617   4.926  16.483  0.00  0.00    +0.000 C 
ATOM     10  C   UNL     1       4.819   3.619  16.502  0.00  0.00    +0.000 C 
ATOM     11  C   UNL     1       3.858   3.342  17.659  0.00  0.00    +0.000 C 
ATOM     12  N   UNL     1       3.571   4.475  18.534  0.00  0.00    +0.000 N 
ATOM     13  C   UNL     1       2.337   5.124  18.386  0.00  0.00    +0.000 C 
ATOM     14  O   UNL     1       1.498   4.752  17.559  0.00  0.00    +0.000 OA
ATOM     15  C   UNL     1       4.702   4.844  19.396  0.00  0.00    +0.000 C 
ATOM     16  C   UNL     1       5.747   5.752  18.752  0.00  0.00    +0.000 C 
BRANCH   8  17
ATOM     17  C   UNL     1       7.630   6.027  17.253  0.00  0.00    +0.000 C 
BRANCH  17  19
ATOM     18  C   UNL     1       7.902   8.548  17.642  0.00  0.00    +0.000 C 
ATOM     19  C   UNL     1       7.974   7.153  18.248  0.00  0.00    +0.000 C 
ENDBRANCH  17  19
ENDBRANCH   8  17
ENDBRANCH   1  13
BRANCH   3  20
ATOM     20  C   UNL     1       1.288  10.037  18.759  0.00  0.00    +0.000 C 
BRANCH  20  21
ATOM     21  C   UNL     1      -0.125  10.591  18.710  0.00  0.00    +0.000 A 
ATOM     22  N   UNL     1      -0.879  10.168  17.658  0.00  0.00    +0.000 NA
ATOM     23  N   UNL     1      -2.129  10.668  17.458  0.00  0.00    +0.000 NA
ATOM     24  C   UNL     1      -2.615  11.569  18.326  0.00  0.00    +0.000 A 
ATOM     25  C   UNL     1      -1.929  12.025  19.446  0.00  0.00    +0.000 A 
ATOM     26  C   UNL     1      -2.480  12.957  20.356  0.00  0.00    +0.000 A 
ATOM     27  C   UNL     1      -1.757  13.391  21.463  0.00  0.00    +0.000 A 
ATOM     28  C   UNL     1      -0.466  12.923  21.665  0.00  0.00    +0.000 A 
ATOM     29  C   UNL     1       0.096  12.015  20.763  0.00  0.00    +0.000 A 
ATOM     30  C   UNL     1      -0.624  11.527  19.648  0.00  0.00    +0.000 A 
BRANCH  24  31
ATOM     31  O   UNL     1      -3.857  12.045  18.012  0.00  0.00    +0.000 OA
ATOM     32  H   UNL     1      -4.173  11.369  17.388  0.00  0.00    +0.000 HD
ENDBRANCH  24  31
ENDBRANCH  20  21
ENDBRANCH   3  20
TORSDOF 6
ENDMDL
MODEL 6
REMARK VINA RESULT:      -8.3      3.187      8.508
REMARK  Name = 
REMARK  7 active torsions:
REMARK  status: ('A' for Active; 'I' for Inactive)
REMARK    1  A    between atoms: C_1  and  C_2
REMARK    2  A    between atoms: C_2  and  C_3
REMARK    3  A    between atoms: C_3  and  N_4
REMARK    4  A    between atoms: C_9  and  C_11
REMARK    5  A    between atoms: C_13  and  C_14
REMARK    6  A    between atoms: C_14  and  C_15
REMARK    7  A    between atoms: C_18  and  O_19
REMARK                            x       y       z     vdW  Elec       q    Type
REMARK                         _______ _______ _______ _____ _____    ______ ____
ROOT
ATOM      1  C   UNL     1       0.678   9.539  19.080  0.00  0.00    +0.000 A 
ATOM      2  C   UNL     1       1.499   8.691  18.327  0.00  0.00    +0.000 A 
ATOM      3  C   UNL     1       2.295   7.706  18.932  0.00  0.00    +0.000 A 
ATOM      4  C   UNL     1       2.127   7.462  20.299  0.00  0.00    +0.000 A 
ATOM      5  C   UNL     1       1.187   8.192  21.031  0.00  0.00    +0.000 A 
ATOM      6  C   UNL     1       0.481   9.232  20.427  0.00  0.00    +0.000 A 
ATOM      7  F   UNL     1      -0.385   9.919  21.187  0.00  0.00    +0.000 F 
ENDROOT
BRANCH   1  13
ATOM      8  N   UNL     1       0.282  14.022  21.105  0.00  0.00    +0.000 NA
ATOM      9  C   UNL     1      -1.056  13.718  20.554  0.00  0.00    +0.000 C 
ATOM     10  C   UNL     1      -1.201  13.916  19.042  0.00  0.00    +0.000 C 
ATOM     11  C   UNL     1      -0.308  13.119  18.091  0.00  0.00    +0.000 C 
ATOM     12  N   UNL     1       0.444  12.021  18.692  0.00  0.00    +0.000 N 
ATOM     13  C   UNL     1      -0.016  10.715  18.476  0.00  0.00    +0.000 C 
ATOM     14  O   UNL     1      -1.013  10.478  17.788  0.00  0.00    +0.000 OA
ATOM     15  C   UNL     1       1.547  12.474  19.550  0.00  0.00    +0.000 C 
ATOM     16  C   UNL     1       1.156  12.839  20.980  0.00  0.00    +0.000 C 
BRANCH   8  17
ATOM     17  C   UNL     1       0.156  14.407  22.533  0.00  0.00    +0.000 C 
BRANCH  17  19
ATOM     18  C   UNL     1      -1.371  14.853  24.546  0.00  0.00    +0.000 C 
ATOM     19  C   UNL     1      -1.257  14.284  23.139  0.00  0.00    +0.000 C 
ENDBRANCH  17  19
ENDBRANCH   8  17
ENDBRANCH   1  13
BRANCH   3  20
ATOM     20  C   UNL     1       3.295   6.937  18.090  0.00  0.00    +0.000 C 
BRANCH  20  21
ATOM     21  C   UNL     1       3.695   5.572  18.622  0.00  0.00    +0.000 A 
ATOM     22  N   UNL     1       4.985   5.467  19.044  0.00  0.00    +0.000 NA
ATOM     23  N   UNL     1       5.484   4.269  19.454  0.00  0.00    +0.000 NA
ATOM     24  C   UNL     1       4.677   3.196  19.457  0.00  0.00    +0.000 A 
ATOM     25  C   UNL     1       3.338   3.224  19.081  0.00  0.00    +0.000 A 
ATOM     26  C   UNL     1       2.508   2.080  19.120  0.00  0.00    +0.000 A 
ATOM     27  C   UNL     1       1.173   2.149  18.730  0.00  0.00    +0.000 A 
ATOM     28  C   UNL     1       0.655   3.352  18.272  0.00  0.00    +0.000 A 
ATOM     29  C   UNL     1       1.471   4.486  18.212  0.00  0.00    +0.000 A 
ATOM     30  C   UNL     1       2.820   4.458  18.634  0.00  0.00    +0.000 A 
BRANCH  24  31
ATOM     31  O   UNL     1       5.282   2.032  19.840  0.00  0.00    +0.000 OA
ATOM     32  H   UNL     1       5.276   2.119  20.809  0.00  0.00    +0.000 HD
ENDBRANCH  24  31
ENDBRANCH  20  21
ENDBRANCH   3  20
TORSDOF 6
ENDMDL
MODEL 7
REMARK VINA RESULT:      -8.3      3.366      8.169
REMARK  Name = 
REMARK  7 active torsions:
REMARK  status: ('A' for Active; 'I' for Inactive)
REMARK    1  A    between atoms: C_1  and  C_2
REMARK    2  A    between atoms: C_2  and  C_3
REMARK    3  A    between atoms: C_3  and  N_4
REMARK    4  A    between atoms: C_9  and  C_11
REMARK    5  A    between atoms: C_13  and  C_14
REMARK    6  A    between atoms: C_14  and  C_15
REMARK    7  A    between atoms: C_18  and  O_19
REMARK                            x       y       z     vdW  Elec       q    Type
REMARK                         _______ _______ _______ _____ _____    ______ ____
ROOT
ATOM      1  C   UNL     1       0.485  10.125  19.245  0.00  0.00    +0.000 A 
ATOM      2  C   UNL     1       1.097   9.411  18.208  0.00  0.00    +0.000 A 
ATOM      3  C   UNL     1       1.953   8.327  18.462  0.00  0.00    +0.000 A 
ATOM      4  C   UNL     1       2.052   7.852  19.774  0.00  0.00    +0.000 A 
ATOM      5  C   UNL     1       1.314   8.455  20.796  0.00  0.00    +0.000 A 
ATOM      6  C   UNL     1       0.549   9.591  20.533  0.00  0.00    +0.000 A 
ATOM      7  F   UNL     1      -0.113  10.146  21.559  0.00  0.00    +0.000 F 
ENDROOT
BRANCH   1  13
ATOM      8  N   UNL     1       1.994  14.654  20.493  0.00  0.00    +0.000 NA
ATOM      9  C   UNL     1       0.565  14.597  20.867  0.00  0.00    +0.000 C 
ATOM     10  C   UNL     1      -0.422  14.778  19.709  0.00  0.00    +0.000 C 
ATOM     11  C   UNL     1      -0.390  13.798  18.536  0.00  0.00    +0.000 C 
ATOM     12  N   UNL     1       0.411  12.594  18.731  0.00  0.00    +0.000 N 
ATOM     13  C   UNL     1      -0.262  11.394  19.003  0.00  0.00    +0.000 C 
ATOM     14  O   UNL     1      -1.494  11.334  19.060  0.00  0.00    +0.000 OA
ATOM     15  C   UNL     1       1.858  12.850  18.721  0.00  0.00    +0.000 C 
ATOM     16  C   UNL     1       2.449  13.322  20.047  0.00  0.00    +0.000 C 
BRANCH   8  17
ATOM     17  C   UNL     1       2.796  15.096  21.661  0.00  0.00    +0.000 C 
BRANCH  17  19
ATOM     18  C   UNL     1       4.935  14.873  23.060  0.00  0.00    +0.000 C 
ATOM     19  C   UNL     1       4.117  14.335  21.894  0.00  0.00    +0.000 C 
ENDBRANCH  17  19
ENDBRANCH   8  17
ENDBRANCH   1  13
BRANCH   3  20
ATOM     20  C   UNL     1       2.726   7.704  17.316  0.00  0.00    +0.000 C 
BRANCH  20  21
ATOM     21  C   UNL     1       3.670   6.576  17.692  0.00  0.00    +0.000 A 
ATOM     22  N   UNL     1       4.983   6.924  17.789  0.00  0.00    +0.000 NA
ATOM     23  N   UNL     1       5.933   5.979  18.029  0.00  0.00    +0.000 NA
ATOM     24  C   UNL     1       5.552   4.701  18.189  0.00  0.00    +0.000 A 
ATOM     25  C   UNL     1       4.232   4.267  18.145  0.00  0.00    +0.000 A 
ATOM     26  C   UNL     1       3.863   2.917  18.344  0.00  0.00    +0.000 A 
ATOM     27  C   UNL     1       2.529   2.523  18.287  0.00  0.00    +0.000 A 
ATOM     28  C   UNL     1       1.548   3.463  18.006  0.00  0.00    +0.000 A 
ATOM     29  C   UNL     1       1.903   4.798  17.790  0.00  0.00    +0.000 A 
ATOM     30  C   UNL     1       3.244   5.238  17.875  0.00  0.00    +0.000 A 
BRANCH  24  31
ATOM     31  O   UNL     1       6.583   3.823  18.377  0.00  0.00    +0.000 OA
ATOM     32  H   UNL     1       6.103   2.988  18.517  0.00  0.00    +0.000 HD
ENDBRANCH  24  31
ENDBRANCH  20  21
ENDBRANCH   3  20
TORSDOF 6
ENDMDL
MODEL 8
REMARK VINA RESULT:      -8.3      2.435      3.544
REMARK  Name = 
REMARK  7 active torsions:
REMARK  status: ('A' for Active; 'I' for Inactive)
REMARK    1  A    between atoms: C_1  and  C_2
REMARK    2  A    between atoms: C_2  and  C_3
REMARK    3  A    between atoms: C_3  and  N_4
REMARK    4  A    between atoms: C_9  and  C_11
REMARK    5  A    between atoms: C_13  and  C_14
REMARK    6  A    between atoms: C_14  and  C_15
REMARK    7  A    between atoms: C_18  and  O_19
REMARK                            x       y       z     vdW  Elec       q    Type
REMARK                         _______ _______ _______ _____ _____    ______ ____
ROOT
ATOM      1  C   UNL     1       1.985   6.370  19.071  0.00  0.00    +0.000 A 
ATOM      2  C   UNL     1       2.135   7.600  18.418  0.00  0.00    +0.000 A 
ATOM      3  C   UNL     1       1.702   8.802  19.001  0.00  0.00    +0.000 A 
ATOM      4  C   UNL     1       1.270   8.779  20.331  0.00  0.00    +0.000 A 
ATOM      5  C   UNL     1       1.273   7.579  21.048  0.00  0.00    +0.000 A 
ATOM      6  C   UNL     1       1.614   6.384  20.416  0.00  0.00    +0.000 A 
ATOM      7  F   UNL     1       1.567   5.260  21.146  0.00  0.00    +0.000 F 
ENDROOT
BRANCH   1  13
ATOM      8  N   UNL     1       6.435   4.407  18.235  0.00  0.00    +0.000 NA
ATOM      9  C   UNL     1       5.676   4.213  16.981  0.00  0.00    +0.000 C 
ATOM     10  C   UNL     1       4.686   3.044  16.989  0.00  0.00    +0.000 C 
ATOM     11  C   UNL     1       3.556   3.025  18.019  0.00  0.00    +0.000 C 
ATOM     12  N   UNL     1       3.343   4.267  18.756  0.00  0.00    +0.000 N 
ATOM     13  C   UNL     1       2.255   5.071  18.388  0.00  0.00    +0.000 C 
ATOM     14  O   UNL     1       1.479   4.747  17.483  0.00  0.00    +0.000 OA
ATOM     15  C   UNL     1       4.400   4.549  19.735  0.00  0.00    +0.000 C 
ATOM     16  C   UNL     1       5.647   5.228  19.175  0.00  0.00    +0.000 C 
BRANCH   8  17
ATOM     17  C   UNL     1       7.724   5.079  17.936  0.00  0.00    +0.000 C 
BRANCH  17  19
ATOM     18  C   UNL     1       7.639   7.605  17.499  0.00  0.00    +0.000 C 
ATOM     19  C   UNL     1       7.891   6.499  18.513  0.00  0.00    +0.000 C 
ENDBRANCH  17  19
ENDBRANCH   8  17
ENDBRANCH   1  13
BRANCH   3  20
ATOM     20  C   UNL     1       1.726  10.077  18.180  0.00  0.00    +0.000 C 
BRANCH  20  21
ATOM     21  C   UNL     1       0.788  11.178  18.643  0.00  0.00    +0.000 A 
ATOM     22  N   UNL     1      -0.475  10.774  18.953  0.00  0.00    +0.000 NA
ATOM     23  N   UNL     1      -1.429  11.685  19.290  0.00  0.00    +0.000 NA
ATOM     24  C   UNL     1      -1.099  12.985  19.333  0.00  0.00    +0.000 A 
ATOM     25  C   UNL     1       0.174  13.478  19.071  0.00  0.00    +0.000 A 
ATOM     26  C   UNL     1       0.495  14.853  19.150  0.00  0.00    +0.000 A 
ATOM     27  C   UNL     1       1.781  15.306  18.875  0.00  0.00    +0.000 A 
ATOM     28  C   UNL     1       2.760  14.400  18.491  0.00  0.00    +0.000 A 
ATOM     29  C   UNL     1       2.450  13.040  18.392  0.00  0.00    +0.000 A 
ATOM     30  C   UNL     1       1.163  12.542  18.699  0.00  0.00    +0.000 A 
BRANCH  24  31
ATOM     31  O   UNL     1      -2.137  13.823  19.635  0.00  0.00    +0.000 OA
ATOM     32  H   UNL     1      -2.100  13.835  20.607  0.00  0.00    +0.000 HD
ENDBRANCH  24  31
ENDBRANCH  20  21
ENDBRANCH   3  20
TORSDOF 6
ENDMDL
MODEL 9
REMARK VINA RESULT:      -8.2      2.431      3.682
REMARK  Name = 
REMARK  7 active torsions:
REMARK  status: ('A' for Active; 'I' for Inactive)
REMARK    1  A    between atoms: C_1  and  C_2
REMARK    2  A    between atoms: C_2  and  C_3
REMARK    3  A    between atoms: C_3  and  N_4
REMARK    4  A    between atoms: C_9  and  C_11
REMARK    5  A    between atoms: C_13  and  C_14
REMARK    6  A    between atoms: C_14  and  C_15
REMARK    7  A    between atoms: C_18  and  O_19
REMARK                            x       y       z     vdW  Elec       q    Type
REMARK                         _______ _______ _______ _____ _____    ______ ____
ROOT
ATOM      1  C   UNL     1       2.087   6.174  19.284  0.00  0.00    +0.000 A 
ATOM      2  C   UNL     1       2.137   7.290  18.441  0.00  0.00    +0.000 A 
ATOM      3  C   UNL     1       1.724   8.561  18.872  0.00  0.00    +0.000 A 
ATOM      4  C   UNL     1       1.421   8.737  20.226  0.00  0.00    +0.000 A 
ATOM      5  C   UNL     1       1.527   7.664  21.114  0.00  0.00    +0.000 A 
ATOM      6  C   UNL     1       1.844   6.391  20.641  0.00  0.00    +0.000 A 
ATOM      7  F   UNL     1       1.900   5.392  21.535  0.00  0.00    +0.000 F 
ENDROOT
BRANCH   1  13
ATOM      8  N   UNL     1       6.053   4.658  16.769  0.00  0.00    +0.000 NA
ATOM      9  C   UNL     1       4.893   4.050  16.082  0.00  0.00    +0.000 C 
ATOM     10  C   UNL     1       4.312   2.804  16.758  0.00  0.00    +0.000 C 
ATOM     11  C   UNL     1       3.782   2.905  18.189  0.00  0.00    +0.000 C 
ATOM     12  N   UNL     1       3.625   4.256  18.718  0.00  0.00    +0.000 N 
ATOM     13  C   UNL     1       2.330   4.789  18.785  0.00  0.00    +0.000 C 
ATOM     14  O   UNL     1       1.339   4.144  18.429  0.00  0.00    +0.000 OA
ATOM     15  C   UNL     1       4.903   4.917  19.011  0.00  0.00    +0.000 C 
ATOM     16  C   UNL     1       5.584   5.585  17.819  0.00  0.00    +0.000 C 
BRANCH   8  17
ATOM     17  C   UNL     1       6.885   5.392  15.784  0.00  0.00    +0.000 C 
BRANCH  17  19
ATOM     18  C   UNL     1       7.906   5.493  13.433  0.00  0.00    +0.000 C 
ATOM     19  C   UNL     1       6.918   4.801  14.361  0.00  0.00    +0.000 C 
ENDBRANCH  17  19
ENDBRANCH   8  17
ENDBRANCH   1  13
BRANCH   3  20
ATOM     20  C   UNL     1       1.633   9.694  17.868  0.00  0.00    +0.000 C 
BRANCH  20  21
ATOM     21  C   UNL     1       0.698  10.832  18.240  0.00  0.00    +0.000 A 
ATOM     22  N   UNL     1       1.297  11.912  18.814  0.00  0.00    +0.000 NA
ATOM     23  N   UNL     1       0.550  12.953  19.273  0.00  0.00    +0.000 NA
ATOM     24  C   UNL     1      -0.785  12.907  19.133  0.00  0.00    +0.000 A 
ATOM     25  C   UNL     1      -1.472  11.862  18.525  0.00  0.00    +0.000 A 
ATOM     26  C   UNL     1      -2.877  11.857  18.370  0.00  0.00    +0.000 A 
ATOM     27  C   UNL     1      -3.527  10.788  17.759  0.00  0.00    +0.000 A 
ATOM     28  C   UNL     1      -2.789   9.699  17.318  0.00  0.00    +0.000 A 
ATOM     29  C   UNL     1      -1.400   9.685  17.481  0.00  0.00    +0.000 A 
ATOM     30  C   UNL     1      -0.705  10.770  18.065  0.00  0.00    +0.000 A 
BRANCH  24  31
ATOM     31  O   UNL     1      -1.448  13.976  19.668  0.00  0.00    +0.000 OA
ATOM     32  H   UNL     1      -1.299  14.657  18.989  0.00  0.00    +0.000 HD
ENDBRANCH  24  31
ENDBRANCH  20  21
ENDBRANCH   3  20
TORSDOF 6
ENDMDL
