MODEL 1
REMARK VINA RESULT:      -6.7      0.000      0.000
REMARK  Name = 
REMARK  5 active torsions:
REMARK  status: ('A' for Active; 'I' for Inactive)
REMARK    1  A    between atoms: C_1  and  C_2
REMARK    2  A    between atoms: C_8  and  S_9
REMARK    3  A    between atoms: S_9  and  C_10
REMARK    4  A    between atoms: C_10  and  C_11
REMARK    5  A    between atoms: C_20  and  C_21
REMARK                            x       y       z     vdW  Elec       q    Type
REMARK                         _______ _______ _______ _____ _____    ______ ____
ROOT
ATOM      1  C   UNL     1       1.825   2.146  21.384  0.00  0.00    +0.000 C 
ATOM      2  C   UNL     1       2.683   3.051  20.558  0.00  0.00    +0.000 A 
ATOM      3  S   UNL     1       4.292   2.615  20.221  0.00  0.00    +0.000 S 
ATOM      4  C   UNL     1       4.557   4.026  19.313  0.00  0.00    +0.000 A 
ATOM      5  N   UNL     1       5.759   4.231  18.759  0.00  0.00    +0.000 NA
ATOM      6  C   UNL     1       5.825   5.364  18.069  0.00  0.00    +0.000 A 
ATOM      7  N   UNL     1       4.846   6.257  17.880  0.00  0.00    +0.000 NA
ATOM      8  C   UNL     1       3.647   6.022  18.459  0.00  0.00    +0.000 A 
ATOM      9  C   UNL     1       3.441   4.856  19.235  0.00  0.00    +0.000 A 
ATOM     10  C   UNL     1       2.332   4.275  19.996  0.00  0.00    +0.000 A 
ATOM     11  C   UNL     1       0.958   4.842  20.202  0.00  0.00    +0.000 C 
ENDROOT
BRANCH   8  12
ATOM     12  S   UNL     1       2.334   7.179  18.204  0.00  0.00    +0.000 S 
BRANCH  12  13
ATOM     13  C   UNL     1       2.095   7.885  19.860  0.00  0.00    +0.000 C 
BRANCH  13  14
ATOM     14  C   UNL     1       1.254   9.153  19.729  0.00  0.00    +0.000 C 
ATOM     15  O   UNL     1       1.513   9.963  18.833  0.00  0.00    +0.000 OA
ATOM     16  N   UNL     1       0.204   9.361  20.620  0.00  0.00    +0.000 N 
ATOM     17  C   UNL     1      -0.676  10.515  20.430  0.00  0.00    +0.000 C 
ATOM     18  C   UNL     1      -0.613  11.454  21.632  0.00  0.00    +0.000 C 
ATOM     19  C   UNL     1      -0.903  10.701  22.929  0.00  0.00    +0.000 C 
ATOM     20  C   UNL     1       0.017   9.487  23.069  0.00  0.00    +0.000 C 
ATOM     21  C   UNL     1      -0.053   8.588  21.835  0.00  0.00    +0.000 C 
ENDBRANCH  13  14
ENDBRANCH  12  13
ENDBRANCH   8  12
TORSDOF 3
ENDMDL
MODEL 2
REMARK VINA RESULT:      -6.6      2.657      4.383
REMARK  Name = 
REMARK  5 active torsions:
REMARK  status: ('A' for Active; 'I' for Inactive)
REMARK    1  A    between atoms: C_1  and  C_2
REMARK    2  A    between atoms: C_8  and  S_9
REMARK    3  A    between atoms: S_9  and  C_10
REMARK    4  A    between atoms: C_10  and  C_11
REMARK    5  A    between atoms: C_20  and  C_21
REMARK                            x       y       z     vdW  Elec       q    Type
REMARK                         _______ _______ _______ _____ _____    ______ ____
ROOT
ATOM      1  C   UNL     1       5.356   3.930  13.735  0.00  0.00    +0.000 C 
ATOM      2  C   UNL     1       5.720   4.288  15.141  0.00  0.00    +0.000 A 
ATOM      3  S   UNL     1       7.179   5.105  15.455  0.00  0.00    +0.000 S 
ATOM      4  C   UNL     1       6.877   5.147  17.126  0.00  0.00    +0.000 A 
ATOM      5  N   UNL     1       7.773   5.721  17.938  0.00  0.00    +0.000 NA
ATOM      6  C   UNL     1       7.407   5.695  19.214  0.00  0.00    +0.000 A 
ATOM      7  N   UNL     1       6.279   5.186  19.725  0.00  0.00    +0.000 NA
ATOM      8  C   UNL     1       5.399   4.608  18.877  0.00  0.00    +0.000 A 
ATOM      9  C   UNL     1       5.669   4.554  17.489  0.00  0.00    +0.000 A 
ATOM     10  C   UNL     1       4.993   4.029  16.299  0.00  0.00    +0.000 A 
ATOM     11  C   UNL     1       3.686   3.294  16.231  0.00  0.00    +0.000 C 
ENDROOT
BRANCH   8  12
ATOM     12  S   UNL     1       3.893   3.948  19.528  0.00  0.00    +0.000 S 
BRANCH  12  13
ATOM     13  C   UNL     1       2.627   4.983  18.737  0.00  0.00    +0.000 C 
BRANCH  13  14
ATOM     14  C   UNL     1       2.090   5.968  19.773  0.00  0.00    +0.000 C 
ATOM     15  O   UNL     1       1.503   5.539  20.772  0.00  0.00    +0.000 OA
ATOM     16  N   UNL     1       2.285   7.332  19.571  0.00  0.00    +0.000 N 
ATOM     17  C   UNL     1       1.874   8.274  20.613  0.00  0.00    +0.000 C 
ATOM     18  C   UNL     1       0.802   9.230  20.094  0.00  0.00    +0.000 C 
ATOM     19  C   UNL     1       1.266   9.930  18.818  0.00  0.00    +0.000 C 
ATOM     20  C   UNL     1       1.715   8.909  17.771  0.00  0.00    +0.000 C 
ATOM     21  C   UNL     1       2.765   7.953  18.337  0.00  0.00    +0.000 C 
ENDBRANCH  13  14
ENDBRANCH  12  13
ENDBRANCH   8  12
TORSDOF 3
ENDMDL
MODEL 3
REMARK VINA RESULT:      -6.6      2.743      7.526
REMARK  Name = 
REMARK  5 active torsions:
REMARK  status: ('A' for Active; 'I' for Inactive)
REMARK    1  A    between atoms: C_1  and  C_2
REMARK    2  A    between atoms: C_8  and  S_9
REMARK    3  A    between atoms: S_9  and  C_10
REMARK    4  A    between atoms: C_10  and  C_11
REMARK    5  A    between atoms: C_20  and  C_21
REMARK                            x       y       z     vdW  Elec       q    Type
REMARK                         _______ _______ _______ _____ _____    ______ ____
ROOT
ATOM      1  C   UNL     1      -1.917  12.288  23.085  0.00  0.00    +0.000 C 
ATOM      2  C   UNL     1      -1.159  11.691  21.941  0.00  0.00    +0.000 A 
ATOM      3  S   UNL     1      -1.087  12.513  20.454  0.00  0.00    +0.000 S 
ATOM      4  C   UNL     1      -0.128  11.301  19.751  0.00  0.00    +0.000 A 
ATOM      5  N   UNL     1       0.262  11.432  18.476  0.00  0.00    +0.000 NA
ATOM      6  C   UNL     1       1.015  10.422  18.058  0.00  0.00    +0.000 A 
ATOM      7  N   UNL     1       1.405   9.354  18.765  0.00  0.00    +0.000 NA
ATOM      8  C   UNL     1       0.988   9.250  20.047  0.00  0.00    +0.000 A 
ATOM      9  C   UNL     1       0.168  10.252  20.618  0.00  0.00    +0.000 A 
ATOM     10  C   UNL     1      -0.466  10.485  21.919  0.00  0.00    +0.000 A 
ATOM     11  C   UNL     1      -0.433   9.602  23.132  0.00  0.00    +0.000 C 
ENDROOT
BRANCH   8  12
ATOM     12  S   UNL     1       1.510   7.857  21.004  0.00  0.00    +0.000 S 
BRANCH  12  13
ATOM     13  C   UNL     1       2.278   6.780  19.760  0.00  0.00    +0.000 C 
BRANCH  13  14
ATOM     14  C   UNL     1       2.094   5.328  20.197  0.00  0.00    +0.000 C 
ATOM     15  O   UNL     1       2.261   5.026  21.384  0.00  0.00    +0.000 OA
ATOM     16  N   UNL     1       1.731   4.379  19.246  0.00  0.00    +0.000 N 
ATOM     17  C   UNL     1       1.443   3.009  19.677  0.00  0.00    +0.000 C 
ATOM     18  C   UNL     1       2.411   2.019  19.035  0.00  0.00    +0.000 C 
ATOM     19  C   UNL     1       2.417   2.168  17.515  0.00  0.00    +0.000 C 
ATOM     20  C   UNL     1       2.690   3.617  17.112  0.00  0.00    +0.000 C 
ATOM     21  C   UNL     1       1.720   4.580  17.797  0.00  0.00    +0.000 C 
ENDBRANCH  13  14
ENDBRANCH  12  13
ENDBRANCH   8  12
TORSDOF 3
ENDMDL
MODEL 4
REMARK VINA RESULT:      -6.6      2.167      3.428
REMARK  Name = 
REMARK  5 active torsions:
REMARK  status: ('A' for Active; 'I' for Inactive)
REMARK    1  A    between atoms: C_1  and  C_2
REMARK    2  A    between atoms: C_8  and  S_9
REMARK    3  A    between atoms: S_9  and  C_10
REMARK    4  A    between atoms: C_10  and  C_11
REMARK    5  A    between atoms: C_20  and  C_21
REMARK                            x       y       z     vdW  Elec       q    Type
REMARK                         _______ _______ _______ _____ _____    ______ ____
ROOT
ATOM      1  C   UNL     1       5.466   4.364  15.894  0.00  0.00    +0.000 C 
ATOM      2  C   UNL     1       4.482   4.386  17.020  0.00  0.00    +0.000 A 
ATOM      3  S   UNL     1       3.922   2.923  17.682  0.00  0.00    +0.000 S 
ATOM      4  C   UNL     1       2.938   3.728  18.809  0.00  0.00    +0.000 A 
ATOM      5  N   UNL     1       2.200   3.010  19.665  0.00  0.00    +0.000 NA
ATOM      6  C   UNL     1       1.491   3.764  20.496  0.00  0.00    +0.000 A 
ATOM      7  N   UNL     1       1.462   5.101  20.556  0.00  0.00    +0.000 NA
ATOM      8  C   UNL     1       2.215   5.795  19.673  0.00  0.00    +0.000 A 
ATOM      9  C   UNL     1       3.012   5.117  18.720  0.00  0.00    +0.000 A 
ATOM     10  C   UNL     1       3.923   5.501  17.638  0.00  0.00    +0.000 A 
ATOM     11  C   UNL     1       4.276   6.885  17.178  0.00  0.00    +0.000 C 
ENDROOT
BRANCH   8  12
ATOM     12  S   UNL     1       2.209   7.562  19.750  0.00  0.00    +0.000 S 
BRANCH  12  13
ATOM     13  C   UNL     1       0.957   7.905  21.020  0.00  0.00    +0.000 C 
BRANCH  13  14
ATOM     14  C   UNL     1       1.068   9.372  21.426  0.00  0.00    +0.000 C 
ATOM     15  O   UNL     1       1.483   9.660  22.554  0.00  0.00    +0.000 OA
ATOM     16  N   UNL     1       0.709  10.356  20.508  0.00  0.00    +0.000 N 
ATOM     17  C   UNL     1       0.920  11.764  20.850  0.00  0.00    +0.000 C 
ATOM     18  C   UNL     1      -0.404  12.524  20.877  0.00  0.00    +0.000 C 
ATOM     19  C   UNL     1      -1.163  12.345  19.564  0.00  0.00    +0.000 C 
ATOM     20  C   UNL     1      -1.333  10.862  19.231  0.00  0.00    +0.000 C 
ATOM     21  C   UNL     1       0.010  10.130  19.243  0.00  0.00    +0.000 C 
ENDBRANCH  13  14
ENDBRANCH  12  13
ENDBRANCH   8  12
TORSDOF 3
ENDMDL
MODEL 5
REMARK VINA RESULT:      -6.5      2.753      7.879
REMARK  Name = 
REMARK  5 active torsions:
REMARK  status: ('A' for Active; 'I' for Inactive)
REMARK    1  A    between atoms: C_1  and  C_2
REMARK    2  A    between atoms: C_8  and  S_9
REMARK    3  A    between atoms: S_9  and  C_10
REMARK    4  A    between atoms: C_10  and  C_11
REMARK    5  A    between atoms: C_20  and  C_21
REMARK                            x       y       z     vdW  Elec       q    Type
REMARK                         _______ _______ _______ _____ _____    ______ ____
ROOT
ATOM      1  C   UNL     1       0.812  14.830  19.497  0.00  0.00    +0.000 C 
ATOM      2  C   UNL     1       0.594  13.534  20.213  0.00  0.00    +0.000 A 
ATOM      3  S   UNL     1      -0.181  13.525  21.727  0.00  0.00    +0.000 S 
ATOM      4  C   UNL     1      -0.064  11.836  21.855  0.00  0.00    +0.000 A 
ATOM      5  N   UNL     1      -0.551  11.226  22.943  0.00  0.00    +0.000 NA
ATOM      6  C   UNL     1      -0.405   9.907  22.907  0.00  0.00    +0.000 A 
ATOM      7  N   UNL     1       0.144   9.177  21.928  0.00  0.00    +0.000 NA
ATOM      8  C   UNL     1       0.632   9.825  20.847  0.00  0.00    +0.000 A 
ATOM      9  C   UNL     1       0.554  11.236  20.759  0.00  0.00    +0.000 A 
ATOM     10  C   UNL     1       0.959  12.260  19.791  0.00  0.00    +0.000 A 
ATOM     11  C   UNL     1       1.675  12.063  18.487  0.00  0.00    +0.000 C 
ENDROOT
BRANCH   8  12
ATOM     12  S   UNL     1       1.343   8.878  19.533  0.00  0.00    +0.000 S 
BRANCH  12  13
ATOM     13  C   UNL     1       1.928   7.385  20.385  0.00  0.00    +0.000 C 
BRANCH  13  14
ATOM     14  C   UNL     1       2.461   6.409  19.339  0.00  0.00    +0.000 C 
ATOM     15  O   UNL     1       2.809   6.834  18.232  0.00  0.00    +0.000 OA
ATOM     16  N   UNL     1       2.552   5.057  19.663  0.00  0.00    +0.000 N 
ATOM     17  C   UNL     1       3.166   4.134  18.707  0.00  0.00    +0.000 C 
ATOM     18  C   UNL     1       2.168   3.071  18.256  0.00  0.00    +0.000 C 
ATOM     19  C   UNL     1       1.554   2.353  19.456  0.00  0.00    +0.000 C 
ATOM     20  C   UNL     1       0.954   3.356  20.441  0.00  0.00    +0.000 C 
ATOM     21  C   UNL     1       1.974   4.420  20.846  0.00  0.00    +0.000 C 
ENDBRANCH  13  14
ENDBRANCH  12  13
ENDBRANCH   8  12
TORSDOF 3
ENDMDL
MODEL 6
REMARK VINA RESULT:      -6.5      1.381      1.494
REMARK  Name = 
REMARK  5 active torsions:
REMARK  status: ('A' for Active; 'I' for Inactive)
REMARK    1  A    between atoms: C_1  and  C_2
REMARK    2  A    between atoms: C_8  and  S_9
REMARK    3  A    between atoms: S_9  and  C_10
REMARK    4  A    between atoms: C_10  and  C_11
REMARK    5  A    between atoms: C_20  and  C_21
REMARK                            x       y       z     vdW  Elec       q    Type
REMARK                         _______ _______ _______ _____ _____    ______ ____
ROOT
ATOM      1  C   UNL     1       1.731   1.855  19.238  0.00  0.00    +0.000 C 
ATOM      2  C   UNL     1       2.809   2.876  19.052  0.00  0.00    +0.000 A 
ATOM      3  S   UNL     1       4.409   2.506  19.497  0.00  0.00    +0.000 S 
ATOM      4  C   UNL     1       4.971   4.033  19.011  0.00  0.00    +0.000 A 
ATOM      5  N   UNL     1       6.271   4.325  19.146  0.00  0.00    +0.000 NA
ATOM      6  C   UNL     1       6.576   5.544  18.716  0.00  0.00    +0.000 A 
ATOM      7  N   UNL     1       5.745   6.447  18.180  0.00  0.00    +0.000 NA
ATOM      8  C   UNL     1       4.438   6.122  18.064  0.00  0.00    +0.000 A 
ATOM      9  C   UNL     1       3.972   4.857  18.496  0.00  0.00    +0.000 A 
ATOM     10  C   UNL     1       2.681   4.163  18.540  0.00  0.00    +0.000 A 
ATOM     11  C   UNL     1       1.340   4.684  18.112  0.00  0.00    +0.000 C 
ENDROOT
BRANCH   8  12
ATOM     12  S   UNL     1       3.327   7.292  17.339  0.00  0.00    +0.000 S 
BRANCH  12  13
ATOM     13  C   UNL     1       2.428   7.937  18.778  0.00  0.00    +0.000 C 
BRANCH  13  14
ATOM     14  C   UNL     1       1.726   9.231  18.370  0.00  0.00    +0.000 C 
ATOM     15  O   UNL     1       2.077   9.812  17.338  0.00  0.00    +0.000 OA
ATOM     16  N   UNL     1       0.696   9.720  19.169  0.00  0.00    +0.000 N 
ATOM     17  C   UNL     1      -0.056  10.895  18.726  0.00  0.00    +0.000 C 
ATOM     18  C   UNL     1       0.095  12.047  19.716  0.00  0.00    +0.000 C 
ATOM     19  C   UNL     1      -0.284  11.605  21.129  0.00  0.00    +0.000 C 
ATOM     20  C   UNL     1       0.501  10.358  21.537  0.00  0.00    +0.000 C 
ATOM     21  C   UNL     1       0.348   9.239  20.507  0.00  0.00    +0.000 C 
ENDBRANCH  13  14
ENDBRANCH  12  13
ENDBRANCH   8  12
TORSDOF 3
ENDMDL
MODEL 7
REMARK VINA RESULT:      -6.4      2.607      3.830
REMARK  Name = 
REMARK  5 active torsions:
REMARK  status: ('A' for Active; 'I' for Inactive)
REMARK    1  A    between atoms: C_1  and  C_2
REMARK    2  A    between atoms: C_8  and  S_9
REMARK    3  A    between atoms: S_9  and  C_10
REMARK    4  A    between atoms: C_10  and  C_11
REMARK    5  A    between atoms: C_20  and  C_21
REMARK                            x       y       z     vdW  Elec       q    Type
REMARK                         _______ _______ _______ _____ _____    ______ ____
ROOT
ATOM      1  C   UNL     1       5.922   4.044  16.223  0.00  0.00    +0.000 C 
ATOM      2  C   UNL     1       4.932   4.581  17.208  0.00  0.00    +0.000 A 
ATOM      3  S   UNL     1       4.399   3.600  18.491  0.00  0.00    +0.000 S 
ATOM      4  C   UNL     1       3.395   4.825  19.103  0.00  0.00    +0.000 A 
ATOM      5  N   UNL     1       2.667   4.586  20.202  0.00  0.00    +0.000 NA
ATOM      6  C   UNL     1       1.939   5.631  20.578  0.00  0.00    +0.000 A 
ATOM      7  N   UNL     1       1.883   6.834  19.993  0.00  0.00    +0.000 NA
ATOM      8  C   UNL     1       2.625   7.038  18.882  0.00  0.00    +0.000 A 
ATOM      9  C   UNL     1       3.440   6.004  18.363  0.00  0.00    +0.000 A 
ATOM     10  C   UNL     1       4.348   5.844  17.223  0.00  0.00    +0.000 A 
ATOM     11  C   UNL     1       4.675   6.848  16.157  0.00  0.00    +0.000 C 
ENDROOT
BRANCH   8  12
ATOM     12  S   UNL     1       2.583   8.628  18.107  0.00  0.00    +0.000 S 
BRANCH  12  13
ATOM     13  C   UNL     1       0.817   8.851  17.747  0.00  0.00    +0.000 C 
BRANCH  13  14
ATOM     14  C   UNL     1       0.343  10.133  18.430  0.00  0.00    +0.000 C 
ATOM     15  O   UNL     1       1.001  10.603  19.363  0.00  0.00    +0.000 OA
ATOM     16  N   UNL     1      -0.820  10.749  17.974  0.00  0.00    +0.000 N 
ATOM     17  C   UNL     1      -1.218  12.036  18.547  0.00  0.00    +0.000 C 
ATOM     18  C   UNL     1      -2.576  11.930  19.237  0.00  0.00    +0.000 C 
ATOM     19  C   UNL     1      -3.628  11.359  18.288  0.00  0.00    +0.000 C 
ATOM     20  C   UNL     1      -3.156  10.033  17.689  0.00  0.00    +0.000 C 
ATOM     21  C   UNL     1      -1.782  10.172  17.034  0.00  0.00    +0.000 C 
ENDBRANCH  13  14
ENDBRANCH  12  13
ENDBRANCH   8  12
TORSDOF 3
ENDMDL
MODEL 8
REMARK VINA RESULT:      -6.3      1.816      1.975
REMARK  Name = 
REMARK  5 active torsions:
REMARK  status: ('A' for Active; 'I' for Inactive)
REMARK    1  A    between atoms: C_1  and  C_2
REMARK    2  A    between atoms: C_8  and  S_9
REMARK    3  A    between atoms: S_9  and  C_10
REMARK    4  A    between atoms: C_10  and  C_11
REMARK    5  A    between atoms: C_20  and  C_21
REMARK                            x       y       z     vdW  Elec       q    Type
REMARK                         _______ _______ _______ _____ _____    ______ ____
ROOT
ATOM      1  C   UNL     1       1.989   1.811  18.969  0.00  0.00    +0.000 C 
ATOM      2  C   UNL     1       2.616   3.085  18.498  0.00  0.00    +0.000 A 
ATOM      3  S   UNL     1       3.872   3.036  17.353  0.00  0.00    +0.000 S 
ATOM      4  C   UNL     1       4.019   4.729  17.338  0.00  0.00    +0.000 A 
ATOM      5  N   UNL     1       4.937   5.299  16.548  0.00  0.00    +0.000 NA
ATOM      6  C   UNL     1       4.934   6.625  16.624  0.00  0.00    +0.000 A 
ATOM      7  N   UNL     1       4.132   7.393  17.371  0.00  0.00    +0.000 NA
ATOM      8  C   UNL     1       3.221   6.784  18.162  0.00  0.00    +0.000 A 
ATOM      9  C   UNL     1       3.122   5.372  18.188  0.00  0.00    +0.000 A 
ATOM     10  C   UNL     1       2.300   4.382  18.890  0.00  0.00    +0.000 A 
ATOM     11  C   UNL     1       1.230   4.631  19.912  0.00  0.00    +0.000 C 
ENDROOT
BRANCH   8  12
ATOM     12  S   UNL     1       2.136   7.782  19.140  0.00  0.00    +0.000 S 
BRANCH  12  13
ATOM     13  C   UNL     1       1.322   8.826  17.897  0.00  0.00    +0.000 C 
BRANCH  13  14
ATOM     14  C   UNL     1       1.487  10.287  18.309  0.00  0.00    +0.000 C 
ATOM     15  O   UNL     1       2.484  10.914  17.934  0.00  0.00    +0.000 OA
ATOM     16  N   UNL     1       0.501  10.883  19.091  0.00  0.00    +0.000 N 
ATOM     17  C   UNL     1       0.597  12.313  19.394  0.00  0.00    +0.000 C 
ATOM     18  C   UNL     1       0.715  12.545  20.898  0.00  0.00    +0.000 C 
ATOM     19  C   UNL     1      -0.427  11.860  21.648  0.00  0.00    +0.000 C 
ATOM     20  C   UNL     1      -0.508  10.379  21.277  0.00  0.00    +0.000 C 
ATOM     21  C   UNL     1      -0.595  10.186  19.762  0.00  0.00    +0.000 C 
ENDBRANCH  13  14
ENDBRANCH  12  13
ENDBRANCH   8  12
TORSDOF 3
ENDMDL
MODEL 9
REMARK VINA RESULT:      -6.3      2.614      7.527
REMARK  Name = 
REMARK  5 active torsions:
REMARK  status: ('A' for Active; 'I' for Inactive)
REMARK    1  A    between atoms: C_1  and  C_2
REMARK    2  A    between atoms: C_8  and  S_9
REMARK    3  A    between atoms: S_9  and  C_10
REMARK    4  A    between atoms: C_10  and  C_11
REMARK    5  A    between atoms: C_20  and  C_21
REMARK                            x       y       z     vdW  Elec       q    Type
REMARK                         _______ _______ _______ _____ _____    ______ ____
ROOT
ATOM      1  C   UNL     1      -2.539  12.243  18.954  0.00  0.00    +0.000 C 
ATOM      2  C   UNL     1      -1.559  11.439  19.748  0.00  0.00    +0.000 A 
ATOM      3  S   UNL     1      -1.459  11.652  21.432  0.00  0.00    +0.000 S 
ATOM      4  C   UNL     1      -0.236  10.482  21.578  0.00  0.00    +0.000 A 
ATOM      5  N   UNL     1       0.271  10.212  22.788  0.00  0.00    +0.000 NA
ATOM      6  C   UNL     1       1.208   9.272  22.759  0.00  0.00    +0.000 A 
ATOM      7  N   UNL     1       1.652   8.602  21.689  0.00  0.00    +0.000 NA
ATOM      8  C   UNL     1       1.123   8.903  20.482  0.00  0.00    +0.000 A 
ATOM      9  C   UNL     1       0.123   9.898  20.365  0.00  0.00    +0.000 A 
ATOM     10  C   UNL     1      -0.660  10.488  19.275  0.00  0.00    +0.000 A 
ATOM     11  C   UNL     1      -0.581  10.175  17.810  0.00  0.00    +0.000 C 
ENDROOT
BRANCH   8  12
ATOM     12  S   UNL     1       1.681   8.014  19.059  0.00  0.00    +0.000 S 
BRANCH  12  13
ATOM     13  C   UNL     1       2.761   6.743  19.777  0.00  0.00    +0.000 C 
BRANCH  13  14
ATOM     14  C   UNL     1       1.970   5.441  19.886  0.00  0.00    +0.000 C 
ATOM     15  O   UNL     1       1.281   5.232  20.891  0.00  0.00    +0.000 OA
ATOM     16  N   UNL     1       2.036   4.523  18.842  0.00  0.00    +0.000 N 
ATOM     17  C   UNL     1       1.194   3.326  18.888  0.00  0.00    +0.000 C 
ATOM     18  C   UNL     1       2.045   2.059  18.909  0.00  0.00    +0.000 C 
ATOM     19  C   UNL     1       3.026   2.042  17.739  0.00  0.00    +0.000 C 
ATOM     20  C   UNL     1       3.862   3.322  17.711  0.00  0.00    +0.000 C 
ATOM     21  C   UNL     1       2.975   4.568  17.721  0.00  0.00    +0.000 C 
ENDBRANCH  13  14
ENDBRANCH  12  13
ENDBRANCH   8  12
TORSDOF 3
ENDMDL
