MODEL 1
REMARK VINA RESULT:      -7.7      0.000      0.000
REMARK  Name = 
REMARK  10 active torsions:
REMARK  status: ('A' for Active; 'I' for Inactive)
REMARK    1  A    between atoms: C_1  and  C_2
REMARK    2  A    between atoms: C_5  and  N_6
REMARK    3  A    between atoms: N_9  and  C_10
REMARK    4  A    between atoms: C_10  and  C_11
REMARK    5  A    between atoms: C_10  and  C_15
REMARK    6  A    between atoms: C_11  and  C_12
REMARK    7  A    between atoms: C_12  and  C_13
REMARK    8  A    between atoms: C_12  and  C_14
REMARK    9  A    between atoms: N_17  and  O_18
REMARK   10  A    between atoms: C_19  and  C_20
REMARK                            x       y       z     vdW  Elec       q    Type
REMARK                         _______ _______ _______ _____ _____    ______ ____
ROOT
ATOM      1  N   UNL     1       3.687   4.207  16.414  0.00  0.00    +0.000 N 
ATOM      2  C   UNL     1       4.970   3.956  15.977  0.00  0.00    +0.000 C 
ATOM      3  O   UNL     1       5.859   3.369  16.583  0.00  0.00    +0.000 OA
ATOM      4  N   UNL     1       5.173   4.378  14.685  0.00  0.00    +0.000 N 
ATOM      5  H   UNL     1       3.077   4.636  15.737  0.00  0.00    +0.000 HD
ATOM      6  H   UNL     1       4.572   5.078  14.267  0.00  0.00    +0.000 HD
ENDROOT
BRANCH   1  11
ATOM      7  C   UNL     1       1.397   2.632  21.459  0.00  0.00    +0.000 C 
ATOM      8  C   UNL     1       1.977   3.053  20.145  0.00  0.00    +0.000 A 
ATOM      9  C   UNL     1       1.834   2.254  19.015  0.00  0.00    +0.000 A 
ATOM     10  C   UNL     1       2.397   2.641  17.798  0.00  0.00    +0.000 A 
ATOM     11  C   UNL     1       3.116   3.836  17.658  0.00  0.00    +0.000 A 
ATOM     12  C   UNL     1       3.254   4.664  18.794  0.00  0.00    +0.000 A 
ATOM     13  C   UNL     1       3.988   5.980  18.820  0.00  0.00    +0.000 C 
ATOM     14  C   UNL     1       2.689   4.251  20.024  0.00  0.00    +0.000 A 
ENDBRANCH   1  11
BRANCH   4  15
ATOM     15  C   UNL     1       6.404   4.044  13.972  0.00  0.00    +0.000 C 
BRANCH  15  16
ATOM     16  C   UNL     1       7.480   5.103  14.247  0.00  0.00    +0.000 C 
ATOM     17  O   UNL     1       7.606   5.657  15.344  0.00  0.00    +0.000 OA
ATOM     18  N   UNL     1       8.307   5.385  13.189  0.00  0.00    +0.000 N 
ATOM     19  H   UNL     1       8.153   5.084  12.231  0.00  0.00    +0.000 HD
BRANCH  18  20
ATOM     20  O   UNL     1       9.263   6.404  13.389  0.00  0.00    +0.000 OA
ATOM     21  H   UNL     1       9.270   6.865  12.520  0.00  0.00    +0.000 HD
ENDBRANCH  18  20
ENDBRANCH  15  16
BRANCH  15  22
ATOM     22  C   UNL     1       6.160   3.836  12.461  0.00  0.00    +0.000 C 
BRANCH  22  23
ATOM     23  C   UNL     1       5.217   2.671  12.079  0.00  0.00    +0.000 C 
ATOM     24  C   UNL     1       4.057   3.199  11.226  0.00  0.00    +0.000 C 
ATOM     25  C   UNL     1       5.911   1.546  11.308  0.00  0.00    +0.000 C 
ENDBRANCH  22  23
ENDBRANCH  15  22
ENDBRANCH   4  15
TORSDOF 6
ENDMDL
MODEL 2
REMARK VINA RESULT:      -7.6      4.296      6.126
REMARK  Name = 
REMARK  10 active torsions:
REMARK  status: ('A' for Active; 'I' for Inactive)
REMARK    1  A    between atoms: C_1  and  C_2
REMARK    2  A    between atoms: C_5  and  N_6
REMARK    3  A    between atoms: N_9  and  C_10
REMARK    4  A    between atoms: C_10  and  C_11
REMARK    5  A    between atoms: C_10  and  C_15
REMARK    6  A    between atoms: C_11  and  C_12
REMARK    7  A    between atoms: C_12  and  C_13
REMARK    8  A    between atoms: C_12  and  C_14
REMARK    9  A    between atoms: N_17  and  O_18
REMARK   10  A    between atoms: C_19  and  C_20
REMARK                            x       y       z     vdW  Elec       q    Type
REMARK                         _______ _______ _______ _____ _____    ______ ____
ROOT
ATOM      1  N   UNL     1       2.788   6.746  19.709  0.00  0.00    +0.000 N 
ATOM      2  C   UNL     1       2.555   5.610  18.962  0.00  0.00    +0.000 C 
ATOM      3  O   UNL     1       1.521   5.306  18.378  0.00  0.00    +0.000 OA
ATOM      4  N   UNL     1       3.673   4.820  18.850  0.00  0.00    +0.000 N 
ATOM      5  H   UNL     1       3.731   6.853  20.045  0.00  0.00    +0.000 HD
ATOM      6  H   UNL     1       4.433   4.900  19.514  0.00  0.00    +0.000 HD
ENDROOT
BRANCH   1  11
ATOM      7  C   UNL     1      -0.846  11.083  20.784  0.00  0.00    +0.000 C 
ATOM      8  C   UNL     1       0.084   9.946  20.494  0.00  0.00    +0.000 A 
ATOM      9  C   UNL     1       0.315   8.956  21.444  0.00  0.00    +0.000 A 
ATOM     10  C   UNL     1       1.202   7.912  21.177  0.00  0.00    +0.000 A 
ATOM     11  C   UNL     1       1.885   7.810  19.958  0.00  0.00    +0.000 A 
ATOM     12  C   UNL     1       1.646   8.800  18.978  0.00  0.00    +0.000 A 
ATOM     13  C   UNL     1       2.290   8.842  17.616  0.00  0.00    +0.000 C 
ATOM     14  C   UNL     1       0.755   9.860  19.270  0.00  0.00    +0.000 A 
ENDBRANCH   1  11
BRANCH   4  15
ATOM     15  C   UNL     1       3.690   3.667  17.953  0.00  0.00    +0.000 C 
BRANCH  15  16
ATOM     16  C   UNL     1       3.963   2.382  18.746  0.00  0.00    +0.000 C 
ATOM     17  O   UNL     1       3.233   1.388  18.676  0.00  0.00    +0.000 OA
ATOM     18  N   UNL     1       5.087   2.407  19.532  0.00  0.00    +0.000 N 
ATOM     19  H   UNL     1       5.629   3.238  19.751  0.00  0.00    +0.000 HD
BRANCH  18  20
ATOM     20  O   UNL     1       5.328   1.265  20.326  0.00  0.00    +0.000 OA
ATOM     21  H   UNL     1       6.307   1.186  20.297  0.00  0.00    +0.000 HD
ENDBRANCH  18  20
ENDBRANCH  15  16
BRANCH  15  22
ATOM     22  C   UNL     1       4.682   3.857  16.785  0.00  0.00    +0.000 C 
BRANCH  22  23
ATOM     23  C   UNL     1       5.604   5.096  16.870  0.00  0.00    +0.000 C 
ATOM     24  C   UNL     1       7.065   4.671  16.676  0.00  0.00    +0.000 C 
ATOM     25  C   UNL     1       5.274   6.178  15.840  0.00  0.00    +0.000 C 
ENDBRANCH  22  23
ENDBRANCH  15  22
ENDBRANCH   4  15
TORSDOF 6
ENDMDL
MODEL 3
REMARK VINA RESULT:      -7.3      4.561      6.896
REMARK  Name = 
REMARK  10 active torsions:
REMARK  status: ('A' for Active; 'I' for Inactive)
REMARK    1  A    between atoms: C_1  and  C_2
REMARK    2  A    between atoms: C_5  and  N_6
REMARK    3  A    between atoms: N_9  and  C_10
REMARK    4  A    between atoms: C_10  and  C_11
REMARK    5  A    between atoms: C_10  and  C_15
REMARK    6  A    between atoms: C_11  and  C_12
REMARK    7  A    between atoms: C_12  and  C_13
REMARK    8  A    between atoms: C_12  and  C_14
REMARK    9  A    between atoms: N_17  and  O_18
REMARK   10  A    between atoms: C_19  and  C_20
REMARK                            x       y       z     vdW  Elec       q    Type
REMARK                         _______ _______ _______ _____ _____    ______ ____
ROOT
ATOM      1  N   UNL     1       2.247   7.675  20.132  0.00  0.00    +0.000 N 
ATOM      2  C   UNL     1       2.759   6.732  19.267  0.00  0.00    +0.000 C 
ATOM      3  O   UNL     1       2.500   6.600  18.076  0.00  0.00    +0.000 OA
ATOM      4  N   UNL     1       3.708   5.937  19.863  0.00  0.00    +0.000 N 
ATOM      5  H   UNL     1       2.644   7.671  21.058  0.00  0.00    +0.000 HD
ATOM      6  H   UNL     1       3.750   5.845  20.870  0.00  0.00    +0.000 HD
ENDROOT
BRANCH   1  11
ATOM      7  C   UNL     1      -1.565  11.799  18.854  0.00  0.00    +0.000 C 
ATOM      8  C   UNL     1      -0.562  10.741  19.193  0.00  0.00    +0.000 A 
ATOM      9  C   UNL     1       0.273  10.212  18.214  0.00  0.00    +0.000 A 
ATOM     10  C   UNL     1       1.189   9.209  18.532  0.00  0.00    +0.000 A 
ATOM     11  C   UNL     1       1.314   8.700  19.832  0.00  0.00    +0.000 A 
ATOM     12  C   UNL     1       0.484   9.241  20.839  0.00  0.00    +0.000 A 
ATOM     13  C   UNL     1       0.489   8.816  22.284  0.00  0.00    +0.000 C 
ATOM     14  C   UNL     1      -0.450  10.247  20.497  0.00  0.00    +0.000 A 
ENDBRANCH   1  11
BRANCH   4  15
ATOM     15  C   UNL     1       4.502   4.999  19.074  0.00  0.00    +0.000 C 
BRANCH  15  16
ATOM     16  C   UNL     1       4.178   3.556  19.482  0.00  0.00    +0.000 C 
ATOM     17  O   UNL     1       3.034   3.182  19.759  0.00  0.00    +0.000 OA
ATOM     18  N   UNL     1       5.250   2.700  19.506  0.00  0.00    +0.000 N 
ATOM     19  H   UNL     1       6.225   2.981  19.445  0.00  0.00    +0.000 HD
BRANCH  18  20
ATOM     20  O   UNL     1       4.996   1.382  19.945  0.00  0.00    +0.000 OA
ATOM     21  H   UNL     1       5.188   1.436  20.908  0.00  0.00    +0.000 HD
ENDBRANCH  18  20
ENDBRANCH  15  16
BRANCH  15  22
ATOM     22  C   UNL     1       6.014   5.306  19.158  0.00  0.00    +0.000 C 
BRANCH  22  23
ATOM     23  C   UNL     1       6.697   5.723  17.834  0.00  0.00    +0.000 C 
ATOM     24  C   UNL     1       7.708   6.845  18.102  0.00  0.00    +0.000 C 
ATOM     25  C   UNL     1       7.424   4.575  17.130  0.00  0.00    +0.000 C 
ENDBRANCH  22  23
ENDBRANCH  15  22
ENDBRANCH   4  15
TORSDOF 6
ENDMDL
MODEL 4
REMARK VINA RESULT:      -7.3      2.451      3.649
REMARK  Name = 
REMARK  10 active torsions:
REMARK  status: ('A' for Active; 'I' for Inactive)
REMARK    1  A    between atoms: C_1  and  C_2
REMARK    2  A    between atoms: C_5  and  N_6
REMARK    3  A    between atoms: N_9  and  C_10
REMARK    4  A    between atoms: C_10  and  C_11
REMARK    5  A    between atoms: C_10  and  C_15
REMARK    6  A    between atoms: C_11  and  C_12
REMARK    7  A    between atoms: C_12  and  C_13
REMARK    8  A    between atoms: C_12  and  C_14
REMARK    9  A    between atoms: N_17  and  O_18
REMARK   10  A    between atoms: C_19  and  C_20
REMARK                            x       y       z     vdW  Elec       q    Type
REMARK                         _______ _______ _______ _____ _____    ______ ____
ROOT
ATOM      1  N   UNL     1       3.068   5.246  17.914  0.00  0.00    +0.000 N 
ATOM      2  C   UNL     1       4.116   5.299  17.020  0.00  0.00    +0.000 C 
ATOM      3  O   UNL     1       4.774   6.284  16.707  0.00  0.00    +0.000 OA
ATOM      4  N   UNL     1       4.441   4.060  16.523  0.00  0.00    +0.000 N 
ATOM      5  H   UNL     1       2.704   4.325  18.097  0.00  0.00    +0.000 HD
ATOM      6  H   UNL     1       3.774   3.299  16.551  0.00  0.00    +0.000 HD
ENDROOT
BRANCH   1  11
ATOM      7  C   UNL     1       0.832   9.614  20.930  0.00  0.00    +0.000 C 
ATOM      8  C   UNL     1       1.430   8.482  20.154  0.00  0.00    +0.000 A 
ATOM      9  C   UNL     1       1.823   8.656  18.831  0.00  0.00    +0.000 A 
ATOM     10  C   UNL     1       2.358   7.590  18.106  0.00  0.00    +0.000 A 
ATOM     11  C   UNL     1       2.529   6.318  18.670  0.00  0.00    +0.000 A 
ATOM     12  C   UNL     1       2.150   6.134  20.019  0.00  0.00    +0.000 A 
ATOM     13  C   UNL     1       2.267   4.839  20.780  0.00  0.00    +0.000 C 
ATOM     14  C   UNL     1       1.595   7.220  20.735  0.00  0.00    +0.000 A 
ENDBRANCH   1  11
BRANCH   4  15
ATOM     15  C   UNL     1       5.635   3.871  15.703  0.00  0.00    +0.000 C 
BRANCH  15  16
ATOM     16  C   UNL     1       6.868   4.430  16.426  0.00  0.00    +0.000 C 
ATOM     17  O   UNL     1       7.709   5.137  15.861  0.00  0.00    +0.000 OA
ATOM     18  N   UNL     1       6.969   4.098  17.753  0.00  0.00    +0.000 N 
ATOM     19  H   UNL     1       6.403   3.398  18.225  0.00  0.00    +0.000 HD
BRANCH  18  20
ATOM     20  O   UNL     1       8.128   4.538  18.429  0.00  0.00    +0.000 OA
ATOM     21  H   UNL     1       8.819   3.928  18.088  0.00  0.00    +0.000 HD
ENDBRANCH  18  20
ENDBRANCH  15  16
BRANCH  15  22
ATOM     22  C   UNL     1       5.467   4.467  14.288  0.00  0.00    +0.000 C 
BRANCH  22  23
ATOM     23  C   UNL     1       6.024   3.617  13.122  0.00  0.00    +0.000 C 
ATOM     24  C   UNL     1       4.914   3.347  12.099  0.00  0.00    +0.000 C 
ATOM     25  C   UNL     1       7.203   4.269  12.395  0.00  0.00    +0.000 C 
ENDBRANCH  22  23
ENDBRANCH  15  22
ENDBRANCH   4  15
TORSDOF 6
ENDMDL
MODEL 5
REMARK VINA RESULT:      -7.3      4.813      6.957
REMARK  Name = 
REMARK  10 active torsions:
REMARK  status: ('A' for Active; 'I' for Inactive)
REMARK    1  A    between atoms: C_1  and  C_2
REMARK    2  A    between atoms: C_5  and  N_6
REMARK    3  A    between atoms: N_9  and  C_10
REMARK    4  A    between atoms: C_10  and  C_11
REMARK    5  A    between atoms: C_10  and  C_15
REMARK    6  A    between atoms: C_11  and  C_12
REMARK    7  A    between atoms: C_12  and  C_13
REMARK    8  A    between atoms: C_12  and  C_14
REMARK    9  A    between atoms: N_17  and  O_18
REMARK   10  A    between atoms: C_19  and  C_20
REMARK                            x       y       z     vdW  Elec       q    Type
REMARK                         _______ _______ _______ _____ _____    ______ ____
ROOT
ATOM      1  N   UNL     1       1.751   8.446  19.826  0.00  0.00    +0.000 N 
ATOM      2  C   UNL     1       2.034   7.100  19.924  0.00  0.00    +0.000 C 
ATOM      3  O   UNL     1       1.602   6.310  20.755  0.00  0.00    +0.000 OA
ATOM      4  N   UNL     1       2.838   6.659  18.901  0.00  0.00    +0.000 N 
ATOM      5  H   UNL     1       2.144   8.910  19.023  0.00  0.00    +0.000 HD
ATOM      6  H   UNL     1       3.409   7.308  18.373  0.00  0.00    +0.000 HD
ENDROOT
BRANCH   1  11
ATOM      7  C   UNL     1      -1.671  11.551  23.263  0.00  0.00    +0.000 C 
ATOM      8  C   UNL     1      -0.797  10.732  22.365  0.00  0.00    +0.000 A 
ATOM      9  C   UNL     1       0.050   9.761  22.890  0.00  0.00    +0.000 A 
ATOM     10  C   UNL     1       0.881   9.017  22.050  0.00  0.00    +0.000 A 
ATOM     11  C   UNL     1       0.895   9.206  20.661  0.00  0.00    +0.000 A 
ATOM     12  C   UNL     1       0.027  10.178  20.114  0.00  0.00    +0.000 A 
ATOM     13  C   UNL     1      -0.089  10.507  18.648  0.00  0.00    +0.000 C 
ATOM     14  C   UNL     1      -0.798  10.934  20.981  0.00  0.00    +0.000 A 
ENDBRANCH   1  11
BRANCH   4  15
ATOM     15  C   UNL     1       3.105   5.235  18.718  0.00  0.00    +0.000 C 
BRANCH  15  16
ATOM     16  C   UNL     1       4.545   5.023  18.229  0.00  0.00    +0.000 C 
ATOM     17  O   UNL     1       4.966   5.498  17.170  0.00  0.00    +0.000 OA
ATOM     18  N   UNL     1       5.341   4.277  19.061  0.00  0.00    +0.000 N 
ATOM     19  H   UNL     1       5.012   3.735  19.854  0.00  0.00    +0.000 HD
BRANCH  18  20
ATOM     20  O   UNL     1       6.651   4.007  18.607  0.00  0.00    +0.000 OA
ATOM     21  H   UNL     1       6.561   4.092  17.632  0.00  0.00    +0.000 HD
ENDBRANCH  18  20
ENDBRANCH  15  16
BRANCH  15  22
ATOM     22  C   UNL     1       2.068   4.565  17.789  0.00  0.00    +0.000 C 
BRANCH  22  23
ATOM     23  C   UNL     1       1.500   3.209  18.271  0.00  0.00    +0.000 C 
ATOM     24  C   UNL     1       2.478   2.082  17.918  0.00  0.00    +0.000 C 
ATOM     25  C   UNL     1       1.226   3.158  19.775  0.00  0.00    +0.000 C 
ENDBRANCH  22  23
ENDBRANCH  15  22
ENDBRANCH   4  15
TORSDOF 6
ENDMDL
MODEL 6
REMARK VINA RESULT:      -7.2      3.642      5.651
REMARK  Name = 
REMARK  10 active torsions:
REMARK  status: ('A' for Active; 'I' for Inactive)
REMARK    1  A    between atoms: C_1  and  C_2
REMARK    2  A    between atoms: C_5  and  N_6
REMARK    3  A    between atoms: N_9  and  C_10
REMARK    4  A    between atoms: C_10  and  C_11
REMARK    5  A    between atoms: C_10  and  C_15
REMARK    6  A    between atoms: C_11  and  C_12
REMARK    7  A    between atoms: C_12  and  C_13
REMARK    8  A    between atoms: C_12  and  C_14
REMARK    9  A    between atoms: N_17  and  O_18
REMARK   10  A    between atoms: C_19  and  C_20
REMARK                            x       y       z     vdW  Elec       q    Type
REMARK                         _______ _______ _______ _____ _____    ______ ____
ROOT
ATOM      1  N   UNL     1       2.654   7.379  18.710  0.00  0.00    +0.000 N 
ATOM      2  C   UNL     1       3.191   6.126  18.915  0.00  0.00    +0.000 C 
ATOM      3  O   UNL     1       3.077   5.424  19.913  0.00  0.00    +0.000 OA
ATOM      4  N   UNL     1       3.852   5.654  17.807  0.00  0.00    +0.000 N 
ATOM      5  H   UNL     1       2.795   7.763  17.789  0.00  0.00    +0.000 HD
ATOM      6  H   UNL     1       4.184   6.288  17.091  0.00  0.00    +0.000 HD
ENDROOT
BRANCH   1  11
ATOM      7  C   UNL     1      -0.568  10.402  22.406  0.00  0.00    +0.000 C 
ATOM      8  C   UNL     1       0.253   9.609  21.437  0.00  0.00    +0.000 A 
ATOM      9  C   UNL     1       0.783   8.374  21.796  0.00  0.00    +0.000 A 
ATOM     10  C   UNL     1       1.568   7.651  20.896  0.00  0.00    +0.000 A 
ATOM     11  C   UNL     1       1.848   8.125  19.607  0.00  0.00    +0.000 A 
ATOM     12  C   UNL     1       1.302   9.371  19.225  0.00  0.00    +0.000 A 
ATOM     13  C   UNL     1       1.500  10.026  17.882  0.00  0.00    +0.000 C 
ATOM     14  C   UNL     1       0.521  10.098  20.154  0.00  0.00    +0.000 A 
ENDBRANCH   1  11
BRANCH   4  15
ATOM     15  C   UNL     1       4.335   4.276  17.753  0.00  0.00    +0.000 C 
BRANCH  15  16
ATOM     16  C   UNL     1       5.715   4.224  17.083  0.00  0.00    +0.000 C 
ATOM     17  O   UNL     1       5.859   4.182  15.857  0.00  0.00    +0.000 OA
ATOM     18  N   UNL     1       6.784   4.239  17.943  0.00  0.00    +0.000 N 
ATOM     19  H   UNL     1       6.727   4.112  18.949  0.00  0.00    +0.000 HD
BRANCH  18  20
ATOM     20  O   UNL     1       8.065   4.122  17.360  0.00  0.00    +0.000 OA
ATOM     21  H   UNL     1       8.458   3.370  17.857  0.00  0.00    +0.000 HD
ENDBRANCH  18  20
ENDBRANCH  15  16
BRANCH  15  22
ATOM     22  C   UNL     1       3.318   3.332  17.075  0.00  0.00    +0.000 C 
BRANCH  22  23
ATOM     23  C   UNL     1       2.695   2.242  17.978  0.00  0.00    +0.000 C 
ATOM     24  C   UNL     1       3.629   1.949  19.159  0.00  0.00    +0.000 C 
ATOM     25  C   UNL     1       1.319   2.616  18.531  0.00  0.00    +0.000 C 
ENDBRANCH  22  23
ENDBRANCH  15  22
ENDBRANCH   4  15
TORSDOF 6
ENDMDL
MODEL 7
REMARK VINA RESULT:      -7.2      2.264      3.954
REMARK  Name = 
REMARK  10 active torsions:
REMARK  status: ('A' for Active; 'I' for Inactive)
REMARK    1  A    between atoms: C_1  and  C_2
REMARK    2  A    between atoms: C_5  and  N_6
REMARK    3  A    between atoms: N_9  and  C_10
REMARK    4  A    between atoms: C_10  and  C_11
REMARK    5  A    between atoms: C_10  and  C_15
REMARK    6  A    between atoms: C_11  and  C_12
REMARK    7  A    between atoms: C_12  and  C_13
REMARK    8  A    between atoms: C_12  and  C_14
REMARK    9  A    between atoms: N_17  and  O_18
REMARK   10  A    between atoms: C_19  and  C_20
REMARK                            x       y       z     vdW  Elec       q    Type
REMARK                         _______ _______ _______ _____ _____    ______ ____
ROOT
ATOM      1  N   UNL     1       4.450   2.991  17.914  0.00  0.00    +0.000 N 
ATOM      2  C   UNL     1       4.810   4.164  17.285  0.00  0.00    +0.000 C 
ATOM      3  O   UNL     1       4.436   5.298  17.561  0.00  0.00    +0.000 OA
ATOM      4  N   UNL     1       5.746   3.962  16.300  0.00  0.00    +0.000 N 
ATOM      5  H   UNL     1       4.927   2.165  17.590  0.00  0.00    +0.000 HD
ATOM      6  H   UNL     1       5.871   3.049  15.882  0.00  0.00    +0.000 HD
ENDROOT
BRANCH   1  11
ATOM      7  C   UNL     1       0.938   2.429  22.444  0.00  0.00    +0.000 C 
ATOM      8  C   UNL     1       1.845   2.557  21.260  0.00  0.00    +0.000 A 
ATOM      9  C   UNL     1       3.203   2.277  21.371  0.00  0.00    +0.000 A 
ATOM     10  C   UNL     1       4.048   2.422  20.269  0.00  0.00    +0.000 A 
ATOM     11  C   UNL     1       3.574   2.842  19.019  0.00  0.00    +0.000 A 
ATOM     12  C   UNL     1       2.193   3.114  18.890  0.00  0.00    +0.000 A 
ATOM     13  C   UNL     1       1.517   3.570  17.623  0.00  0.00    +0.000 C 
ATOM     14  C   UNL     1       1.353   2.976  20.020  0.00  0.00    +0.000 A 
ENDBRANCH   1  11
BRANCH   4  15
ATOM     15  C   UNL     1       6.394   5.092  15.639  0.00  0.00    +0.000 C 
BRANCH  15  16
ATOM     16  C   UNL     1       6.796   4.711  14.208  0.00  0.00    +0.000 C 
ATOM     17  O   UNL     1       7.555   5.402  13.522  0.00  0.00    +0.000 OA
ATOM     18  N   UNL     1       6.261   3.536  13.744  0.00  0.00    +0.000 N 
ATOM     19  H   UNL     1       5.515   3.015  14.195  0.00  0.00    +0.000 HD
BRANCH  18  20
ATOM     20  O   UNL     1       6.556   3.192  12.406  0.00  0.00    +0.000 OA
ATOM     21  H   UNL     1       5.796   3.575  11.914  0.00  0.00    +0.000 HD
ENDBRANCH  18  20
ENDBRANCH  15  16
BRANCH  15  22
ATOM     22  C   UNL     1       7.586   5.636  16.456  0.00  0.00    +0.000 C 
BRANCH  22  23
ATOM     23  C   UNL     1       7.231   6.561  17.644  0.00  0.00    +0.000 C 
ATOM     24  C   UNL     1       7.749   5.949  18.952  0.00  0.00    +0.000 C 
ATOM     25  C   UNL     1       7.799   7.975  17.513  0.00  0.00    +0.000 C 
ENDBRANCH  22  23
ENDBRANCH  15  22
ENDBRANCH   4  15
TORSDOF 6
ENDMDL
MODEL 8
REMARK VINA RESULT:      -7.2      4.005      6.110
REMARK  Name = 
REMARK  10 active torsions:
REMARK  status: ('A' for Active; 'I' for Inactive)
REMARK    1  A    between atoms: C_1  and  C_2
REMARK    2  A    between atoms: C_5  and  N_6
REMARK    3  A    between atoms: N_9  and  C_10
REMARK    4  A    between atoms: C_10  and  C_11
REMARK    5  A    between atoms: C_10  and  C_15
REMARK    6  A    between atoms: C_11  and  C_12
REMARK    7  A    between atoms: C_12  and  C_13
REMARK    8  A    between atoms: C_12  and  C_14
REMARK    9  A    between atoms: N_17  and  O_18
REMARK   10  A    between atoms: C_19  and  C_20
REMARK                            x       y       z     vdW  Elec       q    Type
REMARK                         _______ _______ _______ _____ _____    ______ ____
ROOT
ATOM      1  N   UNL     1       2.867   6.953  18.993  0.00  0.00    +0.000 N 
ATOM      2  C   UNL     1       2.633   5.747  18.366  0.00  0.00    +0.000 C 
ATOM      3  O   UNL     1       1.653   5.436  17.699  0.00  0.00    +0.000 OA
ATOM      4  N   UNL     1       3.692   4.880  18.489  0.00  0.00    +0.000 N 
ATOM      5  H   UNL     1       3.771   7.043  19.428  0.00  0.00    +0.000 HD
ATOM      6  H   UNL     1       4.375   4.998  19.227  0.00  0.00    +0.000 HD
ENDROOT
BRANCH   1  11
ATOM      7  C   UNL     1      -0.577  11.569  18.950  0.00  0.00    +0.000 C 
ATOM      8  C   UNL     1       0.332  10.380  18.970  0.00  0.00    +0.000 A 
ATOM      9  C   UNL     1       1.055  10.018  17.838  0.00  0.00    +0.000 A 
ATOM     10  C   UNL     1       1.883   8.894  17.855  0.00  0.00    +0.000 A 
ATOM     11  C   UNL     1       2.027   8.095  18.998  0.00  0.00    +0.000 A 
ATOM     12  C   UNL     1       1.311   8.462  20.159  0.00  0.00    +0.000 A 
ATOM     13  C   UNL     1       1.352   7.720  21.470  0.00  0.00    +0.000 C 
ATOM     14  C   UNL     1       0.465   9.595  20.121  0.00  0.00    +0.000 A 
ENDBRANCH   1  11
BRANCH   4  15
ATOM     15  C   UNL     1       3.722   3.623  17.747  0.00  0.00    +0.000 C 
BRANCH  15  16
ATOM     16  C   UNL     1       3.987   2.450  18.700  0.00  0.00    +0.000 C 
ATOM     17  O   UNL     1       3.285   1.434  18.719  0.00  0.00    +0.000 OA
ATOM     18  N   UNL     1       5.071   2.602  19.528  0.00  0.00    +0.000 N 
ATOM     19  H   UNL     1       5.582   3.468  19.668  0.00  0.00    +0.000 HD
BRANCH  18  20
ATOM     20  O   UNL     1       5.300   1.570  20.464  0.00  0.00    +0.000 OA
ATOM     21  H   UNL     1       5.249   0.761  19.908  0.00  0.00    +0.000 HD
ENDBRANCH  18  20
ENDBRANCH  15  16
BRANCH  15  22
ATOM     22  C   UNL     1       4.729   3.665  16.576  0.00  0.00    +0.000 C 
BRANCH  22  23
ATOM     23  C   UNL     1       5.637   4.914  16.505  0.00  0.00    +0.000 C 
ATOM     24  C   UNL     1       7.092   4.516  16.784  0.00  0.00    +0.000 C 
ATOM     25  C   UNL     1       5.583   5.637  15.158  0.00  0.00    +0.000 C 
ENDBRANCH  22  23
ENDBRANCH  15  22
ENDBRANCH   4  15
TORSDOF 6
ENDMDL
MODEL 9
REMARK VINA RESULT:      -7.2      4.417      6.343
REMARK  Name = 
REMARK  10 active torsions:
REMARK  status: ('A' for Active; 'I' for Inactive)
REMARK    1  A    between atoms: C_1  and  C_2
REMARK    2  A    between atoms: C_5  and  N_6
REMARK    3  A    between atoms: N_9  and  C_10
REMARK    4  A    between atoms: C_10  and  C_11
REMARK    5  A    between atoms: C_10  and  C_15
REMARK    6  A    between atoms: C_11  and  C_12
REMARK    7  A    between atoms: C_12  and  C_13
REMARK    8  A    between atoms: C_12  and  C_14
REMARK    9  A    between atoms: N_17  and  O_18
REMARK   10  A    between atoms: C_19  and  C_20
REMARK                            x       y       z     vdW  Elec       q    Type
REMARK                         _______ _______ _______ _____ _____    ______ ____
ROOT
ATOM      1  N   UNL     1       2.674   7.084  19.941  0.00  0.00    +0.000 N 
ATOM      2  C   UNL     1       2.675   6.061  19.017  0.00  0.00    +0.000 C 
ATOM      3  O   UNL     1       1.829   5.836  18.159  0.00  0.00    +0.000 OA
ATOM      4  N   UNL     1       3.817   5.299  19.083  0.00  0.00    +0.000 N 
ATOM      5  H   UNL     1       3.501   7.149  20.513  0.00  0.00    +0.000 HD
ATOM      6  H   UNL     1       4.387   5.291  19.920  0.00  0.00    +0.000 HD
ENDROOT
BRANCH   1  11
ATOM      7  C   UNL     1      -1.267  11.226  20.638  0.00  0.00    +0.000 C 
ATOM      8  C   UNL     1      -0.255  10.140  20.446  0.00  0.00    +0.000 A 
ATOM      9  C   UNL     1      -0.061   9.167  21.422  0.00  0.00    +0.000 A 
ATOM     10  C   UNL     1       0.900   8.171  21.247  0.00  0.00    +0.000 A 
ATOM     11  C   UNL     1       1.697   8.100  20.096  0.00  0.00    +0.000 A 
ATOM     12  C   UNL     1       1.498   9.072  19.090  0.00  0.00    +0.000 A 
ATOM     13  C   UNL     1       2.262   9.142  17.793  0.00  0.00    +0.000 C 
ATOM     14  C   UNL     1       0.529  10.084  19.289  0.00  0.00    +0.000 A 
ENDBRANCH   1  11
BRANCH   4  15
ATOM     15  C   UNL     1       4.098   4.281  18.074  0.00  0.00    +0.000 C 
BRANCH  15  16
ATOM     16  C   UNL     1       4.372   2.929  18.747  0.00  0.00    +0.000 C 
ATOM     17  O   UNL     1       4.854   2.834  19.880  0.00  0.00    +0.000 OA
ATOM     18  N   UNL     1       4.033   1.827  18.004  0.00  0.00    +0.000 N 
ATOM     19  H   UNL     1       3.787   1.839  17.019  0.00  0.00    +0.000 HD
BRANCH  18  20
ATOM     20  O   UNL     1       4.337   0.568  18.567  0.00  0.00    +0.000 OA
ATOM     21  H   UNL     1       3.572   0.017  18.287  0.00  0.00    +0.000 HD
ENDBRANCH  18  20
ENDBRANCH  15  16
BRANCH  15  22
ATOM     22  C   UNL     1       5.240   4.706  17.125  0.00  0.00    +0.000 C 
BRANCH  22  23
ATOM     23  C   UNL     1       6.435   5.434  17.783  0.00  0.00    +0.000 C 
ATOM     24  C   UNL     1       7.694   4.564  17.681  0.00  0.00    +0.000 C 
ATOM     25  C   UNL     1       6.740   6.799  17.162  0.00  0.00    +0.000 C 
ENDBRANCH  22  23
ENDBRANCH  15  22
ENDBRANCH   4  15
TORSDOF 6
ENDMDL
