MODEL 1
REMARK VINA RESULT:      -8.1      0.000      0.000
REMARK  Name = 
REMARK  11 active torsions:
REMARK  status: ('A' for Active; 'I' for Inactive)
REMARK    1  A    between atoms: C_1  and  C_2
REMARK    2  A    between atoms: C_2  and  C_3
REMARK    3  A    between atoms: C_3  and  C_4
REMARK    4  A    between atoms: C_4  and  N_5
REMARK    5  A    between atoms: C_4  and  C_17
REMARK    6  A    between atoms: C_6  and  C_8
REMARK    7  A    between atoms: C_8  and  C_9
REMARK    8  A    between atoms: N_19  and  C_20
REMARK    9  A    between atoms: N_22  and  C_23
REMARK   10  A    between atoms: C_23  and  C_24
REMARK   11  A    between atoms: C_24  and  O_25
REMARK                            x       y       z     vdW  Elec       q    Type
REMARK                         _______ _______ _______ _____ _____    ______ ____
ROOT
ATOM      1  C   UNL     1       7.396   5.639  17.601  0.00  0.00    +0.000 C 
ENDROOT
BRANCH   1   2
ATOM      2  N   UNL     1       7.374   5.803  16.140  0.00  0.00    +0.000 N 
ATOM      3  C   UNL     1       6.976   4.791  15.291  0.00  0.00    +0.000 C 
ATOM      4  O   UNL     1       6.669   3.669  15.689  0.00  0.00    +0.000 OA
ATOM      5  H   UNL     1       7.911   6.570  15.751  0.00  0.00    +0.000 HD
BRANCH   3   6
ATOM      6  C   UNL     1       6.925   5.159  13.826  0.00  0.00    +0.000 C 
BRANCH   6   7
ATOM      7  C   UNL     1       6.365   4.107  12.902  0.00  0.00    +0.000 A 
ATOM      8  C   UNL     1       4.999   3.993  12.604  0.00  0.00    +0.000 A 
ATOM      9  C   UNL     1       4.551   2.987  11.746  0.00  0.00    +0.000 A 
ATOM     10  F   UNL     1       3.240   2.872  11.492  0.00  0.00    +0.000 F 
ATOM     11  C   UNL     1       5.436   2.097  11.151  0.00  0.00    +0.000 A 
ATOM     12  C   UNL     1       6.789   2.241  11.403  0.00  0.00    +0.000 A 
ATOM     13  F   UNL     1       7.663   1.410  10.823  0.00  0.00    +0.000 F 
ATOM     14  C   UNL     1       7.259   3.235  12.258  0.00  0.00    +0.000 A 
ENDBRANCH   6   7
ENDBRANCH   3   6
ENDBRANCH   1   2
BRANCH   1  15
ATOM     15  C   UNL     1       6.014   5.189  18.083  0.00  0.00    +0.000 C 
ATOM     16  O   UNL     1       5.062   5.969  18.069  0.00  0.00    +0.000 OA
ATOM     17  N   UNL     1       6.006   3.928  18.655  0.00  0.00    +0.000 N 
ATOM     18  H   UNL     1       6.845   3.674  19.182  0.00  0.00    +0.000 HD
BRANCH  17  19
ATOM     19  C   UNL     1       4.847   3.434  19.159  0.00  0.00    +0.000 A 
ATOM     20  C   UNL     1       3.576   3.897  18.889  0.00  0.00    +0.000 A 
ATOM     21  N   UNL     1       2.785   3.208  19.753  0.00  0.00    +0.000 N 
ATOM     22  C   UNL     1       3.583   2.361  20.469  0.00  0.00    +0.000 A 
ATOM     23  N   UNL     1       4.828   2.418  20.058  0.00  0.00    +0.000 NA
BRANCH  21  24
ATOM     24  C   UNL     1       1.356   3.387  19.874  0.00  0.00    +0.000 C 
BRANCH  24  25
ATOM     25  C   UNL     1       0.975   4.760  20.423  0.00  0.00    +0.000 C 
BRANCH  25  26
ATOM     26  O   UNL     1       2.027   5.352  21.177  0.00  0.00    +0.000 OA
ATOM     27  H   UNL     1       2.876   5.022  20.822  0.00  0.00    +0.000 HD
ENDBRANCH  25  26
ENDBRANCH  24  25
ENDBRANCH  21  24
ENDBRANCH  17  19
ENDBRANCH   1  15
BRANCH   1  28
ATOM     28  C   UNL     1       7.960   6.873  18.324  0.00  0.00    +0.000 C 
BRANCH  28  30
ATOM     29  C   UNL     1       8.512   9.320  18.294  0.00  0.00    +0.000 C 
ATOM     30  C   UNL     1       7.766   8.198  17.581  0.00  0.00    +0.000 C 
ENDBRANCH  28  30
ENDBRANCH   1  28
TORSDOF 10
ENDMDL
MODEL 2
REMARK VINA RESULT:      -8.1      1.156      1.951
REMARK  Name = 
REMARK  11 active torsions:
REMARK  status: ('A' for Active; 'I' for Inactive)
REMARK    1  A    between atoms: C_1  and  C_2
REMARK    2  A    between atoms: C_2  and  C_3
REMARK    3  A    between atoms: C_3  and  C_4
REMARK    4  A    between atoms: C_4  and  N_5
REMARK    5  A    between atoms: C_4  and  C_17
REMARK    6  A    between atoms: C_6  and  C_8
REMARK    7  A    between atoms: C_8  and  C_9
REMARK    8  A    between atoms: N_19  and  C_20
REMARK    9  A    between atoms: N_22  and  C_23
REMARK   10  A    between atoms: C_23  and  C_24
REMARK   11  A    between atoms: C_24  and  O_25
REMARK                            x       y       z     vdW  Elec       q    Type
REMARK                         _______ _______ _______ _____ _____    ______ ____
ROOT
ATOM      1  C   UNL     1       6.802   5.948  16.835  0.00  0.00    +0.000 C 
ENDROOT
BRANCH   1   2
ATOM      2  N   UNL     1       7.046   5.813  15.391  0.00  0.00    +0.000 N 
ATOM      3  C   UNL     1       6.836   4.628  14.716  0.00  0.00    +0.000 C 
ATOM      4  O   UNL     1       6.487   3.593  15.279  0.00  0.00    +0.000 OA
ATOM      5  H   UNL     1       7.628   6.518  14.951  0.00  0.00    +0.000 HD
BRANCH   3   6
ATOM      6  C   UNL     1       7.047   4.689  13.221  0.00  0.00    +0.000 C 
BRANCH   6   7
ATOM      7  C   UNL     1       6.300   3.663  12.407  0.00  0.00    +0.000 A 
ATOM      8  C   UNL     1       6.854   2.433  12.023  0.00  0.00    +0.000 A 
ATOM      9  C   UNL     1       6.105   1.534  11.261  0.00  0.00    +0.000 A 
ATOM     10  F   UNL     1       6.656   0.376  10.877  0.00  0.00    +0.000 F 
ATOM     11  C   UNL     1       4.798   1.818  10.889  0.00  0.00    +0.000 A 
ATOM     12  C   UNL     1       4.232   3.008  11.312  0.00  0.00    +0.000 A 
ATOM     13  F   UNL     1       2.965   3.293  10.985  0.00  0.00    +0.000 F 
ATOM     14  C   UNL     1       4.961   3.922  12.070  0.00  0.00    +0.000 A 
ENDBRANCH   6   7
ENDBRANCH   3   6
ENDBRANCH   1   2
BRANCH   1  15
ATOM     15  C   UNL     1       5.485   5.254  17.195  0.00  0.00    +0.000 C 
ATOM     16  O   UNL     1       4.406   5.765  16.896  0.00  0.00    +0.000 OA
ATOM     17  N   UNL     1       5.645   4.133  17.993  0.00  0.00    +0.000 N 
ATOM     18  H   UNL     1       6.409   4.177  18.672  0.00  0.00    +0.000 HD
BRANCH  17  19
ATOM     19  C   UNL     1       4.548   3.456  18.414  0.00  0.00    +0.000 A 
ATOM     20  C   UNL     1       3.962   3.541  19.660  0.00  0.00    +0.000 A 
ATOM     21  N   UNL     1       3.023   2.559  19.651  0.00  0.00    +0.000 N 
ATOM     22  C   UNL     1       3.059   1.956  18.425  0.00  0.00    +0.000 A 
ATOM     23  N   UNL     1       3.916   2.548  17.628  0.00  0.00    +0.000 NA
BRANCH  21  24
ATOM     24  C   UNL     1       2.173   2.230  20.771  0.00  0.00    +0.000 C 
BRANCH  24  25
ATOM     25  C   UNL     1       1.327   3.411  21.241  0.00  0.00    +0.000 C 
BRANCH  25  26
ATOM     26  O   UNL     1       0.433   3.872  20.233  0.00  0.00    +0.000 OA
ATOM     27  H   UNL     1       0.699   3.465  19.385  0.00  0.00    +0.000 HD
ENDBRANCH  25  26
ENDBRANCH  24  25
ENDBRANCH  21  24
ENDBRANCH  17  19
ENDBRANCH   1  15
BRANCH   1  28
ATOM     28  C   UNL     1       6.916   7.403  17.318  0.00  0.00    +0.000 C 
BRANCH  28  30
ATOM     29  C   UNL     1       8.441   9.201  18.171  0.00  0.00    +0.000 C 
ATOM     30  C   UNL     1       8.154   7.705  18.166  0.00  0.00    +0.000 C 
ENDBRANCH  28  30
ENDBRANCH   1  28
TORSDOF 10
ENDMDL
MODEL 3
REMARK VINA RESULT:      -8.0      1.155      2.178
REMARK  Name = 
REMARK  11 active torsions:
REMARK  status: ('A' for Active; 'I' for Inactive)
REMARK    1  A    between atoms: C_1  and  C_2
REMARK    2  A    between atoms: C_2  and  C_3
REMARK    3  A    between atoms: C_3  and  C_4
REMARK    4  A    between atoms: C_4  and  N_5
REMARK    5  A    between atoms: C_4  and  C_17
REMARK    6  A    between atoms: C_6  and  C_8
REMARK    7  A    between atoms: C_8  and  C_9
REMARK    8  A    between atoms: N_19  and  C_20
REMARK    9  A    between atoms: N_22  and  C_23
REMARK   10  A    between atoms: C_23  and  C_24
REMARK   11  A    between atoms: C_24  and  O_25
REMARK                            x       y       z     vdW  Elec       q    Type
REMARK                         _______ _______ _______ _____ _____    ______ ____
ROOT
ATOM      1  C   UNL     1       7.092   5.846  17.365  0.00  0.00    +0.000 C 
ENDROOT
BRANCH   1   2
ATOM      2  N   UNL     1       7.249   5.890  15.904  0.00  0.00    +0.000 N 
ATOM      3  C   UNL     1       6.989   4.798  15.102  0.00  0.00    +0.000 C 
ATOM      4  O   UNL     1       6.664   3.702  15.553  0.00  0.00    +0.000 OA
ATOM      5  H   UNL     1       7.810   6.643  15.520  0.00  0.00    +0.000 HD
BRANCH   3   6
ATOM      6  C   UNL     1       7.112   5.043  13.615  0.00  0.00    +0.000 C 
BRANCH   6   7
ATOM      7  C   UNL     1       6.507   3.990  12.722  0.00  0.00    +0.000 A 
ATOM      8  C   UNL     1       7.254   2.963  12.127  0.00  0.00    +0.000 A 
ATOM      9  C   UNL     1       6.626   2.027  11.303  0.00  0.00    +0.000 A 
ATOM     10  F   UNL     1       7.356   1.068  10.718  0.00  0.00    +0.000 F 
ATOM     11  C   UNL     1       5.257   2.070  11.072  0.00  0.00    +0.000 A 
ATOM     12  C   UNL     1       4.511   3.052  11.700  0.00  0.00    +0.000 A 
ATOM     13  F   UNL     1       3.186   3.101  11.511  0.00  0.00    +0.000 F 
ATOM     14  C   UNL     1       5.115   3.999  12.524  0.00  0.00    +0.000 A 
ENDBRANCH   6   7
ENDBRANCH   3   6
ENDBRANCH   1   2
BRANCH   1  15
ATOM     15  C   UNL     1       5.602   5.795  17.715  0.00  0.00    +0.000 C 
ATOM     16  O   UNL     1       4.759   6.227  16.930  0.00  0.00    +0.000 OA
ATOM     17  N   UNL     1       5.348   5.380  19.012  0.00  0.00    +0.000 N 
ATOM     18  H   UNL     1       6.035   5.669  19.714  0.00  0.00    +0.000 HD
BRANCH  17  19
ATOM     19  C   UNL     1       4.067   5.333  19.456  0.00  0.00    +0.000 A 
ATOM     20  C   UNL     1       3.330   4.195  19.707  0.00  0.00    +0.000 A 
ATOM     21  N   UNL     1       2.078   4.661  19.954  0.00  0.00    +0.000 N 
ATOM     22  C   UNL     1       2.114   6.024  19.871  0.00  0.00    +0.000 A 
ATOM     23  N   UNL     1       3.335   6.457  19.660  0.00  0.00    +0.000 NA
BRANCH  21  24
ATOM     24  C   UNL     1       0.933   3.824  20.228  0.00  0.00    +0.000 C 
BRANCH  24  25
ATOM     25  C   UNL     1       1.288   2.579  21.037  0.00  0.00    +0.000 C 
BRANCH  25  26
ATOM     26  O   UNL     1       1.792   2.899  22.330  0.00  0.00    +0.000 OA
ATOM     27  H   UNL     1       2.765   2.974  22.265  0.00  0.00    +0.000 HD
ENDBRANCH  25  26
ENDBRANCH  24  25
ENDBRANCH  21  24
ENDBRANCH  17  19
ENDBRANCH   1  15
BRANCH   1  28
ATOM     28  C   UNL     1       7.882   6.957  18.076  0.00  0.00    +0.000 C 
BRANCH  28  30
ATOM     29  C   UNL     1       8.479   9.384  18.295  0.00  0.00    +0.000 C 
ATOM     30  C   UNL     1       7.699   8.357  17.483  0.00  0.00    +0.000 C 
ENDBRANCH  28  30
ENDBRANCH   1  28
TORSDOF 10
ENDMDL
MODEL 4
REMARK VINA RESULT:      -7.7      3.275      7.049
REMARK  Name = 
REMARK  11 active torsions:
REMARK  status: ('A' for Active; 'I' for Inactive)
REMARK    1  A    between atoms: C_1  and  C_2
REMARK    2  A    between atoms: C_2  and  C_3
REMARK    3  A    between atoms: C_3  and  C_4
REMARK    4  A    between atoms: C_4  and  N_5
REMARK    5  A    between atoms: C_4  and  C_17
REMARK    6  A    between atoms: C_6  and  C_8
REMARK    7  A    between atoms: C_8  and  C_9
REMARK    8  A    between atoms: N_19  and  C_20
REMARK    9  A    between atoms: N_22  and  C_23
REMARK   10  A    between atoms: C_23  and  C_24
REMARK   11  A    between atoms: C_24  and  O_25
REMARK                            x       y       z     vdW  Elec       q    Type
REMARK                         _______ _______ _______ _____ _____    ______ ____
ROOT
ATOM      1  C   UNL     1       5.578   6.098  17.443  0.00  0.00    +0.000 C 
ENDROOT
BRANCH   1   2
ATOM      2  N   UNL     1       4.221   5.814  17.932  0.00  0.00    +0.000 N 
ATOM      3  C   UNL     1       3.249   6.791  18.013  0.00  0.00    +0.000 C 
ATOM      4  O   UNL     1       3.464   7.970  17.740  0.00  0.00    +0.000 OA
ATOM      5  H   UNL     1       4.087   4.961  18.463  0.00  0.00    +0.000 HD
BRANCH   3   6
ATOM      6  C   UNL     1       1.884   6.309  18.449  0.00  0.00    +0.000 C 
BRANCH   6   7
ATOM      7  C   UNL     1       1.792   4.856  18.838  0.00  0.00    +0.000 A 
ATOM      8  C   UNL     1       1.389   4.424  20.111  0.00  0.00    +0.000 A 
ATOM      9  C   UNL     1       1.337   3.059  20.403  0.00  0.00    +0.000 A 
ATOM     10  F   UNL     1       0.979   2.661  21.631  0.00  0.00    +0.000 F 
ATOM     11  C   UNL     1       1.653   2.103  19.447  0.00  0.00    +0.000 A 
ATOM     12  C   UNL     1       2.000   2.527  18.176  0.00  0.00    +0.000 A 
ATOM     13  F   UNL     1       2.286   1.622  17.231  0.00  0.00    +0.000 F 
ATOM     14  C   UNL     1       2.062   3.882  17.862  0.00  0.00    +0.000 A 
ENDBRANCH   6   7
ENDBRANCH   3   6
ENDBRANCH   1   2
BRANCH   1  15
ATOM     15  C   UNL     1       5.627   5.891  15.926  0.00  0.00    +0.000 C 
ATOM     16  O   UNL     1       5.214   6.763  15.163  0.00  0.00    +0.000 OA
ATOM     17  N   UNL     1       6.014   4.616  15.550  0.00  0.00    +0.000 N 
ATOM     18  H   UNL     1       5.708   3.858  16.165  0.00  0.00    +0.000 HD
BRANCH  17  19
ATOM     19  C   UNL     1       6.055   4.297  14.232  0.00  0.00    +0.000 A 
ATOM     20  C   UNL     1       5.082   3.622  13.523  0.00  0.00    +0.000 A 
ATOM     21  N   UNL     1       5.655   3.394  12.312  0.00  0.00    +0.000 N 
ATOM     22  C   UNL     1       6.904   3.948  12.329  0.00  0.00    +0.000 A 
ATOM     23  N   UNL     1       7.130   4.581  13.455  0.00  0.00    +0.000 NA
BRANCH  21  24
ATOM     24  C   UNL     1       5.026   2.669  11.233  0.00  0.00    +0.000 C 
BRANCH  24  25
ATOM     25  C   UNL     1       3.569   3.071  11.019  0.00  0.00    +0.000 C 
BRANCH  25  26
ATOM     26  O   UNL     1       3.435   4.155  10.106  0.00  0.00    +0.000 OA
ATOM     27  H   UNL     1       4.008   3.973   9.335  0.00  0.00    +0.000 HD
ENDBRANCH  25  26
ENDBRANCH  24  25
ENDBRANCH  21  24
ENDBRANCH  17  19
ENDBRANCH   1  15
BRANCH   1  28
ATOM     28  C   UNL     1       6.658   5.337  18.231  0.00  0.00    +0.000 C 
BRANCH  28  30
ATOM     29  C   UNL     1       8.356   5.617  20.055  0.00  0.00    +0.000 C 
ATOM     30  C   UNL     1       7.799   6.207  18.765  0.00  0.00    +0.000 C 
ENDBRANCH  28  30
ENDBRANCH   1  28
TORSDOF 10
ENDMDL
MODEL 5
REMARK VINA RESULT:      -7.6      2.989      7.078
REMARK  Name = 
REMARK  11 active torsions:
REMARK  status: ('A' for Active; 'I' for Inactive)
REMARK    1  A    between atoms: C_1  and  C_2
REMARK    2  A    between atoms: C_2  and  C_3
REMARK    3  A    between atoms: C_3  and  C_4
REMARK    4  A    between atoms: C_4  and  N_5
REMARK    5  A    between atoms: C_4  and  C_17
REMARK    6  A    between atoms: C_6  and  C_8
REMARK    7  A    between atoms: C_8  and  C_9
REMARK    8  A    between atoms: N_19  and  C_20
REMARK    9  A    between atoms: N_22  and  C_23
REMARK   10  A    between atoms: C_23  and  C_24
REMARK   11  A    between atoms: C_24  and  O_25
REMARK                            x       y       z     vdW  Elec       q    Type
REMARK                         _______ _______ _______ _____ _____    ______ ____
ROOT
ATOM      1  C   UNL     1       6.318   6.798  17.218  0.00  0.00    +0.000 C 
ENDROOT
BRANCH   1   2
ATOM      2  N   UNL     1       5.686   6.007  18.284  0.00  0.00    +0.000 N 
ATOM      3  C   UNL     1       5.825   4.637  18.365  0.00  0.00    +0.000 C 
ATOM      4  O   UNL     1       6.435   3.978  17.526  0.00  0.00    +0.000 OA
ATOM      5  H   UNL     1       4.926   6.442  18.796  0.00  0.00    +0.000 HD
BRANCH   3   6
ATOM      6  C   UNL     1       5.186   3.993  19.574  0.00  0.00    +0.000 C 
BRANCH   6   7
ATOM      7  C   UNL     1       3.687   3.837  19.521  0.00  0.00    +0.000 A 
ATOM      8  C   UNL     1       2.927   3.339  20.590  0.00  0.00    +0.000 A 
ATOM      9  C   UNL     1       1.542   3.213  20.466  0.00  0.00    +0.000 A 
ATOM     10  F   UNL     1       0.832   2.710  21.484  0.00  0.00    +0.000 F 
ATOM     11  C   UNL     1       0.883   3.597  19.306  0.00  0.00    +0.000 A 
ATOM     12  C   UNL     1       1.625   4.137  18.270  0.00  0.00    +0.000 A 
ATOM     13  F   UNL     1       1.009   4.536  17.150  0.00  0.00    +0.000 F 
ATOM     14  C   UNL     1       3.008   4.269  18.369  0.00  0.00    +0.000 A 
ENDBRANCH   6   7
ENDBRANCH   3   6
ENDBRANCH   1   2
BRANCH   1  15
ATOM     15  C   UNL     1       5.970   6.188  15.856  0.00  0.00    +0.000 C 
ATOM     16  O   UNL     1       4.812   6.204  15.441  0.00  0.00    +0.000 OA
ATOM     17  N   UNL     1       7.024   5.513  15.263  0.00  0.00    +0.000 N 
ATOM     18  H   UNL     1       7.655   5.024  15.902  0.00  0.00    +0.000 HD
BRANCH  17  19
ATOM     19  C   UNL     1       6.828   4.893  14.072  0.00  0.00    +0.000 A 
ATOM     20  C   UNL     1       5.909   3.897  13.810  0.00  0.00    +0.000 A 
ATOM     21  N   UNL     1       6.217   3.489  12.551  0.00  0.00    +0.000 N 
ATOM     22  C   UNL     1       7.260   4.251  12.106  0.00  0.00    +0.000 A 
ATOM     23  N   UNL     1       7.585   5.172  12.982  0.00  0.00    +0.000 NA
BRANCH  21  24
ATOM     24  C   UNL     1       5.547   2.417  11.852  0.00  0.00    +0.000 C 
BRANCH  24  25
ATOM     25  C   UNL     1       6.500   1.564  11.019  0.00  0.00    +0.000 C 
BRANCH  25  26
ATOM     26  O   UNL     1       6.503   0.200  11.426  0.00  0.00    +0.000 OA
ATOM     27  H   UNL     1       6.266   0.167  12.374  0.00  0.00    +0.000 HD
ENDBRANCH  25  26
ENDBRANCH  24  25
ENDBRANCH  21  24
ENDBRANCH  17  19
ENDBRANCH   1  15
BRANCH   1  28
ATOM     28  C   UNL     1       7.821   7.016  17.460  0.00  0.00    +0.000 C 
BRANCH  28  30
ATOM     29  C   UNL     1       8.290   9.401  18.078  0.00  0.00    +0.000 C 
ATOM     30  C   UNL     1       8.156   7.978  18.603  0.00  0.00    +0.000 C 
ENDBRANCH  28  30
ENDBRANCH   1  28
TORSDOF 10
ENDMDL
MODEL 6
REMARK VINA RESULT:      -7.6      2.841      6.806
REMARK  Name = 
REMARK  11 active torsions:
REMARK  status: ('A' for Active; 'I' for Inactive)
REMARK    1  A    between atoms: C_1  and  C_2
REMARK    2  A    between atoms: C_2  and  C_3
REMARK    3  A    between atoms: C_3  and  C_4
REMARK    4  A    between atoms: C_4  and  N_5
REMARK    5  A    between atoms: C_4  and  C_17
REMARK    6  A    between atoms: C_6  and  C_8
REMARK    7  A    between atoms: C_8  and  C_9
REMARK    8  A    between atoms: N_19  and  C_20
REMARK    9  A    between atoms: N_22  and  C_23
REMARK   10  A    between atoms: C_23  and  C_24
REMARK   11  A    between atoms: C_24  and  O_25
REMARK                            x       y       z     vdW  Elec       q    Type
REMARK                         _______ _______ _______ _____ _____    ______ ____
ROOT
ATOM      1  C   UNL     1       6.627   6.611  17.601  0.00  0.00    +0.000 C 
ENDROOT
BRANCH   1   2
ATOM      2  N   UNL     1       5.816   5.975  18.650  0.00  0.00    +0.000 N 
ATOM      3  C   UNL     1       4.444   6.112  18.702  0.00  0.00    +0.000 C 
ATOM      4  O   UNL     1       3.812   6.815  17.916  0.00  0.00    +0.000 OA
ATOM      5  H   UNL     1       6.298   5.665  19.486  0.00  0.00    +0.000 HD
BRANCH   3   6
ATOM      6  C   UNL     1       3.757   5.318  19.790  0.00  0.00    +0.000 C 
BRANCH   6   7
ATOM      7  C   UNL     1       3.170   3.995  19.369  0.00  0.00    +0.000 A 
ATOM      8  C   UNL     1       3.951   2.889  19.001  0.00  0.00    +0.000 A 
ATOM      9  C   UNL     1       3.337   1.696  18.613  0.00  0.00    +0.000 A 
ATOM     10  F   UNL     1       4.094   0.657  18.237  0.00  0.00    +0.000 F 
ATOM     11  C   UNL     1       1.955   1.564  18.604  0.00  0.00    +0.000 A 
ATOM     12  C   UNL     1       1.185   2.638  19.017  0.00  0.00    +0.000 A 
ATOM     13  F   UNL     1      -0.149   2.526  19.039  0.00  0.00    +0.000 F 
ATOM     14  C   UNL     1       1.774   3.838  19.406  0.00  0.00    +0.000 A 
ENDBRANCH   6   7
ENDBRANCH   3   6
ENDBRANCH   1   2
BRANCH   1  15
ATOM     15  C   UNL     1       6.842   5.619  16.453  0.00  0.00    +0.000 C 
ATOM     16  O   UNL     1       7.648   4.696  16.566  0.00  0.00    +0.000 OA
ATOM     17  N   UNL     1       6.181   5.965  15.286  0.00  0.00    +0.000 N 
ATOM     18  H   UNL     1       6.110   6.968  15.097  0.00  0.00    +0.000 HD
BRANCH  17  19
ATOM     19  C   UNL     1       6.327   5.187  14.185  0.00  0.00    +0.000 A 
ATOM     20  C   UNL     1       5.426   4.252  13.719  0.00  0.00    +0.000 A 
ATOM     21  N   UNL     1       6.091   3.625  12.714  0.00  0.00    +0.000 N 
ATOM     22  C   UNL     1       7.322   4.208  12.599  0.00  0.00    +0.000 A 
ATOM     23  N   UNL     1       7.449   5.221  13.423  0.00  0.00    +0.000 NA
BRANCH  21  24
ATOM     24  C   UNL     1       5.561   2.524  11.945  0.00  0.00    +0.000 C 
BRANCH  24  25
ATOM     25  C   UNL     1       4.588   2.974  10.858  0.00  0.00    +0.000 C 
BRANCH  25  26
ATOM     26  O   UNL     1       3.231   2.719  11.207  0.00  0.00    +0.000 OA
ATOM     27  H   UNL     1       3.081   1.754  11.150  0.00  0.00    +0.000 HD
ENDBRANCH  25  26
ENDBRANCH  24  25
ENDBRANCH  21  24
ENDBRANCH  17  19
ENDBRANCH   1  15
BRANCH   1  28
ATOM     28  C   UNL     1       7.915   7.242  18.155  0.00  0.00    +0.000 C 
BRANCH  28  30
ATOM     29  C   UNL     1       8.884   9.450  18.847  0.00  0.00    +0.000 C 
ATOM     30  C   UNL     1       8.147   8.699  17.745  0.00  0.00    +0.000 C 
ENDBRANCH  28  30
ENDBRANCH   1  28
TORSDOF 10
ENDMDL
MODEL 7
REMARK VINA RESULT:      -7.6      3.033      6.663
REMARK  Name = 
REMARK  11 active torsions:
REMARK  status: ('A' for Active; 'I' for Inactive)
REMARK    1  A    between atoms: C_1  and  C_2
REMARK    2  A    between atoms: C_2  and  C_3
REMARK    3  A    between atoms: C_3  and  C_4
REMARK    4  A    between atoms: C_4  and  N_5
REMARK    5  A    between atoms: C_4  and  C_17
REMARK    6  A    between atoms: C_6  and  C_8
REMARK    7  A    between atoms: C_8  and  C_9
REMARK    8  A    between atoms: N_19  and  C_20
REMARK    9  A    between atoms: N_22  and  C_23
REMARK   10  A    between atoms: C_23  and  C_24
REMARK   11  A    between atoms: C_24  and  O_25
REMARK                            x       y       z     vdW  Elec       q    Type
REMARK                         _______ _______ _______ _____ _____    ______ ____
ROOT
ATOM      1  C   UNL     1       6.121   6.965  17.364  0.00  0.00    +0.000 C 
ENDROOT
BRANCH   1   2
ATOM      2  N   UNL     1       5.411   6.041  18.261  0.00  0.00    +0.000 N 
ATOM      3  C   UNL     1       5.910   4.795  18.579  0.00  0.00    +0.000 C 
ATOM      4  O   UNL     1       6.948   4.348  18.094  0.00  0.00    +0.000 OA
ATOM      5  H   UNL     1       4.426   6.218  18.424  0.00  0.00    +0.000 HD
BRANCH   3   6
ATOM      6  C   UNL     1       5.100   4.011  19.585  0.00  0.00    +0.000 C 
BRANCH   6   7
ATOM      7  C   UNL     1       3.688   3.674  19.175  0.00  0.00    +0.000 A 
ATOM      8  C   UNL     1       2.940   4.453  18.280  0.00  0.00    +0.000 A 
ATOM      9  C   UNL     1       1.634   4.084  17.953  0.00  0.00    +0.000 A 
ATOM     10  F   UNL     1       0.920   4.853  17.120  0.00  0.00    +0.000 F 
ATOM     11  C   UNL     1       1.055   2.936  18.477  0.00  0.00    +0.000 A 
ATOM     12  C   UNL     1       1.811   2.138  19.319  0.00  0.00    +0.000 A 
ATOM     13  F   UNL     1       1.282   1.014  19.818  0.00  0.00    +0.000 F 
ATOM     14  C   UNL     1       3.114   2.488  19.662  0.00  0.00    +0.000 A 
ENDBRANCH   6   7
ENDBRANCH   3   6
ENDBRANCH   1   2
BRANCH   1  15
ATOM     15  C   UNL     1       5.960   6.494  15.915  0.00  0.00    +0.000 C 
ATOM     16  O   UNL     1       4.988   6.845  15.248  0.00  0.00    +0.000 OA
ATOM     17  N   UNL     1       6.897   5.550  15.529  0.00  0.00    +0.000 N 
ATOM     18  H   UNL     1       7.194   4.895  16.257  0.00  0.00    +0.000 HD
BRANCH  17  19
ATOM     19  C   UNL     1       6.833   5.023  14.281  0.00  0.00    +0.000 A 
ATOM     20  C   UNL     1       5.955   4.052  13.847  0.00  0.00    +0.000 A 
ATOM     21  N   UNL     1       6.397   3.741  12.601  0.00  0.00    +0.000 N 
ATOM     22  C   UNL     1       7.476   4.533  12.329  0.00  0.00    +0.000 A 
ATOM     23  N   UNL     1       7.700   5.384  13.302  0.00  0.00    +0.000 NA
BRANCH  21  24
ATOM     24  C   UNL     1       5.812   2.726  11.754  0.00  0.00    +0.000 C 
BRANCH  24  25
ATOM     25  C   UNL     1       4.306   2.900  11.575  0.00  0.00    +0.000 C 
BRANCH  25  26
ATOM     26  O   UNL     1       3.988   3.818  10.533  0.00  0.00    +0.000 OA
ATOM     27  H   UNL     1       4.810   4.017  10.044  0.00  0.00    +0.000 HD
ENDBRANCH  25  26
ENDBRANCH  24  25
ENDBRANCH  21  24
ENDBRANCH  17  19
ENDBRANCH   1  15
BRANCH   1  28
ATOM     28  C   UNL     1       7.574   7.211  17.803  0.00  0.00    +0.000 C 
BRANCH  28  30
ATOM     29  C   UNL     1       8.801   9.150  18.816  0.00  0.00    +0.000 C 
ATOM     30  C   UNL     1       8.084   8.636  17.573  0.00  0.00    +0.000 C 
ENDBRANCH  28  30
ENDBRANCH   1  28
TORSDOF 10
ENDMDL
MODEL 8
REMARK VINA RESULT:      -7.6      2.870      6.897
REMARK  Name = 
REMARK  11 active torsions:
REMARK  status: ('A' for Active; 'I' for Inactive)
REMARK    1  A    between atoms: C_1  and  C_2
REMARK    2  A    between atoms: C_2  and  C_3
REMARK    3  A    between atoms: C_3  and  C_4
REMARK    4  A    between atoms: C_4  and  N_5
REMARK    5  A    between atoms: C_4  and  C_17
REMARK    6  A    between atoms: C_6  and  C_8
REMARK    7  A    between atoms: C_8  and  C_9
REMARK    8  A    between atoms: N_19  and  C_20
REMARK    9  A    between atoms: N_22  and  C_23
REMARK   10  A    between atoms: C_23  and  C_24
REMARK   11  A    between atoms: C_24  and  O_25
REMARK                            x       y       z     vdW  Elec       q    Type
REMARK                         _______ _______ _______ _____ _____    ______ ____
ROOT
ATOM      1  C   UNL     1       6.421   6.889  17.346  0.00  0.00    +0.000 C 
ENDROOT
BRANCH   1   2
ATOM      2  N   UNL     1       5.664   6.066  18.301  0.00  0.00    +0.000 N 
ATOM      3  C   UNL     1       6.126   4.845  18.749  0.00  0.00    +0.000 C 
ATOM      4  O   UNL     1       7.168   4.336  18.341  0.00  0.00    +0.000 OA
ATOM      5  H   UNL     1       4.679   6.276  18.416  0.00  0.00    +0.000 HD
BRANCH   3   6
ATOM      6  C   UNL     1       5.269   4.175  19.798  0.00  0.00    +0.000 C 
BRANCH   6   7
ATOM      7  C   UNL     1       3.892   3.752  19.350  0.00  0.00    +0.000 A 
ATOM      8  C   UNL     1       3.666   2.863  18.289  0.00  0.00    +0.000 A 
ATOM      9  C   UNL     1       2.362   2.524  17.925  0.00  0.00    +0.000 A 
ATOM     10  F   UNL     1       2.160   1.696  16.891  0.00  0.00    +0.000 F 
ATOM     11  C   UNL     1       1.265   3.031  18.610  0.00  0.00    +0.000 A 
ATOM     12  C   UNL     1       1.488   3.868  19.690  0.00  0.00    +0.000 A 
ATOM     13  F   UNL     1       0.448   4.350  20.380  0.00  0.00    +0.000 F 
ATOM     14  C   UNL     1       2.780   4.222  20.070  0.00  0.00    +0.000 A 
ENDBRANCH   6   7
ENDBRANCH   3   6
ENDBRANCH   1   2
BRANCH   1  15
ATOM     15  C   UNL     1       6.112   6.426  15.919  0.00  0.00    +0.000 C 
ATOM     16  O   UNL     1       5.076   6.778  15.357  0.00  0.00    +0.000 OA
ATOM     17  N   UNL     1       7.006   5.487  15.432  0.00  0.00    +0.000 N 
ATOM     18  H   UNL     1       7.378   4.828  16.120  0.00  0.00    +0.000 HD
BRANCH  17  19
ATOM     19  C   UNL     1       6.815   4.968  14.193  0.00  0.00    +0.000 A 
ATOM     20  C   UNL     1       5.846   4.055  13.830  0.00  0.00    +0.000 A 
ATOM     21  N   UNL     1       6.172   3.719  12.554  0.00  0.00    +0.000 N 
ATOM     22  C   UNL     1       7.276   4.442  12.199  0.00  0.00    +0.000 A 
ATOM     23  N   UNL     1       7.627   5.275  13.150  0.00  0.00    +0.000 NA
BRANCH  21  24
ATOM     24  C   UNL     1       5.461   2.746  11.758  0.00  0.00    +0.000 C 
BRANCH  24  25
ATOM     25  C   UNL     1       6.117   1.368  11.780  0.00  0.00    +0.000 C 
BRANCH  25  26
ATOM     26  O   UNL     1       7.317   1.327  11.014  0.00  0.00    +0.000 OA
ATOM     27  H   UNL     1       7.154   1.797  10.172  0.00  0.00    +0.000 HD
ENDBRANCH  25  26
ENDBRANCH  24  25
ENDBRANCH  21  24
ENDBRANCH  17  19
ENDBRANCH   1  15
BRANCH   1  28
ATOM     28  C   UNL     1       7.918   6.961  17.689  0.00  0.00    +0.000 C 
BRANCH  28  30
ATOM     29  C   UNL     1       8.209   9.447  17.856  0.00  0.00    +0.000 C 
ATOM     30  C   UNL     1       8.315   8.123  18.603  0.00  0.00    +0.000 C 
ENDBRANCH  28  30
ENDBRANCH   1  28
TORSDOF 10
ENDMDL
MODEL 9
REMARK VINA RESULT:      -7.5      1.527      1.791
REMARK  Name = 
REMARK  11 active torsions:
REMARK  status: ('A' for Active; 'I' for Inactive)
REMARK    1  A    between atoms: C_1  and  C_2
REMARK    2  A    between atoms: C_2  and  C_3
REMARK    3  A    between atoms: C_3  and  C_4
REMARK    4  A    between atoms: C_4  and  N_5
REMARK    5  A    between atoms: C_4  and  C_17
REMARK    6  A    between atoms: C_6  and  C_8
REMARK    7  A    between atoms: C_8  and  C_9
REMARK    8  A    between atoms: N_19  and  C_20
REMARK    9  A    between atoms: N_22  and  C_23
REMARK   10  A    between atoms: C_23  and  C_24
REMARK   11  A    between atoms: C_24  and  O_25
REMARK                            x       y       z     vdW  Elec       q    Type
REMARK                         _______ _______ _______ _____ _____    ______ ____
ROOT
ATOM      1  C   UNL     1       7.023   5.381  17.104  0.00  0.00    +0.000 C 
ENDROOT
BRANCH   1   2
ATOM      2  N   UNL     1       7.401   4.934  15.755  0.00  0.00    +0.000 N 
ATOM      3  C   UNL     1       6.610   5.178  14.650  0.00  0.00    +0.000 C 
ATOM      4  O   UNL     1       5.515   5.731  14.722  0.00  0.00    +0.000 OA
ATOM      5  H   UNL     1       8.108   4.211  15.687  0.00  0.00    +0.000 HD
BRANCH   3   6
ATOM      6  C   UNL     1       7.192   4.731  13.328  0.00  0.00    +0.000 C 
BRANCH   6   7
ATOM      7  C   UNL     1       6.343   3.778  12.525  0.00  0.00    +0.000 A 
ATOM      8  C   UNL     1       5.024   4.060  12.140  0.00  0.00    +0.000 A 
ATOM      9  C   UNL     1       4.294   3.125  11.403  0.00  0.00    +0.000 A 
ATOM     10  F   UNL     1       3.026   3.394  11.067  0.00  0.00    +0.000 F 
ATOM     11  C   UNL     1       4.855   1.916  11.013  0.00  0.00    +0.000 A 
ATOM     12  C   UNL     1       6.174   1.660  11.347  0.00  0.00    +0.000 A 
ATOM     13  F   UNL     1       6.744   0.511  10.961  0.00  0.00    +0.000 F 
ATOM     14  C   UNL     1       6.920   2.575  12.084  0.00  0.00    +0.000 A 
ENDBRANCH   6   7
ENDBRANCH   3   6
ENDBRANCH   1   2
BRANCH   1  15
ATOM     15  C   UNL     1       5.715   4.699  17.518  0.00  0.00    +0.000 C 
ATOM     16  O   UNL     1       5.540   3.500  17.304  0.00  0.00    +0.000 OA
ATOM     17  N   UNL     1       4.751   5.578  17.984  0.00  0.00    +0.000 N 
ATOM     18  H   UNL     1       4.735   6.498  17.537  0.00  0.00    +0.000 HD
BRANCH  17  19
ATOM     19  C   UNL     1       3.534   5.098  18.343  0.00  0.00    +0.000 A 
ATOM     20  C   UNL     1       3.134   4.755  19.618  0.00  0.00    +0.000 A 
ATOM     21  N   UNL     1       1.920   4.173  19.437  0.00  0.00    +0.000 N 
ATOM     22  C   UNL     1       1.632   4.212  18.102  0.00  0.00    +0.000 A 
ATOM     23  N   UNL     1       2.559   4.854  17.432  0.00  0.00    +0.000 NA
BRANCH  21  24
ATOM     24  C   UNL     1       1.119   3.605  20.496  0.00  0.00    +0.000 C 
BRANCH  24  25
ATOM     25  C   UNL     1       1.959   2.946  21.587  0.00  0.00    +0.000 C 
BRANCH  25  26
ATOM     26  O   UNL     1       1.158   2.300  22.572  0.00  0.00    +0.000 OA
ATOM     27  H   UNL     1       1.458   2.605  23.451  0.00  0.00    +0.000 HD
ENDBRANCH  25  26
ENDBRANCH  24  25
ENDBRANCH  21  24
ENDBRANCH  17  19
ENDBRANCH   1  15
BRANCH   1  28
ATOM     28  C   UNL     1       7.019   6.913  17.236  0.00  0.00    +0.000 C 
BRANCH  28  30
ATOM     29  C   UNL     1       8.246   8.971  17.979  0.00  0.00    +0.000 C 
ATOM     30  C   UNL     1       8.054   7.478  18.213  0.00  0.00    +0.000 C 
ENDBRANCH  28  30
ENDBRANCH   1  28
TORSDOF 10
ENDMDL
