MODEL 1
REMARK VINA RESULT:      -5.6      0.000      0.000
REMARK  Name = 
REMARK  5 active torsions:
REMARK  status: ('A' for Active; 'I' for Inactive)
REMARK    1  A    between atoms: C_1  and  C_2
REMARK    2  A    between atoms: C_3  and  C_4
REMARK    3  A    between atoms: C_5  and  C_6
REMARK    4  A    between atoms: C_7  and  C_8
REMARK    5  A    between atoms: C_8  and  O_10
REMARK                            x       y       z     vdW  Elec       q    Type
REMARK                         _______ _______ _______ _____ _____    ______ ____
ROOT
ATOM      1  C   UNL     1       6.319   3.962  13.035  0.00  0.00    +0.000 C 
ATOM      2  C   UNL     1       6.248   3.854  14.370  0.00  0.00    +0.000 C 
ENDROOT
BRANCH   1   4
ATOM      3  C   UNL     1       4.349   3.536  11.669  0.00  0.00    +0.000 C 
ATOM      4  C   UNL     1       5.550   3.144  12.120  0.00  0.00    +0.000 C 
BRANCH   3   7
ATOM      5  C   UNL     1       2.801   4.738   9.366  0.00  0.00    +0.000 C 
ATOM      6  C   UNL     1       2.845   3.288   9.731  0.00  0.00    +0.000 C 
ATOM      7  C   UNL     1       3.537   2.762  10.756  0.00  0.00    +0.000 C 
ENDBRANCH   3   7
ENDBRANCH   1   4
BRANCH   2   8
ATOM      8  C   UNL     1       7.082   4.745  15.203  0.00  0.00    +0.000 C 
ATOM      9  O   UNL     1       7.047   4.792  16.420  0.00  0.00    +0.000 OA
BRANCH   8  10
ATOM     10  O   UNL     1       7.903   5.515  14.461  0.00  0.00    +0.000 OA
ATOM     11  H   UNL     1       7.477   6.024  13.749  0.00  0.00    +0.000 HD
ENDBRANCH   8  10
ENDBRANCH   2   8
TORSDOF 4
ENDMDL
MODEL 2
REMARK VINA RESULT:      -5.1      4.901      6.284
REMARK  Name = 
REMARK  5 active torsions:
REMARK  status: ('A' for Active; 'I' for Inactive)
REMARK    1  A    between atoms: C_1  and  C_2
REMARK    2  A    between atoms: C_3  and  C_4
REMARK    3  A    between atoms: C_5  and  C_6
REMARK    4  A    between atoms: C_7  and  C_8
REMARK    5  A    between atoms: C_8  and  O_10
REMARK                            x       y       z     vdW  Elec       q    Type
REMARK                         _______ _______ _______ _____ _____    ______ ____
ROOT
ATOM      1  C   UNL     1       4.737   4.965  17.263  0.00  0.00    +0.000 C 
ATOM      2  C   UNL     1       5.741   4.272  16.707  0.00  0.00    +0.000 C 
ENDROOT
BRANCH   1   4
ATOM      3  C   UNL     1       3.116   3.329  18.050  0.00  0.00    +0.000 C 
ATOM      4  C   UNL     1       3.385   4.462  17.387  0.00  0.00    +0.000 C 
BRANCH   3   7
ATOM      5  C   UNL     1       1.330   3.899  20.422  0.00  0.00    +0.000 C 
ATOM      6  C   UNL     1       0.988   3.026  19.257  0.00  0.00    +0.000 C 
ATOM      7  C   UNL     1       1.788   2.779  18.206  0.00  0.00    +0.000 C 
ENDBRANCH   3   7
ENDBRANCH   1   4
BRANCH   2   8
ATOM      8  C   UNL     1       7.081   4.890  16.636  0.00  0.00    +0.000 C 
ATOM      9  O   UNL     1       7.325   5.962  16.110  0.00  0.00    +0.000 OA
BRANCH   8  10
ATOM     10  O   UNL     1       8.025   4.129  17.225  0.00  0.00    +0.000 OA
ATOM     11  H   UNL     1       8.659   4.605  17.791  0.00  0.00    +0.000 HD
ENDBRANCH   8  10
ENDBRANCH   2   8
TORSDOF 4
ENDMDL
MODEL 3
REMARK VINA RESULT:      -5.1      6.224      9.144
REMARK  Name = 
REMARK  5 active torsions:
REMARK  status: ('A' for Active; 'I' for Inactive)
REMARK    1  A    between atoms: C_1  and  C_2
REMARK    2  A    between atoms: C_3  and  C_4
REMARK    3  A    between atoms: C_5  and  C_6
REMARK    4  A    between atoms: C_7  and  C_8
REMARK    5  A    between atoms: C_8  and  O_10
REMARK                            x       y       z     vdW  Elec       q    Type
REMARK                         _______ _______ _______ _____ _____    ______ ____
ROOT
ATOM      1  C   UNL     1       7.973   7.346  18.082  0.00  0.00    +0.000 C 
ATOM      2  C   UNL     1       7.209   6.456  17.431  0.00  0.00    +0.000 C 
ENDROOT
BRANCH   1   4
ATOM      3  C   UNL     1       8.780   9.614  18.446  0.00  0.00    +0.000 C 
ATOM      4  C   UNL     1       7.931   8.773  17.838  0.00  0.00    +0.000 C 
BRANCH   3   7
ATOM      5  C   UNL     1      10.151  11.570  20.300  0.00  0.00    +0.000 C 
ATOM      6  C   UNL     1       9.391  11.922  19.061  0.00  0.00    +0.000 C 
ATOM      7  C   UNL     1       8.785  11.045  18.242  0.00  0.00    +0.000 C 
ENDBRANCH   3   7
ENDBRANCH   1   4
BRANCH   2   8
ATOM      8  C   UNL     1       7.340   5.023  17.766  0.00  0.00    +0.000 C 
ATOM      9  O   UNL     1       8.083   4.241  17.197  0.00  0.00    +0.000 OA
BRANCH   8  10
ATOM     10  O   UNL     1       6.538   4.663  18.787  0.00  0.00    +0.000 OA
ATOM     11  H   UNL     1       6.696   5.121  19.632  0.00  0.00    +0.000 HD
ENDBRANCH   8  10
ENDBRANCH   2   8
TORSDOF 4
ENDMDL
MODEL 4
REMARK VINA RESULT:      -5.0      4.791      6.340
REMARK  Name = 
REMARK  5 active torsions:
REMARK  status: ('A' for Active; 'I' for Inactive)
REMARK    1  A    between atoms: C_1  and  C_2
REMARK    2  A    between atoms: C_3  and  C_4
REMARK    3  A    between atoms: C_5  and  C_6
REMARK    4  A    between atoms: C_7  and  C_8
REMARK    5  A    between atoms: C_8  and  O_10
REMARK                            x       y       z     vdW  Elec       q    Type
REMARK                         _______ _______ _______ _____ _____    ______ ____
ROOT
ATOM      1  C   UNL     1       4.338   4.447  16.757  0.00  0.00    +0.000 C 
ATOM      2  C   UNL     1       5.394   4.169  15.980  0.00  0.00    +0.000 C 
ENDROOT
BRANCH   1   4
ATOM      3  C   UNL     1       2.264   3.724  17.808  0.00  0.00    +0.000 C 
ATOM      4  C   UNL     1       3.493   3.435  17.357  0.00  0.00    +0.000 C 
BRANCH   3   7
ATOM      5  C   UNL     1       1.186   3.969  20.623  0.00  0.00    +0.000 C 
ATOM      6  C   UNL     1       0.894   2.858  19.666  0.00  0.00    +0.000 C 
ATOM      7  C   UNL     1       1.378   2.757  18.416  0.00  0.00    +0.000 C 
ENDBRANCH   3   7
ENDBRANCH   1   4
BRANCH   2   8
ATOM      8  C   UNL     1       6.183   5.287  15.422  0.00  0.00    +0.000 C 
ATOM      9  O   UNL     1       7.353   5.213  15.085  0.00  0.00    +0.000 OA
BRANCH   8  10
ATOM     10  O   UNL     1       5.461   6.420  15.322  0.00  0.00    +0.000 OA
ATOM     11  H   UNL     1       4.692   6.487  15.917  0.00  0.00    +0.000 HD
ENDBRANCH   8  10
ENDBRANCH   2   8
TORSDOF 4
ENDMDL
MODEL 5
REMARK VINA RESULT:      -5.0      4.672      6.414
REMARK  Name = 
REMARK  5 active torsions:
REMARK  status: ('A' for Active; 'I' for Inactive)
REMARK    1  A    between atoms: C_1  and  C_2
REMARK    2  A    between atoms: C_3  and  C_4
REMARK    3  A    between atoms: C_5  and  C_6
REMARK    4  A    between atoms: C_7  and  C_8
REMARK    5  A    between atoms: C_8  and  O_10
REMARK                            x       y       z     vdW  Elec       q    Type
REMARK                         _______ _______ _______ _____ _____    ______ ____
ROOT
ATOM      1  C   UNL     1       5.074   3.777  17.106  0.00  0.00    +0.000 C 
ATOM      2  C   UNL     1       5.610   4.778  16.394  0.00  0.00    +0.000 C 
ENDROOT
BRANCH   1   4
ATOM      3  C   UNL     1       3.009   4.157  18.339  0.00  0.00    +0.000 C 
ATOM      4  C   UNL     1       3.649   3.602  17.300  0.00  0.00    +0.000 C 
BRANCH   3   7
ATOM      5  C   UNL     1       1.844   3.155  20.943  0.00  0.00    +0.000 C 
ATOM      6  C   UNL     1       1.064   3.572  19.737  0.00  0.00    +0.000 C 
ATOM      7  C   UNL     1       1.591   4.017  18.583  0.00  0.00    +0.000 C 
ENDBRANCH   3   7
ENDBRANCH   1   4
BRANCH   2   8
ATOM      8  C   UNL     1       7.080   4.854  16.266  0.00  0.00    +0.000 C 
ATOM      9  O   UNL     1       7.873   4.381  17.063  0.00  0.00    +0.000 OA
BRANCH   8  10
ATOM     10  O   UNL     1       7.462   5.512  15.153  0.00  0.00    +0.000 OA
ATOM     11  H   UNL     1       6.770   5.644  14.481  0.00  0.00    +0.000 HD
ENDBRANCH   8  10
ENDBRANCH   2   8
TORSDOF 4
ENDMDL
MODEL 6
REMARK VINA RESULT:      -4.9      4.876      6.384
REMARK  Name = 
REMARK  5 active torsions:
REMARK  status: ('A' for Active; 'I' for Inactive)
REMARK    1  A    between atoms: C_1  and  C_2
REMARK    2  A    between atoms: C_3  and  C_4
REMARK    3  A    between atoms: C_5  and  C_6
REMARK    4  A    between atoms: C_7  and  C_8
REMARK    5  A    between atoms: C_8  and  O_10
REMARK                            x       y       z     vdW  Elec       q    Type
REMARK                         _______ _______ _______ _____ _____    ______ ____
ROOT
ATOM      1  C   UNL     1       4.230   4.695  16.925  0.00  0.00    +0.000 C 
ATOM      2  C   UNL     1       5.104   4.460  15.935  0.00  0.00    +0.000 C 
ENDROOT
BRANCH   1   4
ATOM      3  C   UNL     1       2.156   3.731  17.758  0.00  0.00    +0.000 C 
ATOM      4  C   UNL     1       3.485   3.655  17.604  0.00  0.00    +0.000 C 
BRANCH   3   7
ATOM      5  C   UNL     1       1.087   4.029  20.571  0.00  0.00    +0.000 C 
ATOM      6  C   UNL     1       0.882   2.848  19.676  0.00  0.00    +0.000 C 
ATOM      7  C   UNL     1       1.360   2.725  18.426  0.00  0.00    +0.000 C 
ENDBRANCH   3   7
ENDBRANCH   1   4
BRANCH   2   8
ATOM      8  C   UNL     1       5.805   5.603  15.317  0.00  0.00    +0.000 C 
ATOM      9  O   UNL     1       5.348   6.730  15.220  0.00  0.00    +0.000 OA
BRANCH   8  10
ATOM     10  O   UNL     1       7.029   5.266  14.862  0.00  0.00    +0.000 OA
ATOM     11  H   UNL     1       7.128   5.239  13.894  0.00  0.00    +0.000 HD
ENDBRANCH   8  10
ENDBRANCH   2   8
TORSDOF 4
ENDMDL
MODEL 7
REMARK VINA RESULT:      -4.9      6.108      9.296
REMARK  Name = 
REMARK  5 active torsions:
REMARK  status: ('A' for Active; 'I' for Inactive)
REMARK    1  A    between atoms: C_1  and  C_2
REMARK    2  A    between atoms: C_3  and  C_4
REMARK    3  A    between atoms: C_5  and  C_6
REMARK    4  A    between atoms: C_7  and  C_8
REMARK    5  A    between atoms: C_8  and  O_10
REMARK                            x       y       z     vdW  Elec       q    Type
REMARK                         _______ _______ _______ _____ _____    ______ ____
ROOT
ATOM      1  C   UNL     1       7.867   8.139  17.467  0.00  0.00    +0.000 C 
ATOM      2  C   UNL     1       7.728   6.983  18.132  0.00  0.00    +0.000 C 
ENDROOT
BRANCH   1   4
ATOM      3  C   UNL     1       9.152   9.580  18.951  0.00  0.00    +0.000 C 
ATOM      4  C   UNL     1       8.120   9.411  18.111  0.00  0.00    +0.000 C 
BRANCH   3   7
ATOM      5  C   UNL     1      11.061  11.656  17.861  0.00  0.00    +0.000 C 
ATOM      6  C   UNL     1      10.301  11.752  19.145  0.00  0.00    +0.000 C 
ATOM      7  C   UNL     1       9.454  10.824  19.622  0.00  0.00    +0.000 C 
ENDBRANCH   3   7
ENDBRANCH   1   4
BRANCH   2   8
ATOM      8  C   UNL     1       7.471   5.746  17.366  0.00  0.00    +0.000 C 
ATOM      9  O   UNL     1       7.301   5.698  16.159  0.00  0.00    +0.000 OA
BRANCH   8  10
ATOM     10  O   UNL     1       7.444   4.654  18.155  0.00  0.00    +0.000 OA
ATOM     11  H   UNL     1       8.286   4.421  18.585  0.00  0.00    +0.000 HD
ENDBRANCH   8  10
ENDBRANCH   2   8
TORSDOF 4
ENDMDL
MODEL 8
REMARK VINA RESULT:      -4.9      4.145      5.861
REMARK  Name = 
REMARK  5 active torsions:
REMARK  status: ('A' for Active; 'I' for Inactive)
REMARK    1  A    between atoms: C_1  and  C_2
REMARK    2  A    between atoms: C_3  and  C_4
REMARK    3  A    between atoms: C_5  and  C_6
REMARK    4  A    between atoms: C_7  and  C_8
REMARK    5  A    between atoms: C_8  and  O_10
REMARK                            x       y       z     vdW  Elec       q    Type
REMARK                         _______ _______ _______ _____ _____    ______ ____
ROOT
ATOM      1  C   UNL     1       5.448   4.273  16.778  0.00  0.00    +0.000 C 
ATOM      2  C   UNL     1       5.473   4.866  15.575  0.00  0.00    +0.000 C 
ENDROOT
BRANCH   1   4
ATOM      3  C   UNL     1       3.107   4.479  17.414  0.00  0.00    +0.000 C 
ATOM      4  C   UNL     1       4.403   4.487  17.757  0.00  0.00    +0.000 C 
BRANCH   3   7
ATOM      5  C   UNL     1       1.480   2.235  18.624  0.00  0.00    +0.000 C 
ATOM      6  C   UNL     1       1.293   3.695  18.889  0.00  0.00    +0.000 C 
ATOM      7  C   UNL     1       2.021   4.686  18.346  0.00  0.00    +0.000 C 
ENDBRANCH   3   7
ENDBRANCH   1   4
BRANCH   2   8
ATOM      8  C   UNL     1       6.593   4.570  14.658  0.00  0.00    +0.000 C 
ATOM      9  O   UNL     1       7.599   5.249  14.549  0.00  0.00    +0.000 OA
BRANCH   8  10
ATOM     10  O   UNL     1       6.382   3.449  13.940  0.00  0.00    +0.000 OA
ATOM     11  H   UNL     1       6.781   3.434  13.052  0.00  0.00    +0.000 HD
ENDBRANCH   8  10
ENDBRANCH   2   8
TORSDOF 4
ENDMDL
MODEL 9
REMARK VINA RESULT:      -4.9      5.848      7.544
REMARK  Name = 
REMARK  5 active torsions:
REMARK  status: ('A' for Active; 'I' for Inactive)
REMARK    1  A    between atoms: C_1  and  C_2
REMARK    2  A    between atoms: C_3  and  C_4
REMARK    3  A    between atoms: C_5  and  C_6
REMARK    4  A    between atoms: C_7  and  C_8
REMARK    5  A    between atoms: C_8  and  O_10
REMARK                            x       y       z     vdW  Elec       q    Type
REMARK                         _______ _______ _______ _____ _____    ______ ____
ROOT
ATOM      1  C   UNL     1       2.184   4.452  18.952  0.00  0.00    +0.000 C 
ATOM      2  C   UNL     1       2.269   4.612  20.281  0.00  0.00    +0.000 C 
ENDROOT
BRANCH   1   4
ATOM      3  C   UNL     1       4.003   5.678  17.898  0.00  0.00    +0.000 C 
ATOM      4  C   UNL     1       2.693   5.410  17.993  0.00  0.00    +0.000 C 
BRANCH   3   7
ATOM      5  C   UNL     1       5.507   4.874  15.400  0.00  0.00    +0.000 C 
ATOM      6  C   UNL     1       5.239   6.275  15.850  0.00  0.00    +0.000 C 
ATOM      7  C   UNL     1       4.569   6.624  16.962  0.00  0.00    +0.000 C 
ENDBRANCH   3   7
ENDBRANCH   1   4
BRANCH   2   8
ATOM      8  C   UNL     1       1.711   3.565  21.162  0.00  0.00    +0.000 C 
ATOM      9  O   UNL     1       2.223   3.187  22.203  0.00  0.00    +0.000 OA
BRANCH   8  10
ATOM     10  O   UNL     1       0.555   3.061  20.687  0.00  0.00    +0.000 OA
ATOM     11  H   UNL     1       0.643   2.350  20.027  0.00  0.00    +0.000 HD
ENDBRANCH   8  10
ENDBRANCH   2   8
TORSDOF 4
ENDMDL
