MODEL 1
REMARK VINA RESULT:      -6.7      0.000      0.000
REMARK  Name = 
REMARK  9 active torsions:
REMARK  status: ('A' for Active; 'I' for Inactive)
REMARK    1  A    between atoms: C_1  and  C_2
REMARK    2  A    between atoms: C_2  and  N_3
REMARK    3  A    between atoms: N_3  and  C_4
REMARK    4  A    between atoms: C_4  and  C_5
REMARK    5  A    between atoms: C_6  and  C_8
REMARK    6  A    between atoms: C_8  and  S_9
REMARK    7  A    between atoms: S_9  and  C_10
REMARK    8  A    between atoms: C_13  and  C_14
REMARK    9  A    between atoms: N_20  and  N_21
REMARK                            x       y       z     vdW  Elec       q    Type
REMARK                         _______ _______ _______ _____ _____    ______ ____
ROOT
ATOM      1  C   UNL     1       6.984   4.956  16.181  0.00  0.00    +0.000 A 
ATOM      2  N   UNL     1       7.616   5.774  15.377  0.00  0.00    +0.000 NA
ATOM      3  N   UNL     1       7.349   5.366  14.087  0.00  0.00    +0.000 NA
ATOM      4  C   UNL     1       6.532   4.322  14.125  0.00  0.00    +0.000 A 
ATOM      5  N   UNL     1       6.325   3.992  15.455  0.00  0.00    +0.000 N 
ENDROOT
BRANCH   4   6
ATOM      6  C   UNL     1       5.983   3.629  12.955  0.00  0.00    +0.000 A 
ATOM      7  C   UNL     1       4.686   3.937  12.520  0.00  0.00    +0.000 A 
ATOM      8  C   UNL     1       4.115   3.270  11.432  0.00  0.00    +0.000 A 
ATOM      9  C   UNL     1       4.832   2.279  10.767  0.00  0.00    +0.000 A 
ATOM     10  C   UNL     1       6.120   1.957  11.186  0.00  0.00    +0.000 A 
ATOM     11  C   UNL     1       6.690   2.625  12.275  0.00  0.00    +0.000 A 
ENDBRANCH   4   6
BRANCH   5  12
ATOM     12  N   UNL     1       5.624   2.839  15.975  0.00  0.00    +0.000 N 
ATOM     13  H   UNL     1       4.973   3.114  16.710  0.00  0.00    +0.000 HD
ATOM     14  H   UNL     1       5.045   2.426  15.241  0.00  0.00    +0.000 HD
ENDBRANCH   5  12
BRANCH   1  15
ATOM     15  S   UNL     1       6.955   5.000  17.909  0.00  0.00    +0.000 S 
BRANCH  15  16
ATOM     16  C   UNL     1       5.229   5.499  18.239  0.00  0.00    +0.000 C 
BRANCH  16  18
ATOM     17  N   UNL     1       3.164   4.715  19.442  0.00  0.00    +0.000 N 
ATOM     18  C   UNL     1       4.513   4.460  19.115  0.00  0.00    +0.000 C 
ATOM     19  O   UNL     1       5.076   3.458  19.544  0.00  0.00    +0.000 OA
BRANCH  17  21
ATOM     20  C   UNL     1       1.302   3.088  19.904  0.00  0.00    +0.000 C 
ATOM     21  C   UNL     1       2.538   3.811  20.419  0.00  0.00    +0.000 C 
ENDBRANCH  17  21
BRANCH  17  22
ATOM     22  C   UNL     1       2.468   5.907  18.936  0.00  0.00    +0.000 C 
ATOM     23  C   UNL     1       2.238   7.081  19.868  0.00  0.00    +0.000 C 
ENDBRANCH  17  22
ENDBRANCH  16  18
ENDBRANCH  15  16
ENDBRANCH   1  15
TORSDOF 7
ENDMDL
MODEL 2
REMARK VINA RESULT:      -6.7      0.181      1.065
REMARK  Name = 
REMARK  9 active torsions:
REMARK  status: ('A' for Active; 'I' for Inactive)
REMARK    1  A    between atoms: C_1  and  C_2
REMARK    2  A    between atoms: C_2  and  N_3
REMARK    3  A    between atoms: N_3  and  C_4
REMARK    4  A    between atoms: C_4  and  C_5
REMARK    5  A    between atoms: C_6  and  C_8
REMARK    6  A    between atoms: C_8  and  S_9
REMARK    7  A    between atoms: S_9  and  C_10
REMARK    8  A    between atoms: C_13  and  C_14
REMARK    9  A    between atoms: N_20  and  N_21
REMARK                            x       y       z     vdW  Elec       q    Type
REMARK                         _______ _______ _______ _____ _____    ______ ____
ROOT
ATOM      1  C   UNL     1       7.008   5.047  16.281  0.00  0.00    +0.000 A 
ATOM      2  N   UNL     1       7.672   5.812  15.451  0.00  0.00    +0.000 NA
ATOM      3  N   UNL     1       7.391   5.372  14.175  0.00  0.00    +0.000 NA
ATOM      4  C   UNL     1       6.534   4.361  14.246  0.00  0.00    +0.000 A 
ATOM      5  N   UNL     1       6.314   4.085  15.586  0.00  0.00    +0.000 N 
ENDROOT
BRANCH   4   6
ATOM      6  C   UNL     1       5.960   3.651  13.099  0.00  0.00    +0.000 A 
ATOM      7  C   UNL     1       6.751   2.730  12.395  0.00  0.00    +0.000 A 
ATOM      8  C   UNL     1       6.250   2.063  11.273  0.00  0.00    +0.000 A 
ATOM      9  C   UNL     1       4.952   2.313  10.834  0.00  0.00    +0.000 A 
ATOM     10  C   UNL     1       4.154   3.226  11.518  0.00  0.00    +0.000 A 
ATOM     11  C   UNL     1       4.656   3.893  12.641  0.00  0.00    +0.000 A 
ENDBRANCH   4   6
BRANCH   5  12
ATOM     12  N   UNL     1       5.568   2.978  16.144  0.00  0.00    +0.000 N 
ATOM     13  H   UNL     1       5.323   2.307  15.416  0.00  0.00    +0.000 HD
ATOM     14  H   UNL     1       6.156   2.462  16.802  0.00  0.00    +0.000 HD
ENDBRANCH   5  12
BRANCH   1  15
ATOM     15  S   UNL     1       6.980   5.151  18.006  0.00  0.00    +0.000 S 
BRANCH  15  16
ATOM     16  C   UNL     1       5.247   5.634  18.320  0.00  0.00    +0.000 C 
BRANCH  16  18
ATOM     17  N   UNL     1       3.141   4.774  19.392  0.00  0.00    +0.000 N 
ATOM     18  C   UNL     1       4.497   4.534  19.085  0.00  0.00    +0.000 C 
ATOM     19  O   UNL     1       5.040   3.495  19.447  0.00  0.00    +0.000 OA
BRANCH  17  21
ATOM     20  C   UNL     1       1.017   3.537  19.933  0.00  0.00    +0.000 C 
ATOM     21  C   UNL     1       2.478   3.799  20.271  0.00  0.00    +0.000 C 
ENDBRANCH  17  21
BRANCH  17  22
ATOM     22  C   UNL     1       2.469   6.010  18.965  0.00  0.00    +0.000 C 
ATOM     23  C   UNL     1       2.224   7.108  19.982  0.00  0.00    +0.000 C 
ENDBRANCH  17  22
ENDBRANCH  16  18
ENDBRANCH  15  16
ENDBRANCH   1  15
TORSDOF 7
ENDMDL
MODEL 3
REMARK VINA RESULT:      -6.5      1.063      1.155
REMARK  Name = 
REMARK  9 active torsions:
REMARK  status: ('A' for Active; 'I' for Inactive)
REMARK    1  A    between atoms: C_1  and  C_2
REMARK    2  A    between atoms: C_2  and  N_3
REMARK    3  A    between atoms: N_3  and  C_4
REMARK    4  A    between atoms: C_4  and  C_5
REMARK    5  A    between atoms: C_6  and  C_8
REMARK    6  A    between atoms: C_8  and  S_9
REMARK    7  A    between atoms: S_9  and  C_10
REMARK    8  A    between atoms: C_13  and  C_14
REMARK    9  A    between atoms: N_20  and  N_21
REMARK                            x       y       z     vdW  Elec       q    Type
REMARK                         _______ _______ _______ _____ _____    ______ ____
ROOT
ATOM      1  C   UNL     1       7.213   4.933  15.966  0.00  0.00    +0.000 A 
ATOM      2  N   UNL     1       7.826   5.704  15.103  0.00  0.00    +0.000 NA
ATOM      3  N   UNL     1       7.464   5.277  13.843  0.00  0.00    +0.000 NA
ATOM      4  C   UNL     1       6.610   4.269  13.959  0.00  0.00    +0.000 A 
ATOM      5  N   UNL     1       6.473   3.981  15.307  0.00  0.00    +0.000 N 
ENDROOT
BRANCH   4   6
ATOM      6  C   UNL     1       5.962   3.571  12.843  0.00  0.00    +0.000 A 
ATOM      7  C   UNL     1       4.686   3.978  12.427  0.00  0.00    +0.000 A 
ATOM      8  C   UNL     1       4.021   3.312  11.393  0.00  0.00    +0.000 A 
ATOM      9  C   UNL     1       4.622   2.224  10.763  0.00  0.00    +0.000 A 
ATOM     10  C   UNL     1       5.887   1.805  11.165  0.00  0.00    +0.000 A 
ATOM     11  C   UNL     1       6.551   2.471  12.200  0.00  0.00    +0.000 A 
ENDBRANCH   4   6
BRANCH   5  12
ATOM     12  N   UNL     1       5.759   2.870  15.900  0.00  0.00    +0.000 N 
ATOM     13  H   UNL     1       6.026   2.752  16.877  0.00  0.00    +0.000 HD
ATOM     14  H   UNL     1       4.758   3.071  15.915  0.00  0.00    +0.000 HD
ENDBRANCH   5  12
BRANCH   1  15
ATOM     15  S   UNL     1       7.293   5.021  17.690  0.00  0.00    +0.000 S 
BRANCH  15  16
ATOM     16  C   UNL     1       5.880   6.113  18.072  0.00  0.00    +0.000 C 
BRANCH  16  18
ATOM     17  N   UNL     1       3.380   5.981  18.305  0.00  0.00    +0.000 N 
ATOM     18  C   UNL     1       4.612   5.296  18.359  0.00  0.00    +0.000 C 
ATOM     19  O   UNL     1       4.647   4.104  18.649  0.00  0.00    +0.000 OA
BRANCH  17  21
ATOM     20  C   UNL     1       1.519   4.416  17.658  0.00  0.00    +0.000 C 
ATOM     21  C   UNL     1       2.190   5.238  18.749  0.00  0.00    +0.000 C 
ENDBRANCH  17  21
BRANCH  17  22
ATOM     22  C   UNL     1       3.314   7.408  17.957  0.00  0.00    +0.000 C 
ATOM     23  C   UNL     1       1.960   8.087  17.870  0.00  0.00    +0.000 C 
ENDBRANCH  17  22
ENDBRANCH  16  18
ENDBRANCH  15  16
ENDBRANCH   1  15
TORSDOF 7
ENDMDL
MODEL 4
REMARK VINA RESULT:      -6.5      1.720      2.364
REMARK  Name = 
REMARK  9 active torsions:
REMARK  status: ('A' for Active; 'I' for Inactive)
REMARK    1  A    between atoms: C_1  and  C_2
REMARK    2  A    between atoms: C_2  and  N_3
REMARK    3  A    between atoms: N_3  and  C_4
REMARK    4  A    between atoms: C_4  and  C_5
REMARK    5  A    between atoms: C_6  and  C_8
REMARK    6  A    between atoms: C_8  and  S_9
REMARK    7  A    between atoms: S_9  and  C_10
REMARK    8  A    between atoms: C_13  and  C_14
REMARK    9  A    between atoms: N_20  and  N_21
REMARK                            x       y       z     vdW  Elec       q    Type
REMARK                         _______ _______ _______ _____ _____    ______ ____
ROOT
ATOM      1  C   UNL     1       6.408   4.901  18.003  0.00  0.00    +0.000 A 
ATOM      2  N   UNL     1       7.641   4.460  18.002  0.00  0.00    +0.000 NA
ATOM      3  N   UNL     1       7.998   4.247  16.687  0.00  0.00    +0.000 NA
ATOM      4  C   UNL     1       6.984   4.592  15.904  0.00  0.00    +0.000 A 
ATOM      5  N   UNL     1       5.924   4.958  16.717  0.00  0.00    +0.000 N 
ENDROOT
BRANCH   4   6
ATOM      6  C   UNL     1       6.991   4.552  14.438  0.00  0.00    +0.000 A 
ATOM      7  C   UNL     1       6.206   3.598  13.773  0.00  0.00    +0.000 A 
ATOM      8  C   UNL     1       6.217   3.504  12.378  0.00  0.00    +0.000 A 
ATOM      9  C   UNL     1       7.020   4.360  11.628  0.00  0.00    +0.000 A 
ATOM     10  C   UNL     1       7.808   5.310  12.270  0.00  0.00    +0.000 A 
ATOM     11  C   UNL     1       7.797   5.403  13.666  0.00  0.00    +0.000 A 
ENDBRANCH   4   6
BRANCH   5  12
ATOM     12  N   UNL     1       4.571   5.269  16.310  0.00  0.00    +0.000 N 
ATOM     13  H   UNL     1       3.977   5.420  17.124  0.00  0.00    +0.000 HD
ATOM     14  H   UNL     1       4.558   6.152  15.797  0.00  0.00    +0.000 HD
ENDBRANCH   5  12
BRANCH   1  15
ATOM     15  S   UNL     1       5.455   5.341  19.376  0.00  0.00    +0.000 S 
BRANCH  15  16
ATOM     16  C   UNL     1       4.676   3.748  19.813  0.00  0.00    +0.000 C 
BRANCH  16  18
ATOM     17  N   UNL     1       2.213   3.909  19.328  0.00  0.00    +0.000 N 
ATOM     18  C   UNL     1       3.477   3.450  18.900  0.00  0.00    +0.000 C 
ATOM     19  O   UNL     1       3.586   2.821  17.852  0.00  0.00    +0.000 OA
BRANCH  17  21
ATOM     20  C   UNL     1       0.575   2.059  18.852  0.00  0.00    +0.000 C 
ATOM     21  C   UNL     1       1.050   3.472  18.541  0.00  0.00    +0.000 C 
ENDBRANCH  17  21
BRANCH  17  22
ATOM     22  C   UNL     1       2.060   4.668  20.578  0.00  0.00    +0.000 C 
ATOM     23  C   UNL     1       1.796   6.160  20.511  0.00  0.00    +0.000 C 
ENDBRANCH  17  22
ENDBRANCH  16  18
ENDBRANCH  15  16
ENDBRANCH   1  15
TORSDOF 7
ENDMDL
MODEL 5
REMARK VINA RESULT:      -6.4      1.604      2.346
REMARK  Name = 
REMARK  9 active torsions:
REMARK  status: ('A' for Active; 'I' for Inactive)
REMARK    1  A    between atoms: C_1  and  C_2
REMARK    2  A    between atoms: C_2  and  N_3
REMARK    3  A    between atoms: N_3  and  C_4
REMARK    4  A    between atoms: C_4  and  C_5
REMARK    5  A    between atoms: C_6  and  C_8
REMARK    6  A    between atoms: C_8  and  S_9
REMARK    7  A    between atoms: S_9  and  C_10
REMARK    8  A    between atoms: C_13  and  C_14
REMARK    9  A    between atoms: N_20  and  N_21
REMARK                            x       y       z     vdW  Elec       q    Type
REMARK                         _______ _______ _______ _____ _____    ______ ____
ROOT
ATOM      1  C   UNL     1       6.412   5.387  17.781  0.00  0.00    +0.000 A 
ATOM      2  N   UNL     1       7.177   6.397  17.450  0.00  0.00    +0.000 NA
ATOM      3  N   UNL     1       7.449   6.280  16.104  0.00  0.00    +0.000 NA
ATOM      4  C   UNL     1       6.819   5.214  15.627  0.00  0.00    +0.000 A 
ATOM      5  N   UNL     1       6.193   4.581  16.689  0.00  0.00    +0.000 N 
ENDROOT
BRANCH   4   6
ATOM      6  C   UNL     1       6.825   4.778  14.227  0.00  0.00    +0.000 A 
ATOM      7  C   UNL     1       5.901   3.810  13.805  0.00  0.00    +0.000 A 
ATOM      8  C   UNL     1       5.902   3.342  12.488  0.00  0.00    +0.000 A 
ATOM      9  C   UNL     1       6.833   3.830  11.574  0.00  0.00    +0.000 A 
ATOM     10  C   UNL     1       7.760   4.788  11.976  0.00  0.00    +0.000 A 
ATOM     11  C   UNL     1       7.758   5.256  13.294  0.00  0.00    +0.000 A 
ENDBRANCH   4   6
BRANCH   5  12
ATOM     12  N   UNL     1       5.511   3.305  16.673  0.00  0.00    +0.000 N 
ATOM     13  H   UNL     1       6.173   2.542  16.802  0.00  0.00    +0.000 HD
ATOM     14  H   UNL     1       4.870   3.246  17.467  0.00  0.00    +0.000 HD
ENDBRANCH   5  12
BRANCH   1  15
ATOM     15  S   UNL     1       5.758   5.037  19.342  0.00  0.00    +0.000 S 
BRANCH  15  16
ATOM     16  C   UNL     1       4.035   5.616  19.161  0.00  0.00    +0.000 C 
BRANCH  16  18
ATOM     17  N   UNL     1       2.507   3.643  19.478  0.00  0.00    +0.000 N 
ATOM     18  C   UNL     1       3.143   4.515  18.569  0.00  0.00    +0.000 C 
ATOM     19  O   UNL     1       2.994   4.366  17.360  0.00  0.00    +0.000 OA
BRANCH  17  21
ATOM     20  C   UNL     1       0.285   2.651  18.838  0.00  0.00    +0.000 C 
ATOM     21  C   UNL     1       1.798   2.490  18.903  0.00  0.00    +0.000 C 
ENDBRANCH  17  21
BRANCH  17  22
ATOM     22  C   UNL     1       2.668   3.805  20.931  0.00  0.00    +0.000 C 
ATOM     23  C   UNL     1       2.308   2.653  21.848  0.00  0.00    +0.000 C 
ENDBRANCH  17  22
ENDBRANCH  16  18
ENDBRANCH  15  16
ENDBRANCH   1  15
TORSDOF 7
ENDMDL
MODEL 6
REMARK VINA RESULT:      -6.4      1.682      2.543
REMARK  Name = 
REMARK  9 active torsions:
REMARK  status: ('A' for Active; 'I' for Inactive)
REMARK    1  A    between atoms: C_1  and  C_2
REMARK    2  A    between atoms: C_2  and  N_3
REMARK    3  A    between atoms: N_3  and  C_4
REMARK    4  A    between atoms: C_4  and  C_5
REMARK    5  A    between atoms: C_6  and  C_8
REMARK    6  A    between atoms: C_8  and  S_9
REMARK    7  A    between atoms: S_9  and  C_10
REMARK    8  A    between atoms: C_13  and  C_14
REMARK    9  A    between atoms: N_20  and  N_21
REMARK                            x       y       z     vdW  Elec       q    Type
REMARK                         _______ _______ _______ _____ _____    ______ ____
ROOT
ATOM      1  C   UNL     1       6.413   5.443  17.939  0.00  0.00    +0.000 A 
ATOM      2  N   UNL     1       7.143   6.478  17.608  0.00  0.00    +0.000 NA
ATOM      3  N   UNL     1       7.428   6.364  16.264  0.00  0.00    +0.000 NA
ATOM      4  C   UNL     1       6.841   5.273  15.789  0.00  0.00    +0.000 A 
ATOM      5  N   UNL     1       6.231   4.624  16.850  0.00  0.00    +0.000 N 
ENDROOT
BRANCH   4   6
ATOM      6  C   UNL     1       6.872   4.831  14.391  0.00  0.00    +0.000 A 
ATOM      7  C   UNL     1       7.787   5.419  13.505  0.00  0.00    +0.000 A 
ATOM      8  C   UNL     1       7.820   5.050  12.157  0.00  0.00    +0.000 A 
ATOM      9  C   UNL     1       6.933   4.091  11.674  0.00  0.00    +0.000 A 
ATOM     10  C   UNL     1       6.016   3.499  12.538  0.00  0.00    +0.000 A 
ATOM     11  C   UNL     1       5.983   3.869  13.887  0.00  0.00    +0.000 A 
ENDBRANCH   4   6
BRANCH   5  12
ATOM     12  N   UNL     1       5.596   3.324  16.836  0.00  0.00    +0.000 N 
ATOM     13  H   UNL     1       5.643   2.911  15.906  0.00  0.00    +0.000 HD
ATOM     14  H   UNL     1       6.108   2.682  17.444  0.00  0.00    +0.000 HD
ENDBRANCH   5  12
BRANCH   1  15
ATOM     15  S   UNL     1       5.761   5.077  19.497  0.00  0.00    +0.000 S 
BRANCH  15  16
ATOM     16  C   UNL     1       4.106   5.842  19.397  0.00  0.00    +0.000 C 
BRANCH  16  18
ATOM     17  N   UNL     1       2.522   3.891  19.290  0.00  0.00    +0.000 N 
ATOM     18  C   UNL     1       3.136   4.957  18.599  0.00  0.00    +0.000 C 
ATOM     19  O   UNL     1       2.910   5.135  17.406  0.00  0.00    +0.000 OA
BRANCH  17  21
ATOM     20  C   UNL     1       2.519   1.745  17.977  0.00  0.00    +0.000 C 
ATOM     21  C   UNL     1       1.734   2.946  18.483  0.00  0.00    +0.000 C 
ENDBRANCH  17  21
BRANCH  17  22
ATOM     22  C   UNL     1       2.776   3.661  20.720  0.00  0.00    +0.000 C 
ATOM     23  C   UNL     1       1.660   3.118  21.592  0.00  0.00    +0.000 C 
ENDBRANCH  17  22
ENDBRANCH  16  18
ENDBRANCH  15  16
ENDBRANCH   1  15
TORSDOF 7
ENDMDL
MODEL 7
REMARK VINA RESULT:      -6.4      1.954      2.855
REMARK  Name = 
REMARK  9 active torsions:
REMARK  status: ('A' for Active; 'I' for Inactive)
REMARK    1  A    between atoms: C_1  and  C_2
REMARK    2  A    between atoms: C_2  and  N_3
REMARK    3  A    between atoms: N_3  and  C_4
REMARK    4  A    between atoms: C_4  and  C_5
REMARK    5  A    between atoms: C_6  and  C_8
REMARK    6  A    between atoms: C_8  and  S_9
REMARK    7  A    between atoms: S_9  and  C_10
REMARK    8  A    between atoms: C_13  and  C_14
REMARK    9  A    between atoms: N_20  and  N_21
REMARK                            x       y       z     vdW  Elec       q    Type
REMARK                         _______ _______ _______ _____ _____    ______ ____
ROOT
ATOM      1  C   UNL     1       5.073   5.989  17.619  0.00  0.00    +0.000 A 
ATOM      2  N   UNL     1       4.701   7.021  16.905  0.00  0.00    +0.000 NA
ATOM      3  N   UNL     1       5.061   6.767  15.599  0.00  0.00    +0.000 NA
ATOM      4  C   UNL     1       5.623   5.566  15.533  0.00  0.00    +0.000 A 
ATOM      5  N   UNL     1       5.703   5.063  16.821  0.00  0.00    +0.000 N 
ENDROOT
BRANCH   4   6
ATOM      6  C   UNL     1       6.101   4.918  14.307  0.00  0.00    +0.000 A 
ATOM      7  C   UNL     1       7.317   5.329  13.742  0.00  0.00    +0.000 A 
ATOM      8  C   UNL     1       7.785   4.760  12.553  0.00  0.00    +0.000 A 
ATOM      9  C   UNL     1       7.039   3.776  11.909  0.00  0.00    +0.000 A 
ATOM     10  C   UNL     1       5.828   3.358  12.454  0.00  0.00    +0.000 A 
ATOM     11  C   UNL     1       5.360   3.927  13.643  0.00  0.00    +0.000 A 
ENDBRANCH   4   6
BRANCH   5  12
ATOM     12  N   UNL     1       6.369   3.854  17.252  0.00  0.00    +0.000 N 
ATOM     13  H   UNL     1       6.935   3.466  16.498  0.00  0.00    +0.000 HD
ATOM     14  H   UNL     1       7.029   4.071  18.001  0.00  0.00    +0.000 HD
ENDBRANCH   5  12
BRANCH   1  15
ATOM     15  S   UNL     1       4.864   5.762  19.320  0.00  0.00    +0.000 S 
BRANCH  15  16
ATOM     16  C   UNL     1       3.068   6.034  19.512  0.00  0.00    +0.000 C 
BRANCH  16  18
ATOM     17  N   UNL     1       2.038   3.744  19.371  0.00  0.00    +0.000 N 
ATOM     18  C   UNL     1       2.264   4.983  18.734  0.00  0.00    +0.000 C 
ATOM     19  O   UNL     1       1.848   5.180  17.596  0.00  0.00    +0.000 OA
BRANCH  17  21
ATOM     20  C   UNL     1       2.416   1.791  17.830  0.00  0.00    +0.000 C 
ATOM     21  C   UNL     1       1.422   2.685  18.558  0.00  0.00    +0.000 C 
ENDBRANCH  17  21
BRANCH  17  22
ATOM     22  C   UNL     1       2.524   3.487  20.735  0.00  0.00    +0.000 C 
ATOM     23  C   UNL     1       1.635   2.737  21.708  0.00  0.00    +0.000 C 
ENDBRANCH  17  22
ENDBRANCH  16  18
ENDBRANCH  15  16
ENDBRANCH   1  15
TORSDOF 7
ENDMDL
MODEL 8
REMARK VINA RESULT:      -6.4      0.991      1.490
REMARK  Name = 
REMARK  9 active torsions:
REMARK  status: ('A' for Active; 'I' for Inactive)
REMARK    1  A    between atoms: C_1  and  C_2
REMARK    2  A    between atoms: C_2  and  N_3
REMARK    3  A    between atoms: N_3  and  C_4
REMARK    4  A    between atoms: C_4  and  C_5
REMARK    5  A    between atoms: C_6  and  C_8
REMARK    6  A    between atoms: C_8  and  S_9
REMARK    7  A    between atoms: S_9  and  C_10
REMARK    8  A    between atoms: C_13  and  C_14
REMARK    9  A    between atoms: N_20  and  N_21
REMARK                            x       y       z     vdW  Elec       q    Type
REMARK                         _______ _______ _______ _____ _____    ______ ____
ROOT
ATOM      1  C   UNL     1       6.749   5.335  17.194  0.00  0.00    +0.000 A 
ATOM      2  N   UNL     1       7.582   6.089  16.522  0.00  0.00    +0.000 NA
ATOM      3  N   UNL     1       7.513   5.697  15.202  0.00  0.00    +0.000 NA
ATOM      4  C   UNL     1       6.613   4.729  15.085  0.00  0.00    +0.000 A 
ATOM      5  N   UNL     1       6.147   4.428  16.355  0.00  0.00    +0.000 N 
ENDROOT
BRANCH   4   6
ATOM      6  C   UNL     1       6.221   4.079  13.830  0.00  0.00    +0.000 A 
ATOM      7  C   UNL     1       7.212   3.705  12.911  0.00  0.00    +0.000 A 
ATOM      8  C   UNL     1       6.874   3.119  11.688  0.00  0.00    +0.000 A 
ATOM      9  C   UNL     1       5.537   2.904  11.363  0.00  0.00    +0.000 A 
ATOM     10  C   UNL     1       4.539   3.272  12.262  0.00  0.00    +0.000 A 
ATOM     11  C   UNL     1       4.878   3.859  13.485  0.00  0.00    +0.000 A 
ENDBRANCH   4   6
BRANCH   5  12
ATOM     12  N   UNL     1       5.267   3.344  16.733  0.00  0.00    +0.000 N 
ATOM     13  H   UNL     1       4.488   3.691  17.291  0.00  0.00    +0.000 HD
ATOM     14  H   UNL     1       4.842   2.936  15.898  0.00  0.00    +0.000 HD
ENDBRANCH   5  12
BRANCH   1  15
ATOM     15  S   UNL     1       6.420   5.393  18.890  0.00  0.00    +0.000 S 
BRANCH  15  16
ATOM     16  C   UNL     1       4.688   5.973  18.913  0.00  0.00    +0.000 C 
BRANCH  16  18
ATOM     17  N   UNL     1       2.509   5.385  20.021  0.00  0.00    +0.000 N 
ATOM     18  C   UNL     1       3.767   4.935  19.569  0.00  0.00    +0.000 C 
ATOM     19  O   UNL     1       4.099   3.764  19.727  0.00  0.00    +0.000 OA
BRANCH  17  21
ATOM     20  C   UNL     1       0.703   3.633  19.979  0.00  0.00    +0.000 C 
ATOM     21  C   UNL     1       1.705   4.432  20.801  0.00  0.00    +0.000 C 
ENDBRANCH  17  21
BRANCH  17  22
ATOM     22  C   UNL     1       2.088   6.783  19.840  0.00  0.00    +0.000 C 
ATOM     23  C   UNL     1       1.539   7.551  21.027  0.00  0.00    +0.000 C 
ENDBRANCH  17  22
ENDBRANCH  16  18
ENDBRANCH  15  16
ENDBRANCH   1  15
TORSDOF 7
ENDMDL
MODEL 9
REMARK VINA RESULT:      -6.4      1.742      2.436
REMARK  Name = 
REMARK  9 active torsions:
REMARK  status: ('A' for Active; 'I' for Inactive)
REMARK    1  A    between atoms: C_1  and  C_2
REMARK    2  A    between atoms: C_2  and  N_3
REMARK    3  A    between atoms: N_3  and  C_4
REMARK    4  A    between atoms: C_4  and  C_5
REMARK    5  A    between atoms: C_6  and  C_8
REMARK    6  A    between atoms: C_8  and  S_9
REMARK    7  A    between atoms: S_9  and  C_10
REMARK    8  A    between atoms: C_13  and  C_14
REMARK    9  A    between atoms: N_20  and  N_21
REMARK                            x       y       z     vdW  Elec       q    Type
REMARK                         _______ _______ _______ _____ _____    ______ ____
ROOT
ATOM      1  C   UNL     1       6.109   5.997  17.319  0.00  0.00    +0.000 A 
ATOM      2  N   UNL     1       5.279   6.815  16.720  0.00  0.00    +0.000 NA
ATOM      3  N   UNL     1       5.267   6.478  15.383  0.00  0.00    +0.000 NA
ATOM      4  C   UNL     1       6.070   5.439  15.192  0.00  0.00    +0.000 A 
ATOM      5  N   UNL     1       6.674   5.142  16.404  0.00  0.00    +0.000 N 
ENDROOT
BRANCH   4   6
ATOM      6  C   UNL     1       6.292   4.760  13.912  0.00  0.00    +0.000 A 
ATOM      7  C   UNL     1       5.390   3.770  13.494  0.00  0.00    +0.000 A 
ATOM      8  C   UNL     1       5.591   3.074  12.298  0.00  0.00    +0.000 A 
ATOM      9  C   UNL     1       6.701   3.354  11.505  0.00  0.00    +0.000 A 
ATOM     10  C   UNL     1       7.609   4.330  11.906  0.00  0.00    +0.000 A 
ATOM     11  C   UNL     1       7.408   5.026  13.103  0.00  0.00    +0.000 A 
ENDBRANCH   4   6
BRANCH   5  12
ATOM     12  N   UNL     1       7.730   4.183  16.646  0.00  0.00    +0.000 N 
ATOM     13  H   UNL     1       8.318   4.079  15.820  0.00  0.00    +0.000 HD
ATOM     14  H   UNL     1       8.352   4.531  17.379  0.00  0.00    +0.000 HD
ENDBRANCH   5  12
BRANCH   1  15
ATOM     15  S   UNL     1       6.506   5.956  19.000  0.00  0.00    +0.000 S 
BRANCH  15  16
ATOM     16  C   UNL     1       5.519   4.533  19.580  0.00  0.00    +0.000 C 
BRANCH  16  18
ATOM     17  N   UNL     1       3.131   3.763  19.405  0.00  0.00    +0.000 N 
ATOM     18  C   UNL     1       4.017   4.852  19.545  0.00  0.00    +0.000 C 
ATOM     19  O   UNL     1       3.584   5.998  19.609  0.00  0.00    +0.000 OA
BRANCH  17  21
ATOM     20  C   UNL     1       0.775   3.511  20.251  0.00  0.00    +0.000 C 
ATOM     21  C   UNL     1       1.711   4.086  19.198  0.00  0.00    +0.000 C 
ENDBRANCH  17  21
BRANCH  17  22
ATOM     22  C   UNL     1       3.627   2.380  19.330  0.00  0.00    +0.000 C 
ATOM     23  C   UNL     1       3.408   1.583  18.058  0.00  0.00    +0.000 C 
ENDBRANCH  17  22
ENDBRANCH  16  18
ENDBRANCH  15  16
ENDBRANCH   1  15
TORSDOF 7
ENDMDL
