MODEL 1
REMARK VINA RESULT:      -8.8      0.000      0.000
REMARK  Name = 
REMARK  5 active torsions:
REMARK  status: ('A' for Active; 'I' for Inactive)
REMARK    1  A    between atoms: C_1  and  C_2
REMARK    2  A    between atoms: C_2  and  C_3
REMARK    3  A    between atoms: C_3  and  C_4
REMARK    4  A    between atoms: C_11  and  C_13
REMARK    5  A    between atoms: C_27  and  C_28
REMARK                            x       y       z     vdW  Elec       q    Type
REMARK                         _______ _______ _______ _____ _____    ______ ____
ROOT
ATOM      1  C   UNL     1       1.946   7.973  18.924  0.00  0.00    +0.000 A 
ATOM      2  C   UNL     1       1.833   8.822  17.800  0.00  0.00    +0.000 A 
ATOM      3  N   UNL     1       1.490  10.075  18.112  0.00  0.00    +0.000 NA
ATOM      4  N   UNL     1       1.243  10.023  19.439  0.00  0.00    +0.000 N 
ATOM      5  C   UNL     1       0.836  11.209  20.112  0.00  0.00    +0.000 A 
ATOM      6  N   UNL     1      -0.030  11.240  21.077  0.00  0.00    +0.000 NA
ATOM      7  N   UNL     1      -0.167  12.474  21.613  0.00  0.00    +0.000 N 
ATOM      8  C   UNL     1      -1.160  12.896  22.452  0.00  0.00    +0.000 A 
ATOM      9  C   UNL     1      -0.859  14.177  22.863  0.00  0.00    +0.000 A 
ATOM     10  C   UNL     1       0.363  14.545  22.243  0.00  0.00    +0.000 A 
ATOM     11  C   UNL     1       0.708  13.502  21.411  0.00  0.00    +0.000 A 
ATOM     12  C   UNL     1       1.768  13.324  20.476  0.00  0.00    +0.000 A 
ATOM     13  O   UNL     1       2.813  13.957  20.475  0.00  0.00    +0.000 OA
ATOM     14  N   UNL     1       1.530  12.287  19.611  0.00  0.00    +0.000 N 
ATOM     15  C   UNL     1       1.472   8.769  19.969  0.00  0.00    +0.000 A 
ATOM     16  C   UNL     1       1.323   8.439  21.417  0.00  0.00    +0.000 C 
ATOM     17  H   UNL     1       1.042  12.636  18.793  0.00  0.00    +0.000 HD
ENDROOT
BRANCH   1  22
ATOM     18  C   UNL     1       6.300   5.338  18.107  0.00  0.00    +0.000 C 
ATOM     19  C   UNL     1       5.346   4.747  19.188  0.00  0.00    +0.000 C 
ATOM     20  C   UNL     1       3.889   4.688  18.714  0.00  0.00    +0.000 C 
ATOM     21  N   UNL     1       3.425   6.029  18.341  0.00  0.00    +0.000 N 
ATOM     22  C   UNL     1       2.368   6.575  19.083  0.00  0.00    +0.000 C 
ATOM     23  O   UNL     1       1.808   5.898  19.943  0.00  0.00    +0.000 OA
ATOM     24  C   UNL     1       4.212   6.648  17.281  0.00  0.00    +0.000 C 
ATOM     25  C   UNL     1       5.696   6.683  17.627  0.00  0.00    +0.000 C 
BRANCH  18  26
ATOM     26  C   UNL     1       7.689   5.643  18.725  0.00  0.00    +0.000 C 
ATOM     27  F   UNL     1       7.641   5.755  20.069  0.00  0.00    +0.000 F 
ATOM     28  F   UNL     1       8.582   4.663  18.443  0.00  0.00    +0.000 F 
ATOM     29  F   UNL     1       8.213   6.795  18.250  0.00  0.00    +0.000 F 
ENDBRANCH  18  26
BRANCH  18  31
ATOM     30  C   UNL     1       6.922   4.718  15.620  0.00  0.00    +0.000 C 
ATOM     31  C   UNL     1       6.436   4.263  16.984  0.00  0.00    +0.000 C 
ENDBRANCH  18  31
ENDBRANCH   1  22
TORSDOF 3
ENDMDL
MODEL 2
REMARK VINA RESULT:      -8.5      3.268      4.627
REMARK  Name = 
REMARK  5 active torsions:
REMARK  status: ('A' for Active; 'I' for Inactive)
REMARK    1  A    between atoms: C_1  and  C_2
REMARK    2  A    between atoms: C_2  and  C_3
REMARK    3  A    between atoms: C_3  and  C_4
REMARK    4  A    between atoms: C_11  and  C_13
REMARK    5  A    between atoms: C_27  and  C_28
REMARK                            x       y       z     vdW  Elec       q    Type
REMARK                         _______ _______ _______ _____ _____    ______ ____
ROOT
ATOM      1  C   UNL     1       0.464   9.382  20.851  0.00  0.00    +0.000 A 
ATOM      2  C   UNL     1      -0.117   8.703  21.945  0.00  0.00    +0.000 A 
ATOM      3  N   UNL     1      -0.800   9.505  22.767  0.00  0.00    +0.000 NA
ATOM      4  N   UNL     1      -0.557  10.745  22.287  0.00  0.00    +0.000 N 
ATOM      5  C   UNL     1      -1.138  11.865  22.945  0.00  0.00    +0.000 A 
ATOM      6  N   UNL     1      -0.548  13.011  23.091  0.00  0.00    +0.000 NA
ATOM      7  N   UNL     1      -1.350  13.939  23.661  0.00  0.00    +0.000 N 
ATOM      8  C   UNL     1      -0.966  15.144  24.180  0.00  0.00    +0.000 A 
ATOM      9  C   UNL     1      -2.103  15.835  24.545  0.00  0.00    +0.000 A 
ATOM     10  C   UNL     1      -3.216  15.011  24.239  0.00  0.00    +0.000 A 
ATOM     11  C   UNL     1      -2.704  13.817  23.780  0.00  0.00    +0.000 A 
ATOM     12  C   UNL     1      -3.315  12.586  23.404  0.00  0.00    +0.000 A 
ATOM     13  O   UNL     1      -4.488  12.456  23.084  0.00  0.00    +0.000 OA
ATOM     14  N   UNL     1      -2.415  11.553  23.350  0.00  0.00    +0.000 N 
ATOM     15  C   UNL     1       0.228  10.725  21.152  0.00  0.00    +0.000 A 
ATOM     16  C   UNL     1       0.613  11.947  20.387  0.00  0.00    +0.000 C 
ATOM     17  H   UNL     1      -2.366  11.102  24.258  0.00  0.00    +0.000 HD
ENDROOT
BRANCH   1  22
ATOM     18  C   UNL     1       2.323   4.861  19.216  0.00  0.00    +0.000 C 
ATOM     19  C   UNL     1       2.006   5.904  18.102  0.00  0.00    +0.000 C 
ATOM     20  C   UNL     1       2.559   7.296  18.429  0.00  0.00    +0.000 C 
ATOM     21  N   UNL     1       2.011   7.770  19.704  0.00  0.00    +0.000 N 
ATOM     22  C   UNL     1       1.215   8.924  19.675  0.00  0.00    +0.000 C 
ATOM     23  O   UNL     1       1.076   9.547  18.624  0.00  0.00    +0.000 OA
ATOM     24  C   UNL     1       2.312   6.896  20.832  0.00  0.00    +0.000 C 
ATOM     25  C   UNL     1       1.867   5.462  20.570  0.00  0.00    +0.000 C 
BRANCH  18  26
ATOM     26  C   UNL     1       1.508   3.562  18.983  0.00  0.00    +0.000 C 
ATOM     27  F   UNL     1       1.075   3.446  17.710  0.00  0.00    +0.000 F 
ATOM     28  F   UNL     1       2.249   2.459  19.249  0.00  0.00    +0.000 F 
ATOM     29  F   UNL     1       0.417   3.499  19.780  0.00  0.00    +0.000 F 
ENDBRANCH  18  26
BRANCH  18  31
ATOM     30  C   UNL     1       4.431   4.183  17.783  0.00  0.00    +0.000 C 
ATOM     31  C   UNL     1       3.851   4.558  19.135  0.00  0.00    +0.000 C 
ENDBRANCH  18  31
ENDBRANCH   1  22
TORSDOF 3
ENDMDL
MODEL 3
REMARK VINA RESULT:      -8.2      3.338      4.308
REMARK  Name = 
REMARK  5 active torsions:
REMARK  status: ('A' for Active; 'I' for Inactive)
REMARK    1  A    between atoms: C_1  and  C_2
REMARK    2  A    between atoms: C_2  and  C_3
REMARK    3  A    between atoms: C_3  and  C_4
REMARK    4  A    between atoms: C_11  and  C_13
REMARK    5  A    between atoms: C_27  and  C_28
REMARK                            x       y       z     vdW  Elec       q    Type
REMARK                         _______ _______ _______ _____ _____    ______ ____
ROOT
ATOM      1  C   UNL     1       1.185   8.887  20.371  0.00  0.00    +0.000 A 
ATOM      2  C   UNL     1       1.019   8.480  21.714  0.00  0.00    +0.000 A 
ATOM      3  N   UNL     1       0.445   9.408  22.485  0.00  0.00    +0.000 NA
ATOM      4  N   UNL     1       0.353  10.489  21.677  0.00  0.00    +0.000 N 
ATOM      5  C   UNL     1      -0.217  11.687  22.191  0.00  0.00    +0.000 A 
ATOM      6  N   UNL     1       0.195  12.879  21.887  0.00  0.00    +0.000 NA
ATOM      7  N   UNL     1      -0.576  13.849  22.429  0.00  0.00    +0.000 N 
ATOM      8  C   UNL     1      -0.275  15.179  22.517  0.00  0.00    +0.000 A 
ATOM      9  C   UNL     1      -1.379  15.836  23.020  0.00  0.00    +0.000 A 
ATOM     10  C   UNL     1      -2.384  14.862  23.250  0.00  0.00    +0.000 A 
ATOM     11  C   UNL     1      -1.817  13.640  22.957  0.00  0.00    +0.000 A 
ATOM     12  C   UNL     1      -2.294  12.303  23.074  0.00  0.00    +0.000 A 
ATOM     13  O   UNL     1      -3.471  11.983  23.145  0.00  0.00    +0.000 OA
ATOM     14  N   UNL     1      -1.280  11.381  23.009  0.00  0.00    +0.000 N 
ATOM     15  C   UNL     1       0.816  10.234  20.403  0.00  0.00    +0.000 A 
ATOM     16  C   UNL     1       0.789  11.233  19.293  0.00  0.00    +0.000 C 
ATOM     17  H   UNL     1      -0.930  11.200  23.944  0.00  0.00    +0.000 HD
ENDROOT
BRANCH   1  22
ATOM     18  C   UNL     1       2.289   4.006  19.136  0.00  0.00    +0.000 C 
ATOM     19  C   UNL     1       1.891   4.931  17.946  0.00  0.00    +0.000 C 
ATOM     20  C   UNL     1       2.625   6.277  17.980  0.00  0.00    +0.000 C 
ATOM     21  N   UNL     1       2.350   6.970  19.243  0.00  0.00    +0.000 N 
ATOM     22  C   UNL     1       1.676   8.198  19.172  0.00  0.00    +0.000 C 
ATOM     23  O   UNL     1       1.423   8.696  18.076  0.00  0.00    +0.000 OA
ATOM     24  C   UNL     1       2.751   6.216  20.425  0.00  0.00    +0.000 C 
ATOM     25  C   UNL     1       2.130   4.824  20.444  0.00  0.00    +0.000 C 
BRANCH  18  26
ATOM     26  C   UNL     1       1.324   2.796  19.222  0.00  0.00    +0.000 C 
ATOM     27  F   UNL     1       1.978   1.616  19.253  0.00  0.00    +0.000 F 
ATOM     28  F   UNL     1       0.559   2.851  20.339  0.00  0.00    +0.000 F 
ATOM     29  F   UNL     1       0.474   2.750  18.171  0.00  0.00    +0.000 F 
ENDBRANCH  18  26
BRANCH  18  31
ATOM     30  C   UNL     1       4.134   3.206  17.430  0.00  0.00    +0.000 C 
ATOM     31  C   UNL     1       3.744   3.515  18.864  0.00  0.00    +0.000 C 
ENDBRANCH  18  31
ENDBRANCH   1  22
TORSDOF 3
ENDMDL
MODEL 4
REMARK VINA RESULT:      -8.0      4.512      8.864
REMARK  Name = 
REMARK  5 active torsions:
REMARK  status: ('A' for Active; 'I' for Inactive)
REMARK    1  A    between atoms: C_1  and  C_2
REMARK    2  A    between atoms: C_2  and  C_3
REMARK    3  A    between atoms: C_3  and  C_4
REMARK    4  A    between atoms: C_11  and  C_13
REMARK    5  A    between atoms: C_27  and  C_28
REMARK                            x       y       z     vdW  Elec       q    Type
REMARK                         _______ _______ _______ _____ _____    ______ ____
ROOT
ATOM      1  C   UNL     1       1.143  10.259  18.786  0.00  0.00    +0.000 A 
ATOM      2  C   UNL     1       2.178   9.959  17.872  0.00  0.00    +0.000 A 
ATOM      3  N   UNL     1       2.570   8.683  17.913  0.00  0.00    +0.000 NA
ATOM      4  N   UNL     1       1.883   8.165  18.955  0.00  0.00    +0.000 N 
ATOM      5  C   UNL     1       2.071   6.796  19.293  0.00  0.00    +0.000 A 
ATOM      6  N   UNL     1       2.081   6.339  20.507  0.00  0.00    +0.000 NA
ATOM      7  N   UNL     1       2.176   4.991  20.554  0.00  0.00    +0.000 N 
ATOM      8  C   UNL     1       2.466   4.229  21.652  0.00  0.00    +0.000 A 
ATOM      9  C   UNL     1       2.341   2.902  21.298  0.00  0.00    +0.000 A 
ATOM     10  C   UNL     1       1.965   2.861  19.931  0.00  0.00    +0.000 A 
ATOM     11  C   UNL     1       1.963   4.167  19.488  0.00  0.00    +0.000 A 
ATOM     12  C   UNL     1       1.753   4.749  18.205  0.00  0.00    +0.000 A 
ATOM     13  O   UNL     1       1.180   4.204  17.274  0.00  0.00    +0.000 OA
ATOM     14  N   UNL     1       2.191   6.047  18.145  0.00  0.00    +0.000 N 
ATOM     15  C   UNL     1       1.033   9.085  19.534  0.00  0.00    +0.000 A 
ATOM     16  C   UNL     1       0.120   8.772  20.673  0.00  0.00    +0.000 C 
ATOM     17  H   UNL     1       3.162   6.061  17.849  0.00  0.00    +0.000 HD
ENDROOT
BRANCH   1  22
ATOM     18  C   UNL     1       2.168  15.297  19.153  0.00  0.00    +0.000 C 
ATOM     19  C   UNL     1       0.717  14.933  18.717  0.00  0.00    +0.000 C 
ATOM     20  C   UNL     1       0.096  13.844  19.600  0.00  0.00    +0.000 C 
ATOM     21  N   UNL     1       0.927  12.636  19.569  0.00  0.00    +0.000 N 
ATOM     22  C   UNL     1       0.353  11.471  19.038  0.00  0.00    +0.000 C 
ATOM     23  O   UNL     1      -0.831  11.467  18.707  0.00  0.00    +0.000 OA
ATOM     24  C   UNL     1       2.294  12.852  20.027  0.00  0.00    +0.000 C 
ATOM     25  C   UNL     1       2.975  13.978  19.257  0.00  0.00    +0.000 C 
BRANCH  18  26
ATOM     26  C   UNL     1       2.848  16.178  18.074  0.00  0.00    +0.000 C 
ATOM     27  F   UNL     1       1.982  17.024  17.477  0.00  0.00    +0.000 F 
ATOM     28  F   UNL     1       3.837  16.937  18.605  0.00  0.00    +0.000 F 
ATOM     29  F   UNL     1       3.413  15.434  17.095  0.00  0.00    +0.000 F 
ENDBRANCH  18  26
BRANCH  18  31
ATOM     30  C   UNL     1       1.078  17.243  20.562  0.00  0.00    +0.000 C 
ATOM     31  C   UNL     1       2.056  16.084  20.496  0.00  0.00    +0.000 C 
ENDBRANCH  18  31
ENDBRANCH   1  22
TORSDOF 3
ENDMDL
MODEL 5
REMARK VINA RESULT:      -8.0      3.128      3.969
REMARK  Name = 
REMARK  5 active torsions:
REMARK  status: ('A' for Active; 'I' for Inactive)
REMARK    1  A    between atoms: C_1  and  C_2
REMARK    2  A    between atoms: C_2  and  C_3
REMARK    3  A    between atoms: C_3  and  C_4
REMARK    4  A    between atoms: C_11  and  C_13
REMARK    5  A    between atoms: C_27  and  C_28
REMARK                            x       y       z     vdW  Elec       q    Type
REMARK                         _______ _______ _______ _____ _____    ______ ____
ROOT
ATOM      1  C   UNL     1       1.665   8.562  18.680  0.00  0.00    +0.000 A 
ATOM      2  C   UNL     1       0.757   8.998  17.689  0.00  0.00    +0.000 A 
ATOM      3  N   UNL     1      -0.088   9.940  18.118  0.00  0.00    +0.000 NA
ATOM      4  N   UNL     1       0.173  10.032  19.441  0.00  0.00    +0.000 N 
ATOM      5  C   UNL     1      -0.570  10.956  20.228  0.00  0.00    +0.000 A 
ATOM      6  N   UNL     1      -0.950  10.734  21.448  0.00  0.00    +0.000 NA
ATOM      7  N   UNL     1      -1.553  11.808  22.007  0.00  0.00    +0.000 N 
ATOM      8  C   UNL     1      -2.285  11.825  23.162  0.00  0.00    +0.000 A 
ATOM      9  C   UNL     1      -2.612  13.135  23.442  0.00  0.00    +0.000 A 
ATOM     10  C   UNL     1      -2.060  13.940  22.412  0.00  0.00    +0.000 A 
ATOM     11  C   UNL     1      -1.494  13.073  21.501  0.00  0.00    +0.000 A 
ATOM     12  C   UNL     1      -0.873  13.275  20.236  0.00  0.00    +0.000 A 
ATOM     13  O   UNL     1      -0.403  14.335  19.847  0.00  0.00    +0.000 OA
ATOM     14  N   UNL     1      -0.773  12.114  19.513  0.00  0.00    +0.000 N 
ATOM     15  C   UNL     1       1.199   9.197  19.834  0.00  0.00    +0.000 A 
ATOM     16  C   UNL     1       1.726   9.128  21.229  0.00  0.00    +0.000 C 
ATOM     17  H   UNL     1      -1.605  12.001  18.942  0.00  0.00    +0.000 HD
ENDROOT
BRANCH   1  22
ATOM     18  C   UNL     1       2.269   3.493  19.394  0.00  0.00    +0.000 C 
ATOM     19  C   UNL     1       3.337   4.181  18.492  0.00  0.00    +0.000 C 
ATOM     20  C   UNL     1       3.878   5.477  19.108  0.00  0.00    +0.000 C 
ATOM     21  N   UNL     1       2.779   6.415  19.354  0.00  0.00    +0.000 N 
ATOM     22  C   UNL     1       2.800   7.631  18.656  0.00  0.00    +0.000 C 
ATOM     23  O   UNL     1       3.762   7.913  17.944  0.00  0.00    +0.000 OA
ATOM     24  C   UNL     1       1.752   5.893  20.249  0.00  0.00    +0.000 C 
ATOM     25  C   UNL     1       1.203   4.558  19.760  0.00  0.00    +0.000 C 
BRANCH  18  26
ATOM     26  C   UNL     1       1.552   2.363  18.612  0.00  0.00    +0.000 C 
ATOM     27  F   UNL     1       1.661   1.164  19.222  0.00  0.00    +0.000 F 
ATOM     28  F   UNL     1       0.227   2.617  18.479  0.00  0.00    +0.000 F 
ATOM     29  F   UNL     1       2.047   2.219  17.363  0.00  0.00    +0.000 F 
ENDBRANCH  18  26
BRANCH  18  31
ATOM     30  C   UNL     1       2.251   2.725  21.917  0.00  0.00    +0.000 C 
ATOM     31  C   UNL     1       3.025   2.900  20.623  0.00  0.00    +0.000 C 
ENDBRANCH  18  31
ENDBRANCH   1  22
TORSDOF 3
ENDMDL
MODEL 6
REMARK VINA RESULT:      -7.8      3.191      4.266
REMARK  Name = 
REMARK  5 active torsions:
REMARK  status: ('A' for Active; 'I' for Inactive)
REMARK    1  A    between atoms: C_1  and  C_2
REMARK    2  A    between atoms: C_2  and  C_3
REMARK    3  A    between atoms: C_3  and  C_4
REMARK    4  A    between atoms: C_11  and  C_13
REMARK    5  A    between atoms: C_27  and  C_28
REMARK                            x       y       z     vdW  Elec       q    Type
REMARK                         _______ _______ _______ _____ _____    ______ ____
ROOT
ATOM      1  C   UNL     1       0.823   9.385  20.089  0.00  0.00    +0.000 A 
ATOM      2  C   UNL     1       0.101   8.957  21.225  0.00  0.00    +0.000 A 
ATOM      3  N   UNL     1      -0.450   9.959  21.915  0.00  0.00    +0.000 NA
ATOM      4  N   UNL     1       0.023  11.070  21.307  0.00  0.00    +0.000 N 
ATOM      5  C   UNL     1      -0.366  12.346  21.802  0.00  0.00    +0.000 A 
ATOM      6  N   UNL     1       0.414  13.381  21.843  0.00  0.00    +0.000 NA
ATOM      7  N   UNL     1      -0.225  14.497  22.263  0.00  0.00    +0.000 N 
ATOM      8  C   UNL     1       0.354  15.671  22.657  0.00  0.00    +0.000 A 
ATOM      9  C   UNL     1      -0.651  16.588  22.885  0.00  0.00    +0.000 A 
ATOM     10  C   UNL     1      -1.885  15.940  22.623  0.00  0.00    +0.000 A 
ATOM     11  C   UNL     1      -1.581  14.628  22.330  0.00  0.00    +0.000 A 
ATOM     12  C   UNL     1      -2.392  13.485  22.071  0.00  0.00    +0.000 A 
ATOM     13  O   UNL     1      -3.560  13.522  21.713  0.00  0.00    +0.000 OA
ATOM     14  N   UNL     1      -1.689  12.313  22.180  0.00  0.00    +0.000 N 
ATOM     15  C   UNL     1       0.821  10.775  20.221  0.00  0.00    +0.000 A 
ATOM     16  C   UNL     1       1.439  11.810  19.339  0.00  0.00    +0.000 C 
ATOM     17  H   UNL     1      -1.746  11.975  23.135  0.00  0.00    +0.000 HD
ENDROOT
BRANCH   1  22
ATOM     18  C   UNL     1       2.275   4.506  19.285  0.00  0.00    +0.000 C 
ATOM     19  C   UNL     1       2.024   5.356  18.003  0.00  0.00    +0.000 C 
ATOM     20  C   UNL     1       2.694   6.733  18.072  0.00  0.00    +0.000 C 
ATOM     21  N   UNL     1       2.211   7.471  19.243  0.00  0.00    +0.000 N 
ATOM     22  C   UNL     1       1.510   8.663  19.011  0.00  0.00    +0.000 C 
ATOM     23  O   UNL     1       1.403   9.098  17.866  0.00  0.00    +0.000 OA
ATOM     24  C   UNL     1       2.462   6.791  20.509  0.00  0.00    +0.000 C 
ATOM     25  C   UNL     1       1.897   5.375  20.511  0.00  0.00    +0.000 C 
BRANCH  18  26
ATOM     26  C   UNL     1       1.354   3.259  19.293  0.00  0.00    +0.000 C 
ATOM     27  F   UNL     1       0.855   2.979  18.070  0.00  0.00    +0.000 F 
ATOM     28  F   UNL     1       2.019   2.155  19.709  0.00  0.00    +0.000 F 
ATOM     29  F   UNL     1       0.299   3.415  20.125  0.00  0.00    +0.000 F 
ENDBRANCH  18  26
BRANCH  18  31
ATOM     30  C   UNL     1       4.351   3.608  17.926  0.00  0.00    +0.000 C 
ATOM     31  C   UNL     1       3.772   4.067  19.252  0.00  0.00    +0.000 C 
ENDBRANCH  18  31
ENDBRANCH   1  22
TORSDOF 3
ENDMDL
MODEL 7
REMARK VINA RESULT:      -7.5      3.190      4.213
REMARK  Name = 
REMARK  5 active torsions:
REMARK  status: ('A' for Active; 'I' for Inactive)
REMARK    1  A    between atoms: C_1  and  C_2
REMARK    2  A    between atoms: C_2  and  C_3
REMARK    3  A    between atoms: C_3  and  C_4
REMARK    4  A    between atoms: C_11  and  C_13
REMARK    5  A    between atoms: C_27  and  C_28
REMARK                            x       y       z     vdW  Elec       q    Type
REMARK                         _______ _______ _______ _____ _____    ______ ____
ROOT
ATOM      1  C   UNL     1       0.977   9.598  19.593  0.00  0.00    +0.000 A 
ATOM      2  C   UNL     1       0.142   9.287  20.690  0.00  0.00    +0.000 A 
ATOM      3  N   UNL     1      -0.416  10.362  21.255  0.00  0.00    +0.000 NA
ATOM      4  N   UNL     1       0.159  11.402  20.612  0.00  0.00    +0.000 N 
ATOM      5  C   UNL     1      -0.209  12.727  20.978  0.00  0.00    +0.000 A 
ATOM      6  N   UNL     1       0.613  13.729  21.011  0.00  0.00    +0.000 NA
ATOM      7  N   UNL     1      -0.005  14.899  21.293  0.00  0.00    +0.000 N 
ATOM      8  C   UNL     1       0.594  16.075  21.650  0.00  0.00    +0.000 A 
ATOM      9  C   UNL     1      -0.381  17.048  21.722  0.00  0.00    +0.000 A 
ATOM     10  C   UNL     1      -1.618  16.433  21.401  0.00  0.00    +0.000 A 
ATOM     11  C   UNL     1      -1.354  15.091  21.231  0.00  0.00    +0.000 A 
ATOM     12  C   UNL     1      -2.194  13.966  20.985  0.00  0.00    +0.000 A 
ATOM     13  O   UNL     1      -3.324  14.024  20.524  0.00  0.00    +0.000 OA
ATOM     14  N   UNL     1      -1.559  12.777  21.240  0.00  0.00    +0.000 N 
ATOM     15  C   UNL     1       1.031  10.993  19.624  0.00  0.00    +0.000 A 
ATOM     16  C   UNL     1       1.769  11.931  18.727  0.00  0.00    +0.000 C 
ATOM     17  H   UNL     1      -1.712  12.516  22.208  0.00  0.00    +0.000 HD
ENDROOT
BRANCH   1  22
ATOM     18  C   UNL     1       2.310   4.627  19.304  0.00  0.00    +0.000 C 
ATOM     19  C   UNL     1       2.186   5.374  17.942  0.00  0.00    +0.000 C 
ATOM     20  C   UNL     1       2.899   6.732  17.951  0.00  0.00    +0.000 C 
ATOM     21  N   UNL     1       2.355   7.579  19.017  0.00  0.00    +0.000 N 
ATOM     22  C   UNL     1       1.718   8.768  18.635  0.00  0.00    +0.000 C 
ATOM     23  O   UNL     1       1.713   9.109  17.453  0.00  0.00    +0.000 OA
ATOM     24  C   UNL     1       2.485   7.001  20.350  0.00  0.00    +0.000 C 
ATOM     25  C   UNL     1       1.871   5.608  20.422  0.00  0.00    +0.000 C 
BRANCH  18  26
ATOM     26  C   UNL     1       1.346   3.414  19.341  0.00  0.00    +0.000 C 
ATOM     27  F   UNL     1       0.328   3.591  20.209  0.00  0.00    +0.000 F 
ATOM     28  F   UNL     1       0.792   3.185  18.126  0.00  0.00    +0.000 F 
ATOM     29  F   UNL     1       1.979   2.275  19.700  0.00  0.00    +0.000 F 
ENDBRANCH  18  26
BRANCH  18  31
ATOM     30  C   UNL     1       4.489   3.677  18.161  0.00  0.00    +0.000 C 
ATOM     31  C   UNL     1       3.788   4.143  19.425  0.00  0.00    +0.000 C 
ENDBRANCH  18  31
ENDBRANCH   1  22
TORSDOF 3
ENDMDL
MODEL 8
REMARK VINA RESULT:      -7.5      1.425      1.935
REMARK  Name = 
REMARK  5 active torsions:
REMARK  status: ('A' for Active; 'I' for Inactive)
REMARK    1  A    between atoms: C_1  and  C_2
REMARK    2  A    between atoms: C_2  and  C_3
REMARK    3  A    between atoms: C_3  and  C_4
REMARK    4  A    between atoms: C_11  and  C_13
REMARK    5  A    between atoms: C_27  and  C_28
REMARK                            x       y       z     vdW  Elec       q    Type
REMARK                         _______ _______ _______ _____ _____    ______ ____
ROOT
ATOM      1  C   UNL     1       1.327   8.838  19.904  0.00  0.00    +0.000 A 
ATOM      2  C   UNL     1       1.311   9.812  18.881  0.00  0.00    +0.000 A 
ATOM      3  N   UNL     1       0.826  10.992  19.276  0.00  0.00    +0.000 NA
ATOM      4  N   UNL     1       0.393  10.759  20.536  0.00  0.00    +0.000 N 
ATOM      5  C   UNL     1      -0.202  11.824  21.268  0.00  0.00    +0.000 A 
ATOM      6  N   UNL     1      -1.198  11.679  22.086  0.00  0.00    +0.000 NA
ATOM      7  N   UNL     1      -1.511  12.826  22.731  0.00  0.00    +0.000 N 
ATOM      8  C   UNL     1      -2.646  13.077  23.450  0.00  0.00    +0.000 A 
ATOM      9  C   UNL     1      -2.512  14.313  24.047  0.00  0.00    +0.000 A 
ATOM     10  C   UNL     1      -1.247  14.832  23.668  0.00  0.00    +0.000 A 
ATOM     11  C   UNL     1      -0.702  13.924  22.786  0.00  0.00    +0.000 A 
ATOM     12  C   UNL     1       0.494  13.931  22.011  0.00  0.00    +0.000 A 
ATOM     13  O   UNL     1       1.474  14.623  22.243  0.00  0.00    +0.000 OA
ATOM     14  N   UNL     1       0.469  12.997  21.007  0.00  0.00    +0.000 N 
ATOM     15  C   UNL     1       0.643   9.466  20.947  0.00  0.00    +0.000 A 
ATOM     16  C   UNL     1       0.313   8.948  22.308  0.00  0.00    +0.000 C 
ATOM     17  H   UNL     1       0.078  13.415  20.169  0.00  0.00    +0.000 HD
ENDROOT
BRANCH   1  22
ATOM     18  C   UNL     1       5.069   6.194  17.543  0.00  0.00    +0.000 C 
ATOM     19  C   UNL     1       4.664   5.676  18.956  0.00  0.00    +0.000 C 
ATOM     20  C   UNL     1       3.144   5.567  19.127  0.00  0.00    +0.000 C 
ATOM     21  N   UNL     1       2.516   6.871  18.892  0.00  0.00    +0.000 N 
ATOM     22  C   UNL     1       1.833   7.461  19.965  0.00  0.00    +0.000 C 
ATOM     23  O   UNL     1       1.701   6.844  21.021  0.00  0.00    +0.000 OA
ATOM     24  C   UNL     1       2.775   7.416  17.564  0.00  0.00    +0.000 C 
ATOM     25  C   UNL     1       4.269   7.492  17.268  0.00  0.00    +0.000 C 
BRANCH  18  26
ATOM     26  C   UNL     1       6.576   6.558  17.516  0.00  0.00    +0.000 C 
ATOM     27  F   UNL     1       7.223   5.998  16.473  0.00  0.00    +0.000 F 
ATOM     28  F   UNL     1       6.759   7.898  17.420  0.00  0.00    +0.000 F 
ATOM     29  F   UNL     1       7.214   6.159  18.639  0.00  0.00    +0.000 F 
ENDBRANCH  18  26
BRANCH  18  31
ATOM     30  C   UNL     1       4.953   3.611  17.019  0.00  0.00    +0.000 C 
ATOM     31  C   UNL     1       4.778   5.040  16.535  0.00  0.00    +0.000 C 
ENDBRANCH  18  31
ENDBRANCH   1  22
TORSDOF 3
ENDMDL
MODEL 9
REMARK VINA RESULT:      -7.4      1.669      2.452
REMARK  Name = 
REMARK  5 active torsions:
REMARK  status: ('A' for Active; 'I' for Inactive)
REMARK    1  A    between atoms: C_1  and  C_2
REMARK    2  A    between atoms: C_2  and  C_3
REMARK    3  A    between atoms: C_3  and  C_4
REMARK    4  A    between atoms: C_11  and  C_13
REMARK    5  A    between atoms: C_27  and  C_28
REMARK                            x       y       z     vdW  Elec       q    Type
REMARK                         _______ _______ _______ _____ _____    ______ ____
ROOT
ATOM      1  C   UNL     1       1.860   7.383  19.775  0.00  0.00    +0.000 A 
ATOM      2  C   UNL     1       1.829   7.686  21.155  0.00  0.00    +0.000 A 
ATOM      3  N   UNL     1       1.416   8.928  21.419  0.00  0.00    +0.000 NA
ATOM      4  N   UNL     1       1.299   9.498  20.198  0.00  0.00    +0.000 N 
ATOM      5  C   UNL     1       0.877  10.853  20.107  0.00  0.00    +0.000 A 
ATOM      6  N   UNL     1       1.328  11.700  19.234  0.00  0.00    +0.000 NA
ATOM      7  N   UNL     1       0.693  12.894  19.293  0.00  0.00    +0.000 N 
ATOM      8  C   UNL     1       1.091  14.061  18.702  0.00  0.00    +0.000 A 
ATOM      9  C   UNL     1       0.102  15.001  18.903  0.00  0.00    +0.000 A 
ATOM     10  C   UNL     1      -0.931  14.377  19.649  0.00  0.00    +0.000 A 
ATOM     11  C   UNL     1      -0.486  13.107  19.945  0.00  0.00    +0.000 A 
ATOM     12  C   UNL     1      -1.034  12.052  20.729  0.00  0.00    +0.000 A 
ATOM     13  O   UNL     1      -2.213  11.944  21.032  0.00  0.00    +0.000 OA
ATOM     14  N   UNL     1      -0.099  11.099  21.045  0.00  0.00    +0.000 N 
ATOM     15  C   UNL     1       1.588   8.616  19.177  0.00  0.00    +0.000 A 
ATOM     16  C   UNL     1       1.495   8.963  17.728  0.00  0.00    +0.000 C 
ATOM     17  H   UNL     1       0.348  11.344  21.923  0.00  0.00    +0.000 HD
ENDROOT
BRANCH   1  22
ATOM     18  C   UNL     1       5.935   5.539  17.214  0.00  0.00    +0.000 C 
ATOM     19  C   UNL     1       4.957   4.470  17.788  0.00  0.00    +0.000 C 
ATOM     20  C   UNL     1       3.490   4.795  17.484  0.00  0.00    +0.000 C 
ATOM     21  N   UNL     1       3.141   6.110  18.031  0.00  0.00    +0.000 N 
ATOM     22  C   UNL     1       2.156   6.155  19.028  0.00  0.00    +0.000 C 
ATOM     23  O   UNL     1       1.558   5.128  19.345  0.00  0.00    +0.000 OA
ATOM     24  C   UNL     1       3.955   7.199  17.502  0.00  0.00    +0.000 C 
ATOM     25  C   UNL     1       5.444   6.931  17.688  0.00  0.00    +0.000 C 
BRANCH  18  26
ATOM     26  C   UNL     1       7.360   5.326  17.786  0.00  0.00    +0.000 C 
ATOM     27  F   UNL     1       8.003   4.295  17.198  0.00  0.00    +0.000 F 
ATOM     28  F   UNL     1       8.133   6.425  17.609  0.00  0.00    +0.000 F 
ATOM     29  F   UNL     1       7.341   5.075  19.114  0.00  0.00    +0.000 F 
ENDBRANCH  18  26
BRANCH  18  31
ATOM     30  C   UNL     1       5.928   3.947  15.111  0.00  0.00    +0.000 C 
ATOM     31  C   UNL     1       5.946   5.361  15.665  0.00  0.00    +0.000 C 
ENDBRANCH  18  31
ENDBRANCH   1  22
TORSDOF 3
ENDMDL
