MODEL 1
REMARK VINA RESULT:      -7.9      0.000      0.000
REMARK  Name = 
REMARK  7 active torsions:
REMARK  status: ('A' for Active; 'I' for Inactive)
REMARK    1  A    between atoms: N_2  and  C_4
REMARK    2  A    between atoms: C_7  and  C_8
REMARK    3  A    between atoms: C_8  and  S_9
REMARK    4  A    between atoms: S_9  and  C_10
REMARK    5  A    between atoms: N_18  and  C_19
REMARK    6  A    between atoms: C_19  and  C_20
REMARK    7  A    between atoms: C_20  and  C_21
REMARK                            x       y       z     vdW  Elec       q    Type
REMARK                         _______ _______ _______ _____ _____    ______ ____
ROOT
ATOM      1  C   UNL     1       7.291   6.271  17.619  0.00  0.00    +0.000 A 
ATOM      2  N   UNL     1       7.330   6.366  16.263  0.00  0.00    +0.000 NA
ATOM      3  C   UNL     1       6.515   5.572  15.543  0.00  0.00    +0.000 A 
ATOM      4  N   UNL     1       5.623   4.668  15.992  0.00  0.00    +0.000 NA
ATOM      5  C   UNL     1       5.621   4.613  17.334  0.00  0.00    +0.000 A 
ATOM      6  C   UNL     1       6.412   5.351  18.207  0.00  0.00    +0.000 A 
ATOM      7  N   UNL     1       6.129   5.003  19.511  0.00  0.00    +0.000 NA
ATOM      8  C   UNL     1       5.202   4.076  19.430  0.00  0.00    +0.000 A 
ATOM      9  N   UNL     1       4.827   3.836  18.137  0.00  0.00    +0.000 N 
ENDROOT
BRANCH   1  10
ATOM     10  S   UNL     1       8.245   7.441  18.546  0.00  0.00    +0.000 S 
BRANCH  10  11
ATOM     11  C   UNL     1       7.989   8.997  17.629  0.00  0.00    +0.000 C 
BRANCH  11  15
ATOM     12  C   UNL     1       9.936  12.277  19.653  0.00  0.00    +0.000 A 
ATOM     13  C   UNL     1       9.948  10.999  20.225  0.00  0.00    +0.000 A 
ATOM     14  C   UNL     1       9.320   9.944  19.559  0.00  0.00    +0.000 A 
ATOM     15  C   UNL     1       8.684  10.152  18.323  0.00  0.00    +0.000 A 
ATOM     16  C   UNL     1       8.679  11.438  17.763  0.00  0.00    +0.000 A 
ATOM     17  C   UNL     1       9.305  12.500  18.423  0.00  0.00    +0.000 A 
BRANCH  12  19
ATOM     18  O   UNL     1      10.058  13.806  21.395  0.00  0.00    +0.000 OA
ATOM     19  N   UNL     1      10.586  13.391  20.353  0.00  0.00    +0.000 N 
ATOM     20  O   UNL     1      11.627  13.853  19.862  0.00  0.00    +0.000 OA
ENDBRANCH  12  19
ENDBRANCH  11  15
ENDBRANCH  10  11
ENDBRANCH   1  10
BRANCH   9  21
ATOM     21  C   UNL     1       3.782   2.928  17.690  0.00  0.00    +0.000 C 
BRANCH  21  22
ATOM     22  C   UNL     1       2.413   3.598  17.527  0.00  0.00    +0.000 C 
BRANCH  22  23
ATOM     23  C   UNL     1       2.162   4.694  18.531  0.00  0.00    +0.000 A 
ATOM     24  C   UNL     1       1.658   4.393  19.803  0.00  0.00    +0.000 A 
ATOM     25  C   UNL     1       1.451   5.408  20.740  0.00  0.00    +0.000 A 
ATOM     26  C   UNL     1       1.742   6.730  20.412  0.00  0.00    +0.000 A 
ATOM     27  C   UNL     1       2.237   7.040  19.148  0.00  0.00    +0.000 A 
ATOM     28  C   UNL     1       2.445   6.028  18.210  0.00  0.00    +0.000 A 
ENDBRANCH  22  23
ENDBRANCH  21  22
ENDBRANCH   9  21
TORSDOF 7
ENDMDL
MODEL 2
REMARK VINA RESULT:      -7.7      0.460      1.146
REMARK  Name = 
REMARK  7 active torsions:
REMARK  status: ('A' for Active; 'I' for Inactive)
REMARK    1  A    between atoms: N_2  and  C_4
REMARK    2  A    between atoms: C_7  and  C_8
REMARK    3  A    between atoms: C_8  and  S_9
REMARK    4  A    between atoms: S_9  and  C_10
REMARK    5  A    between atoms: N_18  and  C_19
REMARK    6  A    between atoms: C_19  and  C_20
REMARK    7  A    between atoms: C_20  and  C_21
REMARK                            x       y       z     vdW  Elec       q    Type
REMARK                         _______ _______ _______ _____ _____    ______ ____
ROOT
ATOM      1  C   UNL     1       6.981   5.979  17.528  0.00  0.00    +0.000 A 
ATOM      2  N   UNL     1       6.895   6.128  16.178  0.00  0.00    +0.000 NA
ATOM      3  C   UNL     1       6.006   5.369  15.507  0.00  0.00    +0.000 A 
ATOM      4  N   UNL     1       5.149   4.456  16.003  0.00  0.00    +0.000 NA
ATOM      5  C   UNL     1       5.272   4.347  17.337  0.00  0.00    +0.000 A 
ATOM      6  C   UNL     1       6.150   5.044  18.159  0.00  0.00    +0.000 A 
ATOM      7  N   UNL     1       5.985   4.647  19.469  0.00  0.00    +0.000 NA
ATOM      8  C   UNL     1       5.044   3.732  19.441  0.00  0.00    +0.000 A 
ATOM      9  N   UNL     1       4.547   3.546  18.180  0.00  0.00    +0.000 N 
ENDROOT
BRANCH   1  10
ATOM     10  S   UNL     1       8.031   7.104  18.405  0.00  0.00    +0.000 S 
BRANCH  10  11
ATOM     11  C   UNL     1       7.903   8.636  17.423  0.00  0.00    +0.000 C 
BRANCH  11  15
ATOM     12  C   UNL     1       9.589  12.001  19.540  0.00  0.00    +0.000 A 
ATOM     13  C   UNL     1       8.966  12.198  18.302  0.00  0.00    +0.000 A 
ATOM     14  C   UNL     1       8.419  11.102  17.628  0.00  0.00    +0.000 A 
ATOM     15  C   UNL     1       8.483   9.812  18.182  0.00  0.00    +0.000 A 
ATOM     16  C   UNL     1       9.111   9.631  19.424  0.00  0.00    +0.000 A 
ATOM     17  C   UNL     1       9.662  10.721  20.105  0.00  0.00    +0.000 A 
BRANCH  12  19
ATOM     18  O   UNL     1      11.408  13.192  20.352  0.00  0.00    +0.000 OA
ATOM     19  N   UNL     1      10.173  13.145  20.248  0.00  0.00    +0.000 N 
ATOM     20  O   UNL     1       9.400  14.001  20.701  0.00  0.00    +0.000 OA
ENDBRANCH  12  19
ENDBRANCH  11  15
ENDBRANCH  10  11
ENDBRANCH   1  10
BRANCH   9  21
ATOM     21  C   UNL     1       3.454   2.666  17.798  0.00  0.00    +0.000 C 
BRANCH  21  22
ATOM     22  C   UNL     1       2.098   3.373  17.703  0.00  0.00    +0.000 C 
BRANCH  22  23
ATOM     23  C   UNL     1       1.995   4.588  18.589  0.00  0.00    +0.000 A 
ATOM     24  C   UNL     1       1.652   4.456  19.942  0.00  0.00    +0.000 A 
ATOM     25  C   UNL     1       1.584   5.581  20.767  0.00  0.00    +0.000 A 
ATOM     26  C   UNL     1       1.852   6.845  20.247  0.00  0.00    +0.000 A 
ATOM     27  C   UNL     1       2.188   6.987  18.902  0.00  0.00    +0.000 A 
ATOM     28  C   UNL     1       2.257   5.865  18.076  0.00  0.00    +0.000 A 
ENDBRANCH  22  23
ENDBRANCH  21  22
ENDBRANCH   9  21
TORSDOF 7
ENDMDL
MODEL 3
REMARK VINA RESULT:      -7.7      1.680      2.522
REMARK  Name = 
REMARK  7 active torsions:
REMARK  status: ('A' for Active; 'I' for Inactive)
REMARK    1  A    between atoms: N_2  and  C_4
REMARK    2  A    between atoms: C_7  and  C_8
REMARK    3  A    between atoms: C_8  and  S_9
REMARK    4  A    between atoms: S_9  and  C_10
REMARK    5  A    between atoms: N_18  and  C_19
REMARK    6  A    between atoms: C_19  and  C_20
REMARK    7  A    between atoms: C_20  and  C_21
REMARK                            x       y       z     vdW  Elec       q    Type
REMARK                         _______ _______ _______ _____ _____    ______ ____
ROOT
ATOM      1  C   UNL     1       7.580   7.478  18.051  0.00  0.00    +0.000 A 
ATOM      2  N   UNL     1       8.310   6.787  18.967  0.00  0.00    +0.000 NA
ATOM      3  C   UNL     1       7.975   5.506  19.217  0.00  0.00    +0.000 A 
ATOM      4  N   UNL     1       6.988   4.779  18.659  0.00  0.00    +0.000 NA
ATOM      5  C   UNL     1       6.298   5.504  17.763  0.00  0.00    +0.000 A 
ATOM      6  C   UNL     1       6.511   6.832  17.414  0.00  0.00    +0.000 A 
ATOM      7  N   UNL     1       5.589   7.225  16.466  0.00  0.00    +0.000 NA
ATOM      8  C   UNL     1       4.835   6.171  16.255  0.00  0.00    +0.000 A 
ATOM      9  N   UNL     1       5.251   5.089  16.982  0.00  0.00    +0.000 N 
ENDROOT
BRANCH   1  10
ATOM     10  S   UNL     1       8.142   9.100  17.617  0.00  0.00    +0.000 S 
BRANCH  10  11
ATOM     11  C   UNL     1       9.053   9.630  19.106  0.00  0.00    +0.000 C 
BRANCH  11  15
ATOM     12  C   UNL     1      10.737  13.566  18.539  0.00  0.00    +0.000 A 
ATOM     13  C   UNL     1      10.028  13.274  19.710  0.00  0.00    +0.000 A 
ATOM     14  C   UNL     1       9.492  11.995  19.885  0.00  0.00    +0.000 A 
ATOM     15  C   UNL     1       9.662  11.003  18.904  0.00  0.00    +0.000 A 
ATOM     16  C   UNL     1      10.374  11.312  17.735  0.00  0.00    +0.000 A 
ATOM     17  C   UNL     1      10.913  12.589  17.550  0.00  0.00    +0.000 A 
BRANCH  12  19
ATOM     18  O   UNL     1      11.051  15.767  19.207  0.00  0.00    +0.000 OA
ATOM     19  N   UNL     1      11.294  14.910  18.345  0.00  0.00    +0.000 N 
ATOM     20  O   UNL     1      11.978  15.110  17.331  0.00  0.00    +0.000 OA
ENDBRANCH  12  19
ENDBRANCH  11  15
ENDBRANCH  10  11
ENDBRANCH   1  10
BRANCH   9  21
ATOM     21  C   UNL     1       4.693   3.747  16.938  0.00  0.00    +0.000 C 
BRANCH  21  22
ATOM     22  C   UNL     1       4.568   3.086  18.315  0.00  0.00    +0.000 C 
BRANCH  22  23
ATOM     23  C   UNL     1       3.258   3.380  19.001  0.00  0.00    +0.000 A 
ATOM     24  C   UNL     1       3.155   4.438  19.915  0.00  0.00    +0.000 A 
ATOM     25  C   UNL     1       1.933   4.724  20.530  0.00  0.00    +0.000 A 
ATOM     26  C   UNL     1       0.809   3.955  20.240  0.00  0.00    +0.000 A 
ATOM     27  C   UNL     1       0.904   2.897  19.338  0.00  0.00    +0.000 A 
ATOM     28  C   UNL     1       2.123   2.609  18.723  0.00  0.00    +0.000 A 
ENDBRANCH  22  23
ENDBRANCH  21  22
ENDBRANCH   9  21
TORSDOF 7
ENDMDL
MODEL 4
REMARK VINA RESULT:      -7.6      5.206      7.564
REMARK  Name = 
REMARK  7 active torsions:
REMARK  status: ('A' for Active; 'I' for Inactive)
REMARK    1  A    between atoms: N_2  and  C_4
REMARK    2  A    between atoms: C_7  and  C_8
REMARK    3  A    between atoms: C_8  and  S_9
REMARK    4  A    between atoms: S_9  and  C_10
REMARK    5  A    between atoms: N_18  and  C_19
REMARK    6  A    between atoms: C_19  and  C_20
REMARK    7  A    between atoms: C_20  and  C_21
REMARK                            x       y       z     vdW  Elec       q    Type
REMARK                         _______ _______ _______ _____ _____    ______ ____
ROOT
ATOM      1  C   UNL     1       2.735   6.589  19.029  0.00  0.00    +0.000 A 
ATOM      2  N   UNL     1       3.177   6.952  17.795  0.00  0.00    +0.000 NA
ATOM      3  C   UNL     1       2.866   8.182  17.341  0.00  0.00    +0.000 A 
ATOM      4  N   UNL     1       2.161   9.146  17.964  0.00  0.00    +0.000 NA
ATOM      5  C   UNL     1       1.748   8.739  19.176  0.00  0.00    +0.000 A 
ATOM      6  C   UNL     1       1.973   7.503  19.770  0.00  0.00    +0.000 A 
ATOM      7  N   UNL     1       1.380   7.461  21.014  0.00  0.00    +0.000 NA
ATOM      8  C   UNL     1       0.805   8.632  21.165  0.00  0.00    +0.000 A 
ATOM      9  N   UNL     1       1.037   9.459  20.101  0.00  0.00    +0.000 N 
ENDROOT
BRANCH   1  10
ATOM     10  S   UNL     1       3.298   5.038  19.672  0.00  0.00    +0.000 S 
BRANCH  10  11
ATOM     11  C   UNL     1       5.113   5.198  19.600  0.00  0.00    +0.000 C 
BRANCH  11  15
ATOM     12  C   UNL     1       6.520   4.852  15.532  0.00  0.00    +0.000 A 
ATOM     13  C   UNL     1       7.088   5.804  16.387  0.00  0.00    +0.000 A 
ATOM     14  C   UNL     1       6.628   5.904  17.703  0.00  0.00    +0.000 A 
ATOM     15  C   UNL     1       5.611   5.057  18.176  0.00  0.00    +0.000 A 
ATOM     16  C   UNL     1       5.052   4.108  17.306  0.00  0.00    +0.000 A 
ATOM     17  C   UNL     1       5.504   4.001  15.987  0.00  0.00    +0.000 A 
BRANCH  12  19
ATOM     18  O   UNL     1       7.886   5.525  13.780  0.00  0.00    +0.000 OA
ATOM     19  N   UNL     1       6.991   4.748  14.146  0.00  0.00    +0.000 N 
ATOM     20  O   UNL     1       6.469   3.889  13.421  0.00  0.00    +0.000 OA
ENDBRANCH  12  19
ENDBRANCH  11  15
ENDBRANCH  10  11
ENDBRANCH   1  10
BRANCH   9  21
ATOM     21  C   UNL     1       0.612  10.844  19.968  0.00  0.00    +0.000 C 
BRANCH  21  22
ATOM     22  C   UNL     1      -0.883  11.058  20.229  0.00  0.00    +0.000 C 
BRANCH  22  23
ATOM     23  C   UNL     1      -1.727  10.948  18.985  0.00  0.00    +0.000 A 
ATOM     24  C   UNL     1      -2.911  11.688  18.861  0.00  0.00    +0.000 A 
ATOM     25  C   UNL     1      -3.678  11.605  17.697  0.00  0.00    +0.000 A 
ATOM     26  C   UNL     1      -3.271  10.781  16.651  0.00  0.00    +0.000 A 
ATOM     27  C   UNL     1      -2.099  10.037  16.767  0.00  0.00    +0.000 A 
ATOM     28  C   UNL     1      -1.331  10.117  17.930  0.00  0.00    +0.000 A 
ENDBRANCH  22  23
ENDBRANCH  21  22
ENDBRANCH   9  21
TORSDOF 7
ENDMDL
MODEL 5
REMARK VINA RESULT:      -7.6      6.738      9.024
REMARK  Name = 
REMARK  7 active torsions:
REMARK  status: ('A' for Active; 'I' for Inactive)
REMARK    1  A    between atoms: N_2  and  C_4
REMARK    2  A    between atoms: C_7  and  C_8
REMARK    3  A    between atoms: C_8  and  S_9
REMARK    4  A    between atoms: S_9  and  C_10
REMARK    5  A    between atoms: N_18  and  C_19
REMARK    6  A    between atoms: C_19  and  C_20
REMARK    7  A    between atoms: C_20  and  C_21
REMARK                            x       y       z     vdW  Elec       q    Type
REMARK                         _______ _______ _______ _____ _____    ______ ____
ROOT
ATOM      1  C   UNL     1       1.113   9.048  19.929  0.00  0.00    +0.000 A 
ATOM      2  N   UNL     1       1.250   9.873  18.857  0.00  0.00    +0.000 NA
ATOM      3  C   UNL     1       0.740  11.118  18.939  0.00  0.00    +0.000 A 
ATOM      4  N   UNL     1       0.099  11.688  19.977  0.00  0.00    +0.000 NA
ATOM      5  C   UNL     1      -0.010  10.834  21.009  0.00  0.00    +0.000 A 
ATOM      6  C   UNL     1       0.446   9.523  21.066  0.00  0.00    +0.000 A 
ATOM      7  N   UNL     1       0.135   8.968  22.290  0.00  0.00    +0.000 NA
ATOM      8  C   UNL     1      -0.497   9.911  22.950  0.00  0.00    +0.000 A 
ATOM      9  N   UNL     1      -0.572  11.075  22.236  0.00  0.00    +0.000 N 
ENDROOT
BRANCH   1  10
ATOM     10  S   UNL     1       1.936   7.481  19.861  0.00  0.00    +0.000 S 
BRANCH  10  11
ATOM     11  C   UNL     1       2.367   7.321  18.095  0.00  0.00    +0.000 C 
BRANCH  11  15
ATOM     12  C   UNL     1       6.191   5.361  17.670  0.00  0.00    +0.000 A 
ATOM     13  C   UNL     1       5.384   5.080  18.779  0.00  0.00    +0.000 A 
ATOM     14  C   UNL     1       4.146   5.716  18.903  0.00  0.00    +0.000 A 
ATOM     15  C   UNL     1       3.703   6.626  17.928  0.00  0.00    +0.000 A 
ATOM     16  C   UNL     1       4.524   6.898  16.823  0.00  0.00    +0.000 A 
ATOM     17  C   UNL     1       5.765   6.267  16.690  0.00  0.00    +0.000 A 
BRANCH  12  19
ATOM     18  O   UNL     1       8.132   4.466  18.576  0.00  0.00    +0.000 OA
ATOM     19  N   UNL     1       7.496   4.703  17.538  0.00  0.00    +0.000 N 
ATOM     20  O   UNL     1       7.888   4.421  16.396  0.00  0.00    +0.000 OA
ENDBRANCH  12  19
ENDBRANCH  11  15
ENDBRANCH  10  11
ENDBRANCH   1  10
BRANCH   9  21
ATOM     21  C   UNL     1      -1.138  12.336  22.688  0.00  0.00    +0.000 C 
BRANCH  21  22
ATOM     22  C   UNL     1      -2.360  12.788  21.881  0.00  0.00    +0.000 C 
BRANCH  22  23
ATOM     23  C   UNL     1      -3.647  12.728  22.664  0.00  0.00    +0.000 A 
ATOM     24  C   UNL     1      -3.632  12.450  24.038  0.00  0.00    +0.000 A 
ATOM     25  C   UNL     1      -4.823  12.422  24.766  0.00  0.00    +0.000 A 
ATOM     26  C   UNL     1      -6.037  12.665  24.128  0.00  0.00    +0.000 A 
ATOM     27  C   UNL     1      -6.062  12.936  22.762  0.00  0.00    +0.000 A 
ATOM     28  C   UNL     1      -4.874  12.965  22.032  0.00  0.00    +0.000 A 
ENDBRANCH  22  23
ENDBRANCH  21  22
ENDBRANCH   9  21
TORSDOF 7
ENDMDL
MODEL 6
REMARK VINA RESULT:      -7.5      6.041      8.610
REMARK  Name = 
REMARK  7 active torsions:
REMARK  status: ('A' for Active; 'I' for Inactive)
REMARK    1  A    between atoms: N_2  and  C_4
REMARK    2  A    between atoms: C_7  and  C_8
REMARK    3  A    between atoms: C_8  and  S_9
REMARK    4  A    between atoms: S_9  and  C_10
REMARK    5  A    between atoms: N_18  and  C_19
REMARK    6  A    between atoms: C_19  and  C_20
REMARK    7  A    between atoms: C_20  and  C_21
REMARK                            x       y       z     vdW  Elec       q    Type
REMARK                         _______ _______ _______ _____ _____    ______ ____
ROOT
ATOM      1  C   UNL     1       1.719   8.189  19.781  0.00  0.00    +0.000 A 
ATOM      2  N   UNL     1       2.193   8.752  18.637  0.00  0.00    +0.000 NA
ATOM      3  C   UNL     1       2.884   7.974  17.781  0.00  0.00    +0.000 A 
ATOM      4  N   UNL     1       3.175   6.664  17.896  0.00  0.00    +0.000 NA
ATOM      5  C   UNL     1       2.686   6.156  19.040  0.00  0.00    +0.000 A 
ATOM      6  C   UNL     1       1.974   6.833  20.023  0.00  0.00    +0.000 A 
ATOM      7  N   UNL     1       1.655   5.972  21.052  0.00  0.00    +0.000 NA
ATOM      8  C   UNL     1       2.166   4.812  20.707  0.00  0.00    +0.000 A 
ATOM      9  N   UNL     1       2.761   4.859  19.477  0.00  0.00    +0.000 N 
ENDROOT
BRANCH   1  10
ATOM     10  S   UNL     1       0.672   9.185  20.805  0.00  0.00    +0.000 S 
BRANCH  10  11
ATOM     11  C   UNL     1       0.560  10.751  19.877  0.00  0.00    +0.000 C 
BRANCH  11  15
ATOM     12  C   UNL     1      -3.098  10.961  17.592  0.00  0.00    +0.000 A 
ATOM     13  C   UNL     1      -2.080  10.085  17.198  0.00  0.00    +0.000 A 
ATOM     14  C   UNL     1      -0.902  10.022  17.948  0.00  0.00    +0.000 A 
ATOM     15  C   UNL     1      -0.734  10.821  19.092  0.00  0.00    +0.000 A 
ATOM     16  C   UNL     1      -1.764  11.695  19.473  0.00  0.00    +0.000 A 
ATOM     17  C   UNL     1      -2.945  11.766  18.728  0.00  0.00    +0.000 A 
BRANCH  12  19
ATOM     18  O   UNL     1      -5.394  11.249  17.410  0.00  0.00    +0.000 OA
ATOM     19  N   UNL     1      -4.333  11.040  16.803  0.00  0.00    +0.000 N 
ATOM     20  O   UNL     1      -4.245  10.895  15.575  0.00  0.00    +0.000 OA
ENDBRANCH  12  19
ENDBRANCH  11  15
ENDBRANCH  10  11
ENDBRANCH   1  10
BRANCH   9  21
ATOM     21  C   UNL     1       3.362   3.745  18.760  0.00  0.00    +0.000 C 
BRANCH  21  22
ATOM     22  C   UNL     1       4.843   3.526  19.091  0.00  0.00    +0.000 C 
BRANCH  22  23
ATOM     23  C   UNL     1       5.759   4.503  18.399  0.00  0.00    +0.000 A 
ATOM     24  C   UNL     1       6.538   5.399  19.143  0.00  0.00    +0.000 A 
ATOM     25  C   UNL     1       7.406   6.284  18.500  0.00  0.00    +0.000 A 
ATOM     26  C   UNL     1       7.499   6.285  17.111  0.00  0.00    +0.000 A 
ATOM     27  C   UNL     1       6.724   5.402  16.362  0.00  0.00    +0.000 A 
ATOM     28  C   UNL     1       5.856   4.516  17.001  0.00  0.00    +0.000 A 
ENDBRANCH  22  23
ENDBRANCH  21  22
ENDBRANCH   9  21
TORSDOF 7
ENDMDL
MODEL 7
REMARK VINA RESULT:      -7.5      3.505      7.610
REMARK  Name = 
REMARK  7 active torsions:
REMARK  status: ('A' for Active; 'I' for Inactive)
REMARK    1  A    between atoms: N_2  and  C_4
REMARK    2  A    between atoms: C_7  and  C_8
REMARK    3  A    between atoms: C_8  and  S_9
REMARK    4  A    between atoms: S_9  and  C_10
REMARK    5  A    between atoms: N_18  and  C_19
REMARK    6  A    between atoms: C_19  and  C_20
REMARK    7  A    between atoms: C_20  and  C_21
REMARK                            x       y       z     vdW  Elec       q    Type
REMARK                         _______ _______ _______ _____ _____    ______ ____
ROOT
ATOM      1  C   UNL     1       4.991   4.188  17.329  0.00  0.00    +0.000 A 
ATOM      2  N   UNL     1       4.899   4.476  16.003  0.00  0.00    +0.000 NA
ATOM      3  C   UNL     1       5.658   5.476  15.512  0.00  0.00    +0.000 A 
ATOM      4  N   UNL     1       6.538   6.253  16.171  0.00  0.00    +0.000 NA
ATOM      5  C   UNL     1       6.593   5.929  17.474  0.00  0.00    +0.000 A 
ATOM      6  C   UNL     1       5.862   4.943  18.126  0.00  0.00    +0.000 A 
ATOM      7  N   UNL     1       6.187   4.922  19.466  0.00  0.00    +0.000 NA
ATOM      8  C   UNL     1       7.079   5.873  19.623  0.00  0.00    +0.000 A 
ATOM      9  N   UNL     1       7.394   6.483  18.439  0.00  0.00    +0.000 N 
ENDROOT
BRANCH   1  10
ATOM     10  S   UNL     1       4.113   2.766  17.915  0.00  0.00    +0.000 S 
BRANCH  10  11
ATOM     11  C   UNL     1       2.368   3.285  17.801  0.00  0.00    +0.000 C 
BRANCH  11  15
ATOM     12  C   UNL     1       1.779   7.007  19.912  0.00  0.00    +0.000 A 
ATOM     13  C   UNL     1       2.098   7.022  18.549  0.00  0.00    +0.000 A 
ATOM     14  C   UNL     1       2.281   5.811  17.875  0.00  0.00    +0.000 A 
ATOM     15  C   UNL     1       2.143   4.585  18.548  0.00  0.00    +0.000 A 
ATOM     16  C   UNL     1       1.824   4.587  19.914  0.00  0.00    +0.000 A 
ATOM     17  C   UNL     1       1.640   5.793  20.597  0.00  0.00    +0.000 A 
BRANCH  12  19
ATOM     18  O   UNL     1       1.277   9.273  19.964  0.00  0.00    +0.000 OA
ATOM     19  N   UNL     1       1.595   8.274  20.628  0.00  0.00    +0.000 N 
ATOM     20  O   UNL     1       1.765   8.275  21.855  0.00  0.00    +0.000 OA
ENDBRANCH  12  19
ENDBRANCH  11  15
ENDBRANCH  10  11
ENDBRANCH   1  10
BRANCH   9  21
ATOM     21  C   UNL     1       8.390   7.522  18.236  0.00  0.00    +0.000 C 
BRANCH  21  22
ATOM     22  C   UNL     1       7.801   8.855  17.759  0.00  0.00    +0.000 C 
BRANCH  22  23
ATOM     23  C   UNL     1       8.541  10.057  18.289  0.00  0.00    +0.000 A 
ATOM     24  C   UNL     1       9.344   9.951  19.432  0.00  0.00    +0.000 A 
ATOM     25  C   UNL     1      10.049  11.060  19.906  0.00  0.00    +0.000 A 
ATOM     26  C   UNL     1       9.953  12.282  19.245  0.00  0.00    +0.000 A 
ATOM     27  C   UNL     1       9.152  12.398  18.111  0.00  0.00    +0.000 A 
ATOM     28  C   UNL     1       8.447  11.292  17.636  0.00  0.00    +0.000 A 
ENDBRANCH  22  23
ENDBRANCH  21  22
ENDBRANCH   9  21
TORSDOF 7
ENDMDL
MODEL 8
REMARK VINA RESULT:      -7.5      5.299      7.555
REMARK  Name = 
REMARK  7 active torsions:
REMARK  status: ('A' for Active; 'I' for Inactive)
REMARK    1  A    between atoms: N_2  and  C_4
REMARK    2  A    between atoms: C_7  and  C_8
REMARK    3  A    between atoms: C_8  and  S_9
REMARK    4  A    between atoms: S_9  and  C_10
REMARK    5  A    between atoms: N_18  and  C_19
REMARK    6  A    between atoms: C_19  and  C_20
REMARK    7  A    between atoms: C_20  and  C_21
REMARK                            x       y       z     vdW  Elec       q    Type
REMARK                         _______ _______ _______ _____ _____    ______ ____
ROOT
ATOM      1  C   UNL     1       2.622   5.079  18.858  0.00  0.00    +0.000 A 
ATOM      2  N   UNL     1       2.150   4.588  20.035  0.00  0.00    +0.000 NA
ATOM      3  C   UNL     1       1.584   5.448  20.905  0.00  0.00    +0.000 A 
ATOM      4  N   UNL     1       1.403   6.775  20.765  0.00  0.00    +0.000 NA
ATOM      5  C   UNL     1       1.885   7.210  19.588  0.00  0.00    +0.000 A 
ATOM      6  C   UNL     1       2.507   6.452  18.604  0.00  0.00    +0.000 A 
ATOM      7  N   UNL     1       2.873   7.259  17.547  0.00  0.00    +0.000 NA
ATOM      8  C   UNL     1       2.493   8.470  17.886  0.00  0.00    +0.000 A 
ATOM      9  N   UNL     1       1.848   8.487  19.092  0.00  0.00    +0.000 N 
ENDROOT
BRANCH   1  10
ATOM     10  S   UNL     1       3.206   3.908  17.664  0.00  0.00    +0.000 S 
BRANCH  10  11
ATOM     11  C   UNL     1       5.010   3.918  17.927  0.00  0.00    +0.000 C 
BRANCH  11  15
ATOM     12  C   UNL     1       7.091   4.876  14.266  0.00  0.00    +0.000 A 
ATOM     13  C   UNL     1       5.910   4.126  14.220  0.00  0.00    +0.000 A 
ATOM     14  C   UNL     1       5.242   3.826  15.411  0.00  0.00    +0.000 A 
ATOM     15  C   UNL     1       5.740   4.274  16.647  0.00  0.00    +0.000 A 
ATOM     16  C   UNL     1       6.925   5.024  16.676  0.00  0.00    +0.000 A 
ATOM     17  C   UNL     1       7.601   5.328  15.490  0.00  0.00    +0.000 A 
BRANCH  12  19
ATOM     18  O   UNL     1       7.394   4.659  11.975  0.00  0.00    +0.000 OA
ATOM     19  N   UNL     1       7.802   5.186  13.021  0.00  0.00    +0.000 N 
ATOM     20  O   UNL     1       8.770   5.958  13.084  0.00  0.00    +0.000 OA
ENDBRANCH  12  19
ENDBRANCH  11  15
ENDBRANCH  10  11
ENDBRANCH   1  10
BRANCH   9  21
ATOM     21  C   UNL     1       1.237   9.640  19.734  0.00  0.00    +0.000 C 
BRANCH  21  22
ATOM     22  C   UNL     1       0.821  10.742  18.753  0.00  0.00    +0.000 C 
BRANCH  22  23
ATOM     23  C   UNL     1      -0.656  10.750  18.455  0.00  0.00    +0.000 A 
ATOM     24  C   UNL     1      -1.501  11.685  19.068  0.00  0.00    +0.000 A 
ATOM     25  C   UNL     1      -2.866  11.707  18.770  0.00  0.00    +0.000 A 
ATOM     26  C   UNL     1      -3.396  10.793  17.863  0.00  0.00    +0.000 A 
ATOM     27  C   UNL     1      -2.565   9.856  17.253  0.00  0.00    +0.000 A 
ATOM     28  C   UNL     1      -1.202   9.832  17.549  0.00  0.00    +0.000 A 
ENDBRANCH  22  23
ENDBRANCH  21  22
ENDBRANCH   9  21
TORSDOF 7
ENDMDL
MODEL 9
REMARK VINA RESULT:      -7.5      6.552      8.985
REMARK  Name = 
REMARK  7 active torsions:
REMARK  status: ('A' for Active; 'I' for Inactive)
REMARK    1  A    between atoms: N_2  and  C_4
REMARK    2  A    between atoms: C_7  and  C_8
REMARK    3  A    between atoms: C_8  and  S_9
REMARK    4  A    between atoms: S_9  and  C_10
REMARK    5  A    between atoms: N_18  and  C_19
REMARK    6  A    between atoms: C_19  and  C_20
REMARK    7  A    between atoms: C_20  and  C_21
REMARK                            x       y       z     vdW  Elec       q    Type
REMARK                         _______ _______ _______ _____ _____    ______ ____
ROOT
ATOM      1  C   UNL     1       1.357   8.653  19.984  0.00  0.00    +0.000 A 
ATOM      2  N   UNL     1       1.513   9.362  18.834  0.00  0.00    +0.000 NA
ATOM      3  C   UNL     1       1.015  10.614  18.782  0.00  0.00    +0.000 A 
ATOM      4  N   UNL     1       0.369  11.293  19.748  0.00  0.00    +0.000 NA
ATOM      5  C   UNL     1       0.241  10.552  20.862  0.00  0.00    +0.000 A 
ATOM      6  C   UNL     1       0.683   9.249  21.059  0.00  0.00    +0.000 A 
ATOM      7  N   UNL     1       0.354   8.826  22.329  0.00  0.00    +0.000 NA
ATOM      8  C   UNL     1      -0.275   9.837  22.882  0.00  0.00    +0.000 A 
ATOM      9  N   UNL     1      -0.330  10.923  22.051  0.00  0.00    +0.000 N 
ENDROOT
BRANCH   1  10
ATOM     10  S   UNL     1       2.165   7.080  20.087  0.00  0.00    +0.000 S 
BRANCH  10  11
ATOM     11  C   UNL     1       2.186   6.516  18.352  0.00  0.00    +0.000 C 
BRANCH  11  15
ATOM     12  C   UNL     1       6.105   5.127  17.187  0.00  0.00    +0.000 A 
ATOM     13  C   UNL     1       5.708   6.432  16.875  0.00  0.00    +0.000 A 
ATOM     14  C   UNL     1       4.439   6.873  17.262  0.00  0.00    +0.000 A 
ATOM     15  C   UNL     1       3.565   6.024  17.963  0.00  0.00    +0.000 A 
ATOM     16  C   UNL     1       3.978   4.718  18.267  0.00  0.00    +0.000 A 
ATOM     17  C   UNL     1       5.245   4.267  17.883  0.00  0.00    +0.000 A 
BRANCH  12  19
ATOM     18  O   UNL     1       7.745   4.777  15.582  0.00  0.00    +0.000 OA
ATOM     19  N   UNL     1       7.432   4.654  16.775  0.00  0.00    +0.000 N 
ATOM     20  O   UNL     1       8.165   4.161  17.645  0.00  0.00    +0.000 OA
ENDBRANCH  12  19
ENDBRANCH  11  15
ENDBRANCH  10  11
ENDBRANCH   1  10
BRANCH   9  21
ATOM     21  C   UNL     1      -0.888  12.229  22.365  0.00  0.00    +0.000 C 
BRANCH  21  22
ATOM     22  C   UNL     1      -2.173  12.551  21.595  0.00  0.00    +0.000 C 
BRANCH  22  23
ATOM     23  C   UNL     1      -3.396  12.610  22.474  0.00  0.00    +0.000 A 
ATOM     24  C   UNL     1      -3.299  12.348  23.848  0.00  0.00    +0.000 A 
ATOM     25  C   UNL     1      -4.429  12.430  24.664  0.00  0.00    +0.000 A 
ATOM     26  C   UNL     1      -5.664  12.768  24.116  0.00  0.00    +0.000 A 
ATOM     27  C   UNL     1      -5.771  13.024  22.751  0.00  0.00    +0.000 A 
ATOM     28  C   UNL     1      -4.644  12.943  21.932  0.00  0.00    +0.000 A 
ENDBRANCH  22  23
ENDBRANCH  21  22
ENDBRANCH   9  21
TORSDOF 7
ENDMDL
