MODEL 1
REMARK VINA RESULT:      -6.7      0.000      0.000
REMARK  Name = 
REMARK  2 active torsions:
REMARK  status: ('A' for Active; 'I' for Inactive)
REMARK    1  A    between atoms: C_1  and  N_2
REMARK    2  A    between atoms: C_11  and  C_12
REMARK                            x       y       z     vdW  Elec       q    Type
REMARK                         _______ _______ _______ _____ _____    ______ ____
ROOT
ATOM      1  C   UNL     1      -0.595  12.454  22.576  0.00  0.00    +0.000 C 
ATOM      2  N   UNL     1      -1.624  11.969  21.652  0.00  0.00    +0.000 NA
ATOM      3  C   UNL     1      -2.271  13.136  21.036  0.00  0.00    +0.000 C 
ATOM      4  C   UNL     1      -3.472  12.730  20.199  0.00  0.00    +0.000 C 
ATOM      5  C   UNL     1      -3.010  11.846  19.079  0.00  0.00    +0.000 A 
ATOM      6  C   UNL     1      -3.645  11.933  17.822  0.00  0.00    +0.000 A 
ATOM      7  C   UNL     1      -3.205  11.109  16.814  0.00  0.00    +0.000 A 
ATOM      8  C   UNL     1      -2.256  10.157  17.055  0.00  0.00    +0.000 A 
ATOM      9  C   UNL     1      -1.685   9.998  18.299  0.00  0.00    +0.000 A 
ATOM     10  C   UNL     1      -1.966  10.916  19.325  0.00  0.00    +0.000 A 
ATOM     11  C   UNL     1      -1.167  10.916  20.664  0.00  0.00    +0.000 C 
ATOM     12  O   UNL     1      -1.945   9.426  15.954  0.00  0.00    +0.000 OA
ATOM     13  C   UNL     1      -2.755  10.090  14.964  0.00  0.00    +0.000 C 
ATOM     14  O   UNL     1      -3.628  11.097  15.523  0.00  0.00    +0.000 OA
ENDROOT
BRANCH  11  15
ATOM     15  C   UNL     1       0.410  10.833  20.497  0.00  0.00    +0.000 C 
ATOM     16  O   UNL     1       0.812  11.438  19.229  0.00  0.00    +0.000 OA
ATOM     17  C   UNL     1       1.483  10.552  18.403  0.00  0.00    +0.000 C 
ATOM     18  O   UNL     1       1.849  10.857  17.272  0.00  0.00    +0.000 OA
ATOM     19  C   UNL     1       1.609   9.360  19.166  0.00  0.00    +0.000 A 
ATOM     20  C   UNL     1       1.030   9.480  20.432  0.00  0.00    +0.000 A 
ATOM     21  C   UNL     1       0.968   8.534  21.453  0.00  0.00    +0.000 A 
ATOM     22  C   UNL     1       1.459   7.284  21.130  0.00  0.00    +0.000 A 
ATOM     23  C   UNL     1       1.989   7.158  19.856  0.00  0.00    +0.000 A 
ATOM     24  C   UNL     1       2.112   8.115  18.877  0.00  0.00    +0.000 A 
ATOM     25  O   UNL     1       2.665   7.676  17.714  0.00  0.00    +0.000 OA
ATOM     26  C   UNL     1       2.905   6.293  18.063  0.00  0.00    +0.000 C 
ATOM     27  O   UNL     1       2.465   5.948  19.402  0.00  0.00    +0.000 OA
ENDBRANCH  11  15
TORSDOF 1
ENDMDL
MODEL 2
REMARK VINA RESULT:      -6.6      1.049      1.223
REMARK  Name = 
REMARK  2 active torsions:
REMARK  status: ('A' for Active; 'I' for Inactive)
REMARK    1  A    between atoms: C_1  and  N_2
REMARK    2  A    between atoms: C_11  and  C_12
REMARK                            x       y       z     vdW  Elec       q    Type
REMARK                         _______ _______ _______ _____ _____    ______ ____
ROOT
ATOM      1  C   UNL     1      -1.171  13.502  22.917  0.00  0.00    +0.000 C 
ATOM      2  N   UNL     1      -2.148  12.831  22.053  0.00  0.00    +0.000 NA
ATOM      3  C   UNL     1      -2.903  13.864  21.331  0.00  0.00    +0.000 C 
ATOM      4  C   UNL     1      -4.058  13.264  20.547  0.00  0.00    +0.000 C 
ATOM      5  C   UNL     1      -3.512  12.323  19.516  0.00  0.00    +0.000 A 
ATOM      6  C   UNL     1      -4.150  12.224  18.261  0.00  0.00    +0.000 A 
ATOM      7  C   UNL     1      -3.631  11.350  17.336  0.00  0.00    +0.000 A 
ATOM      8  C   UNL     1      -2.595  10.522  17.662  0.00  0.00    +0.000 A 
ATOM      9  C   UNL     1      -2.013  10.542  18.910  0.00  0.00    +0.000 A 
ATOM     10  C   UNL     1      -2.383  11.526  19.844  0.00  0.00    +0.000 A 
ATOM     11  C   UNL     1      -1.590  11.735  21.169  0.00  0.00    +0.000 C 
ATOM     12  O   UNL     1      -2.213   9.720  16.635  0.00  0.00    +0.000 OA
ATOM     13  C   UNL     1      -3.081  10.202  15.591  0.00  0.00    +0.000 C 
ATOM     14  O   UNL     1      -4.048  11.171  16.055  0.00  0.00    +0.000 OA
ENDROOT
BRANCH  11  15
ATOM     15  C   UNL     1      -0.012  11.788  20.999  0.00  0.00    +0.000 C 
ATOM     16  O   UNL     1       0.344  12.698  19.912  0.00  0.00    +0.000 OA
ATOM     17  C   UNL     1       1.061  12.073  18.905  0.00  0.00    +0.000 C 
ATOM     18  O   UNL     1       1.400  12.657  17.881  0.00  0.00    +0.000 OA
ATOM     19  C   UNL     1       1.263  10.744  19.367  0.00  0.00    +0.000 A 
ATOM     20  C   UNL     1       0.687  10.528  20.622  0.00  0.00    +0.000 A 
ATOM     21  C   UNL     1       0.689   9.366  21.390  0.00  0.00    +0.000 A 
ATOM     22  C   UNL     1       1.252   8.259  20.785  0.00  0.00    +0.000 A 
ATOM     23  C   UNL     1       1.780   8.468  19.521  0.00  0.00    +0.000 A 
ATOM     24  C   UNL     1       1.838   9.635  18.796  0.00  0.00    +0.000 A 
ATOM     25  O   UNL     1       2.408   9.516  17.566  0.00  0.00    +0.000 OA
ATOM     26  C   UNL     1       2.733   8.107  17.581  0.00  0.00    +0.000 C 
ATOM     27  O   UNL     1       2.324   7.430  18.798  0.00  0.00    +0.000 OA
ENDBRANCH  11  15
TORSDOF 1
ENDMDL
MODEL 3
REMARK VINA RESULT:      -6.6      1.584      2.427
REMARK  Name = 
REMARK  2 active torsions:
REMARK  status: ('A' for Active; 'I' for Inactive)
REMARK    1  A    between atoms: C_1  and  N_2
REMARK    2  A    between atoms: C_11  and  C_12
REMARK                            x       y       z     vdW  Elec       q    Type
REMARK                         _______ _______ _______ _____ _____    ______ ____
ROOT
ATOM      1  C   UNL     1      -3.603  14.019  22.094  0.00  0.00    +0.000 C 
ATOM      2  N   UNL     1      -4.204  13.125  21.100  0.00  0.00    +0.000 NA
ATOM      3  C   UNL     1      -4.928  13.950  20.122  0.00  0.00    +0.000 C 
ATOM      4  C   UNL     1      -5.731  13.094  19.157  0.00  0.00    +0.000 C 
ATOM      5  C   UNL     1      -4.791  12.222  18.380  0.00  0.00    +0.000 A 
ATOM      6  C   UNL     1      -5.073  11.932  17.028  0.00  0.00    +0.000 A 
ATOM      7  C   UNL     1      -4.198  11.127  16.340  0.00  0.00    +0.000 A 
ATOM      8  C   UNL     1      -3.145  10.536  16.978  0.00  0.00    +0.000 A 
ATOM      9  C   UNL     1      -2.901  10.737  18.318  0.00  0.00    +0.000 A 
ATOM     10  C   UNL     1      -3.656  11.680  19.037  0.00  0.00    +0.000 A 
ATOM     11  C   UNL     1      -3.262  12.111  20.483  0.00  0.00    +0.000 C 
ATOM     12  O   UNL     1      -2.387   9.768  16.152  0.00  0.00    +0.000 OA
ATOM     13  C   UNL     1      -3.043  10.014  14.893  0.00  0.00    +0.000 C 
ATOM     14  O   UNL     1      -4.249  10.800  15.022  0.00  0.00    +0.000 OA
ENDROOT
BRANCH  11  15
ATOM     15  C   UNL     1      -1.726  12.461  20.678  0.00  0.00    +0.000 C 
ATOM     16  O   UNL     1      -1.298  13.421  19.662  0.00  0.00    +0.000 OA
ATOM     17  C   UNL     1      -0.264  12.943  18.876  0.00  0.00    +0.000 C 
ATOM     18  O   UNL     1       0.192  13.581  17.932  0.00  0.00    +0.000 OA
ATOM     19  C   UNL     1       0.065  11.676  19.430  0.00  0.00    +0.000 A 
ATOM     20  C   UNL     1      -0.739  11.355  20.527  0.00  0.00    +0.000 A 
ATOM     21  C   UNL     1      -0.703  10.215  21.326  0.00  0.00    +0.000 A 
ATOM     22  C   UNL     1       0.178   9.233  20.915  0.00  0.00    +0.000 A 
ATOM     23  C   UNL     1       0.940   9.539  19.798  0.00  0.00    +0.000 A 
ATOM     24  C   UNL     1       0.951  10.695  19.056  0.00  0.00    +0.000 A 
ATOM     25  O   UNL     1       1.805  10.686  17.996  0.00  0.00    +0.000 OA
ATOM     26  C   UNL     1       2.370   9.364  18.147  0.00  0.00    +0.000 C 
ATOM     27  O   UNL     1       1.818   8.622  19.266  0.00  0.00    +0.000 OA
ENDBRANCH  11  15
TORSDOF 1
ENDMDL
MODEL 4
REMARK VINA RESULT:      -6.6      3.516      6.534
REMARK  Name = 
REMARK  2 active torsions:
REMARK  status: ('A' for Active; 'I' for Inactive)
REMARK    1  A    between atoms: C_1  and  N_2
REMARK    2  A    between atoms: C_11  and  C_12
REMARK                            x       y       z     vdW  Elec       q    Type
REMARK                         _______ _______ _______ _____ _____    ______ ____
ROOT
ATOM      1  C   UNL     1       1.081  11.026  19.324  0.00  0.00    +0.000 C 
ATOM      2  N   UNL     1      -0.198  11.518  18.802  0.00  0.00    +0.000 NA
ATOM      3  C   UNL     1      -0.914  10.382  18.205  0.00  0.00    +0.000 C 
ATOM      4  C   UNL     1      -2.170  10.834  17.481  0.00  0.00    +0.000 C 
ATOM      5  C   UNL     1      -3.104  11.466  18.469  0.00  0.00    +0.000 A 
ATOM      6  C   UNL     1      -4.496  11.291  18.317  0.00  0.00    +0.000 A 
ATOM      7  C   UNL     1      -5.329  11.884  19.235  0.00  0.00    +0.000 A 
ATOM      8  C   UNL     1      -4.828  12.709  20.201  0.00  0.00    +0.000 A 
ATOM      9  C   UNL     1      -3.479  12.962  20.313  0.00  0.00    +0.000 A 
ATOM     10  C   UNL     1      -2.561  12.256  19.516  0.00  0.00    +0.000 A 
ATOM     11  C   UNL     1      -1.026  12.335  19.773  0.00  0.00    +0.000 C 
ATOM     12  O   UNL     1      -5.789  13.216  21.017  0.00  0.00    +0.000 OA
ATOM     13  C   UNL     1      -6.952  12.542  20.499  0.00  0.00    +0.000 C 
ATOM     14  O   UNL     1      -6.681  11.768  19.308  0.00  0.00    +0.000 OA
ENDROOT
BRANCH  11  15
ATOM     15  C   UNL     1      -0.596  12.157  21.291  0.00  0.00    +0.000 C 
ATOM     16  O   UNL     1      -1.581  11.342  22.000  0.00  0.00    +0.000 OA
ATOM     17  C   UNL     1      -2.150  12.005  23.074  0.00  0.00    +0.000 C 
ATOM     18  O   UNL     1      -3.040  11.507  23.756  0.00  0.00    +0.000 OA
ATOM     19  C   UNL     1      -1.471  13.251  23.140  0.00  0.00    +0.000 A 
ATOM     20  C   UNL     1      -0.508  13.382  22.135  0.00  0.00    +0.000 A 
ATOM     21  C   UNL     1       0.354  14.448  21.891  0.00  0.00    +0.000 A 
ATOM     22  C   UNL     1       0.160  15.559  22.689  0.00  0.00    +0.000 A 
ATOM     23  C   UNL     1      -0.828  15.441  23.653  0.00  0.00    +0.000 A 
ATOM     24  C   UNL     1      -1.629  14.359  23.936  0.00  0.00    +0.000 A 
ATOM     25  O   UNL     1      -2.526  14.559  24.940  0.00  0.00    +0.000 OA
ATOM     26  C   UNL     1      -2.199  15.923  25.294  0.00  0.00    +0.000 C 
ATOM     27  O   UNL     1      -1.146  16.497  24.477  0.00  0.00    +0.000 OA
ENDBRANCH  11  15
TORSDOF 1
ENDMDL
MODEL 5
REMARK VINA RESULT:      -6.6      5.348      8.685
REMARK  Name = 
REMARK  2 active torsions:
REMARK  status: ('A' for Active; 'I' for Inactive)
REMARK    1  A    between atoms: C_1  and  N_2
REMARK    2  A    between atoms: C_11  and  C_12
REMARK                            x       y       z     vdW  Elec       q    Type
REMARK                         _______ _______ _______ _____ _____    ______ ____
ROOT
ATOM      1  C   UNL     1      -7.454  17.504  23.521  0.00  0.00    +0.000 C 
ATOM      2  N   UNL     1      -6.062  17.151  23.226  0.00  0.00    +0.000 NA
ATOM      3  C   UNL     1      -5.309  17.170  24.488  0.00  0.00    +0.000 C 
ATOM      4  C   UNL     1      -3.820  16.991  24.250  0.00  0.00    +0.000 C 
ATOM      5  C   UNL     1      -3.583  15.651  23.622  0.00  0.00    +0.000 A 
ATOM      6  C   UNL     1      -2.421  14.923  23.960  0.00  0.00    +0.000 A 
ATOM      7  C   UNL     1      -2.227  13.699  23.366  0.00  0.00    +0.000 A 
ATOM      8  C   UNL     1      -3.076  13.251  22.395  0.00  0.00    +0.000 A 
ATOM      9  C   UNL     1      -4.168  13.986  21.990  0.00  0.00    +0.000 A 
ATOM     10  C   UNL     1      -4.519  15.163  22.673  0.00  0.00    +0.000 A 
ATOM     11  C   UNL     1      -5.870  15.892  22.405  0.00  0.00    +0.000 C 
ATOM     12  O   UNL     1      -2.732  12.029  21.911  0.00  0.00    +0.000 OA
ATOM     13  C   UNL     1      -1.606  11.723  22.757  0.00  0.00    +0.000 C 
ATOM     14  O   UNL     1      -1.223  12.818  23.617  0.00  0.00    +0.000 OA
ENDROOT
BRANCH  11  15
ATOM     15  C   UNL     1      -7.143  14.944  22.376  0.00  0.00    +0.000 C 
ATOM     16  O   UNL     1      -7.118  14.035  23.520  0.00  0.00    +0.000 OA
ATOM     17  C   UNL     1      -7.113  12.703  23.144  0.00  0.00    +0.000 C 
ATOM     18  O   UNL     1      -7.034  11.791  23.961  0.00  0.00    +0.000 OA
ATOM     19  C   UNL     1      -7.226  12.718  21.728  0.00  0.00    +0.000 A 
ATOM     20  C   UNL     1      -7.291  14.018  21.218  0.00  0.00    +0.000 A 
ATOM     21  C   UNL     1      -7.417  14.427  19.892  0.00  0.00    +0.000 A 
ATOM     22  C   UNL     1      -7.371  13.412  18.955  0.00  0.00    +0.000 A 
ATOM     23  C   UNL     1      -7.259  12.128  19.465  0.00  0.00    +0.000 A 
ATOM     24  C   UNL     1      -7.207  11.726  20.779  0.00  0.00    +0.000 A 
ATOM     25  O   UNL     1      -7.078  10.384  20.961  0.00  0.00    +0.000 OA
ATOM     26  C   UNL     1      -7.064   9.949  19.582  0.00  0.00    +0.000 C 
ATOM     27  O   UNL     1      -7.156  11.039  18.629  0.00  0.00    +0.000 OA
ENDBRANCH  11  15
TORSDOF 1
ENDMDL
MODEL 6
REMARK VINA RESULT:      -6.6      2.642      3.983
REMARK  Name = 
REMARK  2 active torsions:
REMARK  status: ('A' for Active; 'I' for Inactive)
REMARK    1  A    between atoms: C_1  and  N_2
REMARK    2  A    between atoms: C_11  and  C_12
REMARK                            x       y       z     vdW  Elec       q    Type
REMARK                         _______ _______ _______ _____ _____    ______ ____
ROOT
ATOM      1  C   UNL     1      -3.438  14.086  24.739  0.00  0.00    +0.000 C 
ATOM      2  N   UNL     1      -4.418  13.531  23.800  0.00  0.00    +0.000 NA
ATOM      3  C   UNL     1      -5.336  14.609  23.408  0.00  0.00    +0.000 C 
ATOM      4  C   UNL     1      -6.492  14.081  22.575  0.00  0.00    +0.000 C 
ATOM      5  C   UNL     1      -5.951  13.488  21.309  0.00  0.00    +0.000 A 
ATOM      6  C   UNL     1      -6.689  13.618  20.113  0.00  0.00    +0.000 A 
ATOM      7  C   UNL     1      -6.172  13.061  18.968  0.00  0.00    +0.000 A 
ATOM      8  C   UNL     1      -5.032  12.310  19.010  0.00  0.00    +0.000 A 
ATOM      9  C   UNL     1      -4.344  12.099  20.184  0.00  0.00    +0.000 A 
ATOM     10  C   UNL     1      -4.723  12.777  21.355  0.00  0.00    +0.000 A 
ATOM     11  C   UNL     1      -3.836  12.754  22.636  0.00  0.00    +0.000 C 
ATOM     12  O   UNL     1      -4.668  11.830  17.792  0.00  0.00    +0.000 OA
ATOM     13  C   UNL     1      -5.673  12.441  16.960  0.00  0.00    +0.000 C 
ATOM     14  O   UNL     1      -6.685  13.146  17.713  0.00  0.00    +0.000 OA
ENDROOT
BRANCH  11  15
ATOM     15  C   UNL     1      -2.294  13.036  22.384  0.00  0.00    +0.000 C 
ATOM     16  O   UNL     1      -2.117  13.769  21.131  0.00  0.00    +0.000 OA
ATOM     17  C   UNL     1      -1.320  13.091  20.224  0.00  0.00    +0.000 C 
ATOM     18  O   UNL     1      -1.103  13.519  19.094  0.00  0.00    +0.000 OA
ATOM     19  C   UNL     1      -0.884  11.928  20.912  0.00  0.00    +0.000 A 
ATOM     20  C   UNL     1      -1.394  11.861  22.212  0.00  0.00    +0.000 A 
ATOM     21  C   UNL     1      -1.179  10.884  23.181  0.00  0.00    +0.000 A 
ATOM     22  C   UNL     1      -0.444   9.790  22.764  0.00  0.00    +0.000 A 
ATOM     23  C   UNL     1       0.020   9.841  21.459  0.00  0.00    +0.000 A 
ATOM     24  C   UNL     1      -0.136  10.841  20.529  0.00  0.00    +0.000 A 
ATOM     25  O   UNL     1       0.427  10.587  19.316  0.00  0.00    +0.000 OA
ATOM     26  C   UNL     1       0.990   9.281  19.576  0.00  0.00    +0.000 C 
ATOM     27  O   UNL     1       0.723   8.789  20.915  0.00  0.00    +0.000 OA
ENDBRANCH  11  15
TORSDOF 1
ENDMDL
MODEL 7
REMARK VINA RESULT:      -6.5      3.179      7.360
REMARK  Name = 
REMARK  2 active torsions:
REMARK  status: ('A' for Active; 'I' for Inactive)
REMARK    1  A    between atoms: C_1  and  N_2
REMARK    2  A    between atoms: C_11  and  C_12
REMARK                            x       y       z     vdW  Elec       q    Type
REMARK                         _______ _______ _______ _____ _____    ______ ____
ROOT
ATOM      1  C   UNL     1      -3.806  13.476  24.252  0.00  0.00    +0.000 C 
ATOM      2  N   UNL     1      -2.830  13.249  23.182  0.00  0.00    +0.000 NA
ATOM      3  C   UNL     1      -2.177  11.955  23.427  0.00  0.00    +0.000 C 
ATOM      4  C   UNL     1      -1.025  11.721  22.465  0.00  0.00    +0.000 C 
ATOM      5  C   UNL     1      -1.558  11.681  21.064  0.00  0.00    +0.000 A 
ATOM      6  C   UNL     1      -0.975  10.803  20.126  0.00  0.00    +0.000 A 
ATOM      7  C   UNL     1      -1.480  10.789  18.849  0.00  0.00    +0.000 A 
ATOM      8  C   UNL     1      -2.444  11.679  18.470  0.00  0.00    +0.000 A 
ATOM      9  C   UNL     1      -2.966  12.603  19.348  0.00  0.00    +0.000 A 
ATOM     10  C   UNL     1      -2.617  12.557  20.708  0.00  0.00    +0.000 A 
ATOM     11  C   UNL     1      -3.358  13.423  21.772  0.00  0.00    +0.000 C 
ATOM     12  O   UNL     1      -2.822  11.532  17.173  0.00  0.00    +0.000 OA
ATOM     13  C   UNL     1      -2.036  10.383  16.802  0.00  0.00    +0.000 C 
ATOM     14  O   UNL     1      -1.113   9.966  17.832  0.00  0.00    +0.000 OA
ENDROOT
BRANCH  11  15
ATOM     15  C   UNL     1      -4.942  13.387  21.671  0.00  0.00    +0.000 C 
ATOM     16  O   UNL     1      -5.397  12.027  21.387  0.00  0.00    +0.000 OA
ATOM     17  C   UNL     1      -6.120  11.941  20.210  0.00  0.00    +0.000 C 
ATOM     18  O   UNL     1      -6.536  10.872  19.772  0.00  0.00    +0.000 OA
ATOM     19  C   UNL     1      -6.228  13.278  19.743  0.00  0.00    +0.000 A 
ATOM     20  C   UNL     1      -5.586  14.186  20.590  0.00  0.00    +0.000 A 
ATOM     21  C   UNL     1      -5.489  15.570  20.469  0.00  0.00    +0.000 A 
ATOM     22  C   UNL     1      -6.015  16.098  19.304  0.00  0.00    +0.000 A 
ATOM     23  C   UNL     1      -6.608  15.187  18.446  0.00  0.00    +0.000 A 
ATOM     24  C   UNL     1      -6.763  13.830  18.606  0.00  0.00    +0.000 A 
ATOM     25  O   UNL     1      -7.379  13.199  17.569  0.00  0.00    +0.000 OA
ATOM     26  C   UNL     1      -7.624  14.331  16.703  0.00  0.00    +0.000 C 
ATOM     27  O   UNL     1      -7.124  15.586  17.234  0.00  0.00    +0.000 OA
ENDBRANCH  11  15
TORSDOF 1
ENDMDL
MODEL 8
REMARK VINA RESULT:      -6.4      3.921      6.432
REMARK  Name = 
REMARK  2 active torsions:
REMARK  status: ('A' for Active; 'I' for Inactive)
REMARK    1  A    between atoms: C_1  and  N_2
REMARK    2  A    between atoms: C_11  and  C_12
REMARK                            x       y       z     vdW  Elec       q    Type
REMARK                         _______ _______ _______ _____ _____    ______ ____
ROOT
ATOM      1  C   UNL     1       2.086  14.413  21.481  0.00  0.00    +0.000 C 
ATOM      2  N   UNL     1       1.132  14.246  20.381  0.00  0.00    +0.000 NA
ATOM      3  C   UNL     1       1.584  13.121  19.551  0.00  0.00    +0.000 C 
ATOM      4  C   UNL     1       0.752  12.991  18.287  0.00  0.00    +0.000 C 
ATOM      5  C   UNL     1      -0.671  12.708  18.666  0.00  0.00    +0.000 A 
ATOM      6  C   UNL     1      -1.446  11.850  17.857  0.00  0.00    +0.000 A 
ATOM      7  C   UNL     1      -2.748  11.612  18.225  0.00  0.00    +0.000 A 
ATOM      8  C   UNL     1      -3.308  12.272  19.281  0.00  0.00    +0.000 A 
ATOM      9  C   UNL     1      -2.593  13.179  20.032  0.00  0.00    +0.000 A 
ATOM     10  C   UNL     1      -1.214  13.342  19.815  0.00  0.00    +0.000 A 
ATOM     11  C   UNL     1      -0.325  14.173  20.789  0.00  0.00    +0.000 C 
ATOM     12  O   UNL     1      -4.602  11.924  19.501  0.00  0.00    +0.000 OA
ATOM     13  C   UNL     1      -4.767  10.897  18.503  0.00  0.00    +0.000 C 
ATOM     14  O   UNL     1      -3.624  10.761  17.629  0.00  0.00    +0.000 OA
ENDROOT
BRANCH  11  15
ATOM     15  C   UNL     1      -0.545  13.850  22.329  0.00  0.00    +0.000 C 
ATOM     16  O   UNL     1      -0.351  12.423  22.574  0.00  0.00    +0.000 OA
ATOM     17  C   UNL     1      -1.474  11.815  23.110  0.00  0.00    +0.000 C 
ATOM     18  O   UNL     1      -1.525  10.609  23.331  0.00  0.00    +0.000 OA
ATOM     19  C   UNL     1      -2.404  12.870  23.309  0.00  0.00    +0.000 A 
ATOM     20  C   UNL     1      -1.895  14.107  22.904  0.00  0.00    +0.000 A 
ATOM     21  C   UNL     1      -2.506  15.357  22.957  0.00  0.00    +0.000 A 
ATOM     22  C   UNL     1      -3.824  15.354  23.373  0.00  0.00    +0.000 A 
ATOM     23  C   UNL     1      -4.338  14.117  23.728  0.00  0.00    +0.000 A 
ATOM     24  C   UNL     1      -3.708  12.895  23.742  0.00  0.00    +0.000 A 
ATOM     25  O   UNL     1      -4.492  11.852  24.128  0.00  0.00    +0.000 OA
ATOM     26  C   UNL     1      -5.729  12.555  24.381  0.00  0.00    +0.000 C 
ATOM     27  O   UNL     1      -5.653  13.980  24.113  0.00  0.00    +0.000 OA
ENDBRANCH  11  15
TORSDOF 1
ENDMDL
MODEL 9
REMARK VINA RESULT:      -6.4      3.764      7.792
REMARK  Name = 
REMARK  2 active torsions:
REMARK  status: ('A' for Active; 'I' for Inactive)
REMARK    1  A    between atoms: C_1  and  N_2
REMARK    2  A    between atoms: C_11  and  C_12
REMARK                            x       y       z     vdW  Elec       q    Type
REMARK                         _______ _______ _______ _____ _____    ______ ____
ROOT
ATOM      1  C   UNL     1       1.112   3.950  20.815  0.00  0.00    +0.000 C 
ATOM      2  N   UNL     1       2.556   4.092  20.601  0.00  0.00    +0.000 NA
ATOM      3  C   UNL     1       3.019   2.930  19.830  0.00  0.00    +0.000 C 
ATOM      4  C   UNL     1       4.534   2.905  19.716  0.00  0.00    +0.000 C 
ATOM      5  C   UNL     1       4.988   4.127  18.976  0.00  0.00    +0.000 A 
ATOM      6  C   UNL     1       6.096   4.038  18.107  0.00  0.00    +0.000 A 
ATOM      7  C   UNL     1       6.494   5.175  17.445  0.00  0.00    +0.000 A 
ATOM      8  C   UNL     1       5.903   6.378  17.705  0.00  0.00    +0.000 A 
ATOM      9  C   UNL     1       4.876   6.501  18.615  0.00  0.00    +0.000 A 
ATOM     10  C   UNL     1       4.310   5.355  19.198  0.00  0.00    +0.000 A 
ATOM     11  C   UNL     1       3.002   5.428  20.042  0.00  0.00    +0.000 C 
ATOM     12  O   UNL     1       6.422   7.395  16.970  0.00  0.00    +0.000 OA
ATOM     13  C   UNL     1       7.360   6.671  16.150  0.00  0.00    +0.000 C 
ATOM     14  O   UNL     1       7.477   5.277  16.512  0.00  0.00    +0.000 OA
ENDROOT
BRANCH  11  15
ATOM     15  C   UNL     1       1.830   6.271  19.381  0.00  0.00    +0.000 C 
ATOM     16  O   UNL     1       2.252   6.780  18.078  0.00  0.00    +0.000 OA
ATOM     17  C   UNL     1       2.206   8.162  18.003  0.00  0.00    +0.000 C 
ATOM     18  O   UNL     1       2.578   8.779  17.010  0.00  0.00    +0.000 OA
ATOM     19  C   UNL     1       1.660   8.580  19.247  0.00  0.00    +0.000 A 
ATOM     20  C   UNL     1       1.377   7.501  20.089  0.00  0.00    +0.000 A 
ATOM     21  C   UNL     1       0.828   7.518  21.369  0.00  0.00    +0.000 A 
ATOM     22  C   UNL     1       0.632   8.775  21.910  0.00  0.00    +0.000 A 
ATOM     23  C   UNL     1       0.959   9.841  21.088  0.00  0.00    +0.000 A 
ATOM     24  C   UNL     1       1.434   9.818  19.798  0.00  0.00    +0.000 A 
ATOM     25  O   UNL     1       1.679  11.042  19.257  0.00  0.00    +0.000 OA
ATOM     26  C   UNL     1       1.287  11.884  20.366  0.00  0.00    +0.000 C 
ATOM     27  O   UNL     1       0.852  11.139  21.533  0.00  0.00    +0.000 OA
ENDBRANCH  11  15
TORSDOF 1
ENDMDL
