MODEL 1
REMARK VINA RESULT:      -6.9      0.000      0.000
REMARK  Name = 
REMARK  10 active torsions:
REMARK  status: ('A' for Active; 'I' for Inactive)
REMARK    1  A    between atoms: C_1  and  C_2
REMARK    2  A    between atoms: C_2  and  C_3
REMARK    3  A    between atoms: C_2  and  C_4
REMARK    4  A    between atoms: C_2  and  O_5
REMARK    5  A    between atoms: O_5  and  C_6
REMARK    6  A    between atoms: C_11  and  C_12
REMARK    7  A    between atoms: C_11  and  N_15
REMARK    8  A    between atoms: C_12  and  C_13
REMARK    9  A    between atoms: C_17  and  C_18
REMARK   10  A    between atoms: N_22  and  C_23
REMARK                            x       y       z     vdW  Elec       q    Type
REMARK                         _______ _______ _______ _____ _____    ______ ____
ROOT
ATOM      1  N   UNL     1      -1.373  11.407  19.594  0.00  0.00    +0.000 N 
ATOM      2  C   UNL     1      -1.524  11.067  18.281  0.00  0.00    +0.000 A 
ATOM      3  C   UNL     1      -2.801  11.461  17.915  0.00  0.00    +0.000 A 
ATOM      4  C   UNL     1      -3.328  12.076  19.080  0.00  0.00    +0.000 A 
ATOM      5  N   UNL     1      -4.581  12.591  19.176  0.00  0.00    +0.000 N 
ATOM      6  N   UNL     1      -2.438  12.056  20.078  0.00  0.00    +0.000 NA
ATOM      7  H   UNL     1      -5.113  12.719  18.316  0.00  0.00    +0.000 HD
ENDROOT
BRANCH   1  13
ATOM      8  C   UNL     1       2.587  14.229  20.726  0.00  0.00    +0.000 C 
ATOM      9  O   UNL     1       2.558  14.874  21.773  0.00  0.00    +0.000 OA
ATOM     10  N   UNL     1       1.497  13.499  20.294  0.00  0.00    +0.000 N 
ATOM     11  C   UNL     1       0.257  13.588  21.042  0.00  0.00    +0.000 C 
ATOM     12  C   UNL     1      -0.118  12.222  21.603  0.00  0.00    +0.000 C 
ATOM     13  C   UNL     1      -0.222  11.146  20.484  0.00  0.00    +0.000 C 
ATOM     14  C   UNL     1       1.126  11.168  19.677  0.00  0.00    +0.000 C 
ATOM     15  C   UNL     1       1.506  12.566  19.178  0.00  0.00    +0.000 C 
BRANCH   8  16
ATOM     16  O   UNL     1       3.665  14.169  19.894  0.00  0.00    +0.000 OA
BRANCH  16  18
ATOM     17  C   UNL     1       4.876  16.302  19.991  0.00  0.00    +0.000 C 
ATOM     18  C   UNL     1       4.018  15.359  19.135  0.00  0.00    +0.000 C 
ATOM     19  C   UNL     1       2.772  16.052  18.557  0.00  0.00    +0.000 C 
ATOM     20  C   UNL     1       4.879  14.894  17.947  0.00  0.00    +0.000 C 
ENDBRANCH  16  18
ENDBRANCH   8  16
BRANCH  13  21
ATOM     21  C   UNL     1      -0.368   9.731  21.104  0.00  0.00    +0.000 C 
BRANCH  21  22
ATOM     22  C   UNL     1      -0.020   9.684  22.534  0.00  0.00    +0.000 C 
ATOM     23  N   UNL     1       0.259   9.694  23.661  0.00  0.00    +0.000 NA
ENDBRANCH  21  22
ENDBRANCH  13  21
ENDBRANCH   1  13
BRANCH   5  24
ATOM     24  C   UNL     1      -5.392  12.619  20.334  0.00  0.00    +0.000 A 
ATOM     25  C   UNL     1      -6.488  11.762  20.444  0.00  0.00    +0.000 A 
ATOM     26  C   UNL     1      -7.291  11.847  21.575  0.00  0.00    +0.000 A 
ATOM     27  N   UNL     1      -7.074  12.705  22.594  0.00  0.00    +0.000 NA
ATOM     28  C   UNL     1      -6.015  13.524  22.457  0.00  0.00    +0.000 A 
ATOM     29 CL   UNL     1      -5.754  14.594  23.773  0.00  0.00    +0.000 Cl
ATOM     30  C   UNL     1      -5.166  13.529  21.368  0.00  0.00    +0.000 A 
ENDBRANCH   5  24
BRANCH   3  31
ATOM     31  C   UNL     1      -3.440  11.258  16.633  0.00  0.00    +0.000 C 
ATOM     32  N   UNL     1      -2.586  11.157  15.568  0.00  0.00    +0.000 N 
ATOM     33  O   UNL     1      -4.649  11.128  16.496  0.00  0.00    +0.000 OA
ATOM     34  H   UNL     1      -1.595  11.015  15.695  0.00  0.00    +0.000 HD
ATOM     35  H   UNL     1      -2.989  10.919  14.672  0.00  0.00    +0.000 HD
ENDBRANCH   3  31
TORSDOF 7
ENDMDL
MODEL 2
REMARK VINA RESULT:      -6.7      3.194      5.242
REMARK  Name = 
REMARK  10 active torsions:
REMARK  status: ('A' for Active; 'I' for Inactive)
REMARK    1  A    between atoms: C_1  and  C_2
REMARK    2  A    between atoms: C_2  and  C_3
REMARK    3  A    between atoms: C_2  and  C_4
REMARK    4  A    between atoms: C_2  and  O_5
REMARK    5  A    between atoms: O_5  and  C_6
REMARK    6  A    between atoms: C_11  and  C_12
REMARK    7  A    between atoms: C_11  and  N_15
REMARK    8  A    between atoms: C_12  and  C_13
REMARK    9  A    between atoms: C_17  and  C_18
REMARK   10  A    between atoms: N_22  and  C_23
REMARK                            x       y       z     vdW  Elec       q    Type
REMARK                         _______ _______ _______ _____ _____    ______ ____
ROOT
ATOM      1  N   UNL     1      -0.585  11.754  19.241  0.00  0.00    +0.000 N 
ATOM      2  C   UNL     1      -1.200  11.385  18.080  0.00  0.00    +0.000 A 
ATOM      3  C   UNL     1      -2.542  11.690  18.228  0.00  0.00    +0.000 A 
ATOM      4  C   UNL     1      -2.629  12.289  19.512  0.00  0.00    +0.000 A 
ATOM      5  N   UNL     1      -3.783  12.724  20.079  0.00  0.00    +0.000 N 
ATOM      6  N   UNL     1      -1.429  12.341  20.098  0.00  0.00    +0.000 NA
ATOM      7  H   UNL     1      -4.608  12.805  19.486  0.00  0.00    +0.000 HD
ENDROOT
BRANCH   1  13
ATOM      8  C   UNL     1       2.428   7.787  18.913  0.00  0.00    +0.000 C 
ATOM      9  O   UNL     1       3.198   7.722  17.955  0.00  0.00    +0.000 OA
ATOM     10  N   UNL     1       1.498   8.802  19.028  0.00  0.00    +0.000 N 
ATOM     11  C   UNL     1       1.358   9.747  17.936  0.00  0.00    +0.000 C 
ATOM     12  C   UNL     1       1.700  11.153  18.410  0.00  0.00    +0.000 C 
ATOM     13  C   UNL     1       0.830  11.581  19.627  0.00  0.00    +0.000 C 
ATOM     14  C   UNL     1       0.979  10.471  20.730  0.00  0.00    +0.000 C 
ATOM     15  C   UNL     1       0.686   9.061  20.207  0.00  0.00    +0.000 C 
BRANCH   8  16
ATOM     16  O   UNL     1       2.404   6.888  19.937  0.00  0.00    +0.000 OA
BRANCH  16  18
ATOM     17  C   UNL     1       1.879   4.600  20.655  0.00  0.00    +0.000 C 
ATOM     18  C   UNL     1       2.599   5.480  19.623  0.00  0.00    +0.000 C 
ATOM     19  C   UNL     1       4.092   5.132  19.487  0.00  0.00    +0.000 C 
ATOM     20  C   UNL     1       1.941   5.230  18.255  0.00  0.00    +0.000 C 
ENDBRANCH  16  18
ENDBRANCH   8  16
BRANCH  13  21
ATOM     21  C   UNL     1       1.360  12.908  20.232  0.00  0.00    +0.000 C 
BRANCH  21  22
ATOM     22  C   UNL     1       1.845  13.858  19.217  0.00  0.00    +0.000 C 
ATOM     23  N   UNL     1       2.201  14.642  18.438  0.00  0.00    +0.000 NA
ENDBRANCH  21  22
ENDBRANCH  13  21
ENDBRANCH   1  13
BRANCH   5  24
ATOM     24  C   UNL     1      -4.096  12.718  21.459  0.00  0.00    +0.000 A 
ATOM     25  C   UNL     1      -3.095  12.497  22.405  0.00  0.00    +0.000 A 
ATOM     26  C   UNL     1      -3.445  12.453  23.749  0.00  0.00    +0.000 A 
ATOM     27  N   UNL     1      -4.702  12.622  24.209  0.00  0.00    +0.000 NA
ATOM     28  C   UNL     1      -5.648  12.826  23.274  0.00  0.00    +0.000 A 
ATOM     29 CL   UNL     1      -7.234  13.053  23.888  0.00  0.00    +0.000 Cl
ATOM     30  C   UNL     1      -5.407  12.873  21.915  0.00  0.00    +0.000 A 
ENDBRANCH   5  24
BRANCH   3  31
ATOM     31  C   UNL     1      -3.604  11.428  17.280  0.00  0.00    +0.000 C 
ATOM     32  N   UNL     1      -3.249  11.546  15.964  0.00  0.00    +0.000 N 
ATOM     33  O   UNL     1      -4.728  11.070  17.610  0.00  0.00    +0.000 OA
ATOM     34  H   UNL     1      -2.283  11.594  15.677  0.00  0.00    +0.000 HD
ATOM     35  H   UNL     1      -3.937  11.276  15.273  0.00  0.00    +0.000 HD
ENDBRANCH   3  31
TORSDOF 7
ENDMDL
MODEL 3
REMARK VINA RESULT:      -6.7      3.370      5.448
REMARK  Name = 
REMARK  10 active torsions:
REMARK  status: ('A' for Active; 'I' for Inactive)
REMARK    1  A    between atoms: C_1  and  C_2
REMARK    2  A    between atoms: C_2  and  C_3
REMARK    3  A    between atoms: C_2  and  C_4
REMARK    4  A    between atoms: C_2  and  O_5
REMARK    5  A    between atoms: O_5  and  C_6
REMARK    6  A    between atoms: C_11  and  C_12
REMARK    7  A    between atoms: C_11  and  N_15
REMARK    8  A    between atoms: C_12  and  C_13
REMARK    9  A    between atoms: C_17  and  C_18
REMARK   10  A    between atoms: N_22  and  C_23
REMARK                            x       y       z     vdW  Elec       q    Type
REMARK                         _______ _______ _______ _____ _____    ______ ____
ROOT
ATOM      1  N   UNL     1      -0.392  11.629  19.283  0.00  0.00    +0.000 N 
ATOM      2  C   UNL     1      -1.136  10.986  18.337  0.00  0.00    +0.000 A 
ATOM      3  C   UNL     1      -2.429  11.467  18.456  0.00  0.00    +0.000 A 
ATOM      4  C   UNL     1      -2.350  12.442  19.485  0.00  0.00    +0.000 A 
ATOM      5  N   UNL     1      -3.407  13.156  19.948  0.00  0.00    +0.000 N 
ATOM      6  N   UNL     1      -1.102  12.543  19.954  0.00  0.00    +0.000 NA
ATOM      7  H   UNL     1      -4.272  13.137  19.408  0.00  0.00    +0.000 HD
ENDROOT
BRANCH   1  13
ATOM      8  C   UNL     1       2.547   7.618  18.833  0.00  0.00    +0.000 C 
ATOM      9  O   UNL     1       3.285   7.547  17.851  0.00  0.00    +0.000 OA
ATOM     10  N   UNL     1       1.637   8.646  18.985  0.00  0.00    +0.000 N 
ATOM     11  C   UNL     1       1.477   9.601  17.903  0.00  0.00    +0.000 C 
ATOM     12  C   UNL     1       1.857  10.999  18.375  0.00  0.00    +0.000 C 
ATOM     13  C   UNL     1       1.033  11.431  19.622  0.00  0.00    +0.000 C 
ATOM     14  C   UNL     1       1.199  10.312  20.712  0.00  0.00    +0.000 C 
ATOM     15  C   UNL     1       0.867   8.910  20.190  0.00  0.00    +0.000 C 
BRANCH   8  16
ATOM     16  O   UNL     1       2.541   6.712  19.852  0.00  0.00    +0.000 OA
BRANCH  16  18
ATOM     17  C   UNL     1       1.891   5.129  18.092  0.00  0.00    +0.000 C 
ATOM     18  C   UNL     1       2.434   5.300  19.518  0.00  0.00    +0.000 C 
ATOM     19  C   UNL     1       1.607   4.532  20.564  0.00  0.00    +0.000 C 
ATOM     20  C   UNL     1       3.861   4.724  19.546  0.00  0.00    +0.000 C 
ENDBRANCH  16  18
ENDBRANCH   8  16
BRANCH  13  21
ATOM     21  C   UNL     1       1.602  12.746  20.218  0.00  0.00    +0.000 C 
BRANCH  21  22
ATOM     22  C   UNL     1       2.218  13.624  19.209  0.00  0.00    +0.000 C 
ATOM     23  N   UNL     1       2.729  14.336  18.449  0.00  0.00    +0.000 NA
ENDBRANCH  21  22
ENDBRANCH  13  21
ENDBRANCH   1  13
BRANCH   5  24
ATOM     24  C   UNL     1      -3.596  13.616  21.272  0.00  0.00    +0.000 A 
ATOM     25  C   UNL     1      -3.373  14.957  21.588  0.00  0.00    +0.000 A 
ATOM     26  C   UNL     1      -3.525  15.365  22.907  0.00  0.00    +0.000 A 
ATOM     27  N   UNL     1      -3.887  14.546  23.916  0.00  0.00    +0.000 NA
ATOM     28  C   UNL     1      -4.087  13.258  23.584  0.00  0.00    +0.000 A 
ATOM     29 CL   UNL     1      -4.563  12.241  24.883  0.00  0.00    +0.000 Cl
ATOM     30  C   UNL     1      -3.950  12.749  22.308  0.00  0.00    +0.000 A 
ENDBRANCH   5  24
BRANCH   3  31
ATOM     31  C   UNL     1      -3.590  11.039  17.705  0.00  0.00    +0.000 C 
ATOM     32  N   UNL     1      -4.020  11.922  16.751  0.00  0.00    +0.000 N 
ATOM     33  O   UNL     1      -4.127   9.950  17.856  0.00  0.00    +0.000 OA
ATOM     34  H   UNL     1      -3.449  12.697  16.450  0.00  0.00    +0.000 HD
ATOM     35  H   UNL     1      -4.767  11.616  16.141  0.00  0.00    +0.000 HD
ENDBRANCH   3  31
TORSDOF 7
ENDMDL
MODEL 4
REMARK VINA RESULT:      -6.6      0.941      1.117
REMARK  Name = 
REMARK  10 active torsions:
REMARK  status: ('A' for Active; 'I' for Inactive)
REMARK    1  A    between atoms: C_1  and  C_2
REMARK    2  A    between atoms: C_2  and  C_3
REMARK    3  A    between atoms: C_2  and  C_4
REMARK    4  A    between atoms: C_2  and  O_5
REMARK    5  A    between atoms: O_5  and  C_6
REMARK    6  A    between atoms: C_11  and  C_12
REMARK    7  A    between atoms: C_11  and  N_15
REMARK    8  A    between atoms: C_12  and  C_13
REMARK    9  A    between atoms: C_17  and  C_18
REMARK   10  A    between atoms: N_22  and  C_23
REMARK                            x       y       z     vdW  Elec       q    Type
REMARK                         _______ _______ _______ _____ _____    ______ ____
ROOT
ATOM      1  N   UNL     1      -1.075  11.246  19.233  0.00  0.00    +0.000 N 
ATOM      2  C   UNL     1      -1.491  10.980  17.961  0.00  0.00    +0.000 A 
ATOM      3  C   UNL     1      -2.789  11.451  17.862  0.00  0.00    +0.000 A 
ATOM      4  C   UNL     1      -3.052  12.031  19.130  0.00  0.00    +0.000 A 
ATOM      5  N   UNL     1      -4.233  12.600  19.484  0.00  0.00    +0.000 N 
ATOM      6  N   UNL     1      -1.992  11.920  19.937  0.00  0.00    +0.000 NA
ATOM      7  H   UNL     1      -4.911  12.796  18.748  0.00  0.00    +0.000 HD
ENDROOT
BRANCH   1  13
ATOM      8  C   UNL     1       2.771  14.089  20.662  0.00  0.00    +0.000 C 
ATOM      9  O   UNL     1       2.840  14.418  21.846  0.00  0.00    +0.000 OA
ATOM     10  N   UNL     1       1.692  13.384  20.168  0.00  0.00    +0.000 N 
ATOM     11  C   UNL     1       0.567  13.123  21.046  0.00  0.00    +0.000 C 
ATOM     12  C   UNL     1       0.383  11.623  21.235  0.00  0.00    +0.000 C 
ATOM     13  C   UNL     1       0.206  10.887  19.876  0.00  0.00    +0.000 C 
ATOM     14  C   UNL     1       1.421  11.281  18.961  0.00  0.00    +0.000 C 
ATOM     15  C   UNL     1       1.616  12.796  18.839  0.00  0.00    +0.000 C 
BRANCH   8  16
ATOM     16  O   UNL     1       3.723  14.380  19.731  0.00  0.00    +0.000 OA
BRANCH  16  18
ATOM     17  C   UNL     1       2.436  16.462  19.536  0.00  0.00    +0.000 C 
ATOM     18  C   UNL     1       3.685  15.687  19.091  0.00  0.00    +0.000 C 
ATOM     19  C   UNL     1       3.797  15.572  17.561  0.00  0.00    +0.000 C 
ATOM     20  C   UNL     1       4.917  16.464  19.586  0.00  0.00    +0.000 C 
ENDBRANCH  16  18
ENDBRANCH   8  16
BRANCH  13  21
ATOM     21  C   UNL     1       0.260   9.350  20.082  0.00  0.00    +0.000 C 
BRANCH  21  22
ATOM     22  C   UNL     1      -0.257   8.919  21.391  0.00  0.00    +0.000 C 
ATOM     23  N   UNL     1      -0.671   8.535  22.405  0.00  0.00    +0.000 NA
ENDBRANCH  21  22
ENDBRANCH  13  21
ENDBRANCH   1  13
BRANCH   5  24
ATOM     24  C   UNL     1      -4.809  12.608  20.776  0.00  0.00    +0.000 A 
ATOM     25  C   UNL     1      -6.169  12.344  20.940  0.00  0.00    +0.000 A 
ATOM     26  C   UNL     1      -6.712  12.404  22.218  0.00  0.00    +0.000 A 
ATOM     27  N   UNL     1      -6.002  12.694  23.328  0.00  0.00    +0.000 NA
ATOM     28  C   UNL     1      -4.694  12.952  23.139  0.00  0.00    +0.000 A 
ATOM     29 CL   UNL     1      -3.812  13.301  24.569  0.00  0.00    +0.000 Cl
ATOM     30  C   UNL     1      -4.063  12.931  21.911  0.00  0.00    +0.000 A 
ENDBRANCH   5  24
BRANCH   3  31
ATOM     31  C   UNL     1      -3.669  11.344  16.718  0.00  0.00    +0.000 C 
ATOM     32  N   UNL     1      -3.038  11.268  15.506  0.00  0.00    +0.000 N 
ATOM     33  O   UNL     1      -4.887  11.267  16.810  0.00  0.00    +0.000 OA
ATOM     34  H   UNL     1      -2.049  11.082  15.433  0.00  0.00    +0.000 HD
ATOM     35  H   UNL     1      -3.615  11.095  14.693  0.00  0.00    +0.000 HD
ENDBRANCH   3  31
TORSDOF 7
ENDMDL
MODEL 5
REMARK VINA RESULT:      -6.6      3.332      6.865
REMARK  Name = 
REMARK  10 active torsions:
REMARK  status: ('A' for Active; 'I' for Inactive)
REMARK    1  A    between atoms: C_1  and  C_2
REMARK    2  A    between atoms: C_2  and  C_3
REMARK    3  A    between atoms: C_2  and  C_4
REMARK    4  A    between atoms: C_2  and  O_5
REMARK    5  A    between atoms: O_5  and  C_6
REMARK    6  A    between atoms: C_11  and  C_12
REMARK    7  A    between atoms: C_11  and  N_15
REMARK    8  A    between atoms: C_12  and  C_13
REMARK    9  A    between atoms: C_17  and  C_18
REMARK   10  A    between atoms: N_22  and  C_23
REMARK                            x       y       z     vdW  Elec       q    Type
REMARK                         _______ _______ _______ _____ _____    ______ ____
ROOT
ATOM      1  N   UNL     1      -0.798  12.344  20.758  0.00  0.00    +0.000 N 
ATOM      2  C   UNL     1       0.093  11.386  21.146  0.00  0.00    +0.000 A 
ATOM      3  C   UNL     1       0.212  10.503  20.086  0.00  0.00    +0.000 A 
ATOM      4  C   UNL     1      -0.623  11.049  19.076  0.00  0.00    +0.000 A 
ATOM      5  N   UNL     1      -0.823  10.484  17.859  0.00  0.00    +0.000 N 
ATOM      6  N   UNL     1      -1.205  12.178  19.494  0.00  0.00    +0.000 NA
ATOM      7  H   UNL     1      -0.201   9.729  17.572  0.00  0.00    +0.000 HD
ENDROOT
BRANCH   1  13
ATOM      8  C   UNL     1      -4.753  12.651  23.790  0.00  0.00    +0.000 C 
ATOM      9  O   UNL     1      -4.564  12.546  25.001  0.00  0.00    +0.000 OA
ATOM     10  N   UNL     1      -3.728  12.484  22.879  0.00  0.00    +0.000 N 
ATOM     11  C   UNL     1      -2.425  12.068  23.363  0.00  0.00    +0.000 C 
ATOM     12  C   UNL     1      -1.385  13.138  23.061  0.00  0.00    +0.000 C 
ATOM     13  C   UNL     1      -1.329  13.478  21.543  0.00  0.00    +0.000 C 
ATOM     14  C   UNL     1      -2.787  13.843  21.084  0.00  0.00    +0.000 C 
ATOM     15  C   UNL     1      -3.820  12.774  21.456  0.00  0.00    +0.000 C 
BRANCH   8  16
ATOM     16  O   UNL     1      -5.962  12.931  23.226  0.00  0.00    +0.000 OA
BRANCH  16  18
ATOM     17  C   UNL     1      -6.938  14.758  21.909  0.00  0.00    +0.000 C 
ATOM     18  C   UNL     1      -6.454  14.299  23.292  0.00  0.00    +0.000 C 
ATOM     19  C   UNL     1      -5.405  15.248  23.898  0.00  0.00    +0.000 C 
ATOM     20  C   UNL     1      -7.670  14.293  24.234  0.00  0.00    +0.000 C 
ENDBRANCH  16  18
ENDBRANCH   8  16
BRANCH  13  21
ATOM     21  C   UNL     1      -0.441  14.727  21.300  0.00  0.00    +0.000 C 
BRANCH  21  22
ATOM     22  C   UNL     1       0.955  14.542  21.732  0.00  0.00    +0.000 C 
ATOM     23  N   UNL     1       2.056  14.443  22.083  0.00  0.00    +0.000 NA
ENDBRANCH  21  22
ENDBRANCH  13  21
ENDBRANCH   1  13
BRANCH   5  24
ATOM     24  C   UNL     1      -2.011  10.538  17.092  0.00  0.00    +0.000 A 
ATOM     25  C   UNL     1      -2.115   9.808  15.907  0.00  0.00    +0.000 A 
ATOM     26  C   UNL     1      -3.278   9.918  15.156  0.00  0.00    +0.000 A 
ATOM     27  N   UNL     1      -4.333  10.685  15.502  0.00  0.00    +0.000 NA
ATOM     28  C   UNL     1      -4.201  11.384  16.645  0.00  0.00    +0.000 A 
ATOM     29 CL   UNL     1      -5.563  12.339  17.070  0.00  0.00    +0.000 Cl
ATOM     30  C   UNL     1      -3.084  11.354  17.455  0.00  0.00    +0.000 A 
ENDBRANCH   5  24
BRANCH   3  31
ATOM     31  C   UNL     1       1.001   9.290  20.048  0.00  0.00    +0.000 C 
ATOM     32  N   UNL     1       0.998   8.560  21.205  0.00  0.00    +0.000 N 
ATOM     33  O   UNL     1       1.588   8.900  19.047  0.00  0.00    +0.000 OA
ATOM     34  H   UNL     1       0.331   8.736  21.942  0.00  0.00    +0.000 HD
ATOM     35  H   UNL     1       1.457   7.659  21.185  0.00  0.00    +0.000 HD
ENDBRANCH   3  31
TORSDOF 7
ENDMDL
MODEL 6
REMARK VINA RESULT:      -6.4      0.966      1.035
REMARK  Name = 
REMARK  10 active torsions:
REMARK  status: ('A' for Active; 'I' for Inactive)
REMARK    1  A    between atoms: C_1  and  C_2
REMARK    2  A    between atoms: C_2  and  C_3
REMARK    3  A    between atoms: C_2  and  C_4
REMARK    4  A    between atoms: C_2  and  O_5
REMARK    5  A    between atoms: O_5  and  C_6
REMARK    6  A    between atoms: C_11  and  C_12
REMARK    7  A    between atoms: C_11  and  N_15
REMARK    8  A    between atoms: C_12  and  C_13
REMARK    9  A    between atoms: C_17  and  C_18
REMARK   10  A    between atoms: N_22  and  C_23
REMARK                            x       y       z     vdW  Elec       q    Type
REMARK                         _______ _______ _______ _____ _____    ______ ____
ROOT
ATOM      1  N   UNL     1      -1.348  12.058  19.930  0.00  0.00    +0.000 N 
ATOM      2  C   UNL     1      -1.208  11.598  18.653  0.00  0.00    +0.000 A 
ATOM      3  C   UNL     1      -2.476  11.576  18.098  0.00  0.00    +0.000 A 
ATOM      4  C   UNL     1      -3.317  12.092  19.119  0.00  0.00    +0.000 A 
ATOM      5  N   UNL     1      -4.663  12.226  19.009  0.00  0.00    +0.000 N 
ATOM      6  N   UNL     1      -2.610  12.402  20.211  0.00  0.00    +0.000 NA
ATOM      7  H   UNL     1      -5.081  12.133  18.083  0.00  0.00    +0.000 HD
ENDROOT
BRANCH   1  13
ATOM      8  C   UNL     1       2.581  15.125  20.218  0.00  0.00    +0.000 C 
ATOM      9  O   UNL     1       2.466  16.152  20.886  0.00  0.00    +0.000 OA
ATOM     10  N   UNL     1       1.514  14.272  20.010  0.00  0.00    +0.000 N 
ATOM     11  C   UNL     1       0.206  14.659  20.504  0.00  0.00    +0.000 C 
ATOM     12  C   UNL     1      -0.284  13.655  21.540  0.00  0.00    +0.000 C 
ATOM     13  C   UNL     1      -0.312  12.206  20.973  0.00  0.00    +0.000 C 
ATOM     14  C   UNL     1       1.115  11.896  20.392  0.00  0.00    +0.000 C 
ATOM     15  C   UNL     1       1.604  12.955  19.399  0.00  0.00    +0.000 C 
BRANCH   8  16
ATOM     16  O   UNL     1       3.739  14.728  19.619  0.00  0.00    +0.000 OA
BRANCH  16  18
ATOM     17  C   UNL     1       5.028  16.780  19.229  0.00  0.00    +0.000 C 
ATOM     18  C   UNL     1       4.312  15.582  18.589  0.00  0.00    +0.000 C 
ATOM     19  C   UNL     1       3.256  16.007  17.554  0.00  0.00    +0.000 C 
ATOM     20  C   UNL     1       5.370  14.746  17.851  0.00  0.00    +0.000 C 
ENDBRANCH  16  18
ENDBRANCH   8  16
BRANCH  13  21
ATOM     21  C   UNL     1      -0.582  11.185  22.109  0.00  0.00    +0.000 C 
BRANCH  21  22
ATOM     22  C   UNL     1      -0.268   9.797  21.732  0.00  0.00    +0.000 C 
ATOM     23  N   UNL     1      -0.068   8.694  21.430  0.00  0.00    +0.000 NA
ENDBRANCH  21  22
ENDBRANCH  13  21
ENDBRANCH   1  13
BRANCH   5  24
ATOM     24  C   UNL     1      -5.609  12.097  20.053  0.00  0.00    +0.000 A 
ATOM     25  C   UNL     1      -6.650  11.174  19.948  0.00  0.00    +0.000 A 
ATOM     26  C   UNL     1      -7.587  11.105  20.971  0.00  0.00    +0.000 A 
ATOM     27  N   UNL     1      -7.554  11.873  22.080  0.00  0.00    +0.000 NA
ATOM     28  C   UNL     1      -6.544  12.760  22.151  0.00  0.00    +0.000 A 
ATOM     29 CL   UNL     1      -6.517  13.712  23.578  0.00  0.00    +0.000 Cl
ATOM     30  C   UNL     1      -5.572  12.916  21.183  0.00  0.00    +0.000 A 
ENDBRANCH   5  24
BRANCH   3  31
ATOM     31  C   UNL     1      -2.841  11.108  16.779  0.00  0.00    +0.000 C 
ATOM     32  N   UNL     1      -2.030  10.133  16.264  0.00  0.00    +0.000 N 
ATOM     33  O   UNL     1      -3.831  11.500  16.175  0.00  0.00    +0.000 OA
ATOM     34  H   UNL     1      -1.371   9.632  16.841  0.00  0.00    +0.000 HD
ATOM     35  H   UNL     1      -2.310   9.712  15.388  0.00  0.00    +0.000 HD
ENDBRANCH   3  31
TORSDOF 7
ENDMDL
MODEL 7
REMARK VINA RESULT:      -6.4      3.243      5.276
REMARK  Name = 
REMARK  10 active torsions:
REMARK  status: ('A' for Active; 'I' for Inactive)
REMARK    1  A    between atoms: C_1  and  C_2
REMARK    2  A    between atoms: C_2  and  C_3
REMARK    3  A    between atoms: C_2  and  C_4
REMARK    4  A    between atoms: C_2  and  O_5
REMARK    5  A    between atoms: O_5  and  C_6
REMARK    6  A    between atoms: C_11  and  C_12
REMARK    7  A    between atoms: C_11  and  N_15
REMARK    8  A    between atoms: C_12  and  C_13
REMARK    9  A    between atoms: C_17  and  C_18
REMARK   10  A    between atoms: N_22  and  C_23
REMARK                            x       y       z     vdW  Elec       q    Type
REMARK                         _______ _______ _______ _____ _____    ______ ____
ROOT
ATOM      1  N   UNL     1      -0.504  11.729  19.221  0.00  0.00    +0.000 N 
ATOM      2  C   UNL     1      -1.152  11.253  18.119  0.00  0.00    +0.000 A 
ATOM      3  C   UNL     1      -2.474  11.646  18.235  0.00  0.00    +0.000 A 
ATOM      4  C   UNL     1      -2.513  12.403  19.436  0.00  0.00    +0.000 A 
ATOM      5  N   UNL     1      -3.635  12.968  19.951  0.00  0.00    +0.000 N 
ATOM      6  N   UNL     1      -1.304  12.463  20.004  0.00  0.00    +0.000 NA
ATOM      7  H   UNL     1      -4.462  13.019  19.357  0.00  0.00    +0.000 HD
ENDROOT
BRANCH   1  13
ATOM      8  C   UNL     1       2.446   7.716  18.878  0.00  0.00    +0.000 C 
ATOM      9  O   UNL     1       3.223   7.647  17.926  0.00  0.00    +0.000 OA
ATOM     10  N   UNL     1       1.532   8.744  18.996  0.00  0.00    +0.000 N 
ATOM     11  C   UNL     1       1.417   9.703  17.912  0.00  0.00    +0.000 C 
ATOM     12  C   UNL     1       1.778  11.099  18.404  0.00  0.00    +0.000 C 
ATOM     13  C   UNL     1       0.905  11.528  19.618  0.00  0.00    +0.000 C 
ATOM     14  C   UNL     1       1.026  10.405  20.710  0.00  0.00    +0.000 C 
ATOM     15  C   UNL     1       0.714   9.005  20.171  0.00  0.00    +0.000 C 
BRANCH   8  16
ATOM     16  O   UNL     1       2.398   6.807  19.893  0.00  0.00    +0.000 OA
BRANCH  16  18
ATOM     17  C   UNL     1       1.864   5.195  18.119  0.00  0.00    +0.000 C 
ATOM     18  C   UNL     1       2.383   5.392  19.551  0.00  0.00    +0.000 C 
ATOM     19  C   UNL     1       1.595   4.569  20.585  0.00  0.00    +0.000 C 
ATOM     20  C   UNL     1       3.842   4.906  19.590  0.00  0.00    +0.000 C 
ENDBRANCH  16  18
ENDBRANCH   8  16
BRANCH  13  21
ATOM     21  C   UNL     1       1.452  12.840  20.240  0.00  0.00    +0.000 C 
BRANCH  21  22
ATOM     22  C   UNL     1       2.032  13.759  19.247  0.00  0.00    +0.000 C 
ATOM     23  N   UNL     1       2.473  14.454  18.429  0.00  0.00    +0.000 NA
ENDBRANCH  21  22
ENDBRANCH  13  21
ENDBRANCH   1  13
BRANCH   5  24
ATOM     24  C   UNL     1      -3.931  13.150  21.322  0.00  0.00    +0.000 A 
ATOM     25  C   UNL     1      -5.171  12.762  21.830  0.00  0.00    +0.000 A 
ATOM     26  C   UNL     1      -5.446  12.996  23.172  0.00  0.00    +0.000 A 
ATOM     27  N   UNL     1      -4.580  13.571  24.032  0.00  0.00    +0.000 NA
ATOM     28  C   UNL     1      -3.395  13.942  23.513  0.00  0.00    +0.000 A 
ATOM     29 CL   UNL     1      -2.307  14.656  24.632  0.00  0.00    +0.000 Cl
ATOM     30  C   UNL     1      -3.030  13.767  22.193  0.00  0.00    +0.000 A 
ENDBRANCH   5  24
BRANCH   3  31
ATOM     31  C   UNL     1      -3.561  11.327  17.334  0.00  0.00    +0.000 C 
ATOM     32  N   UNL     1      -3.266  11.450  16.004  0.00  0.00    +0.000 N 
ATOM     33  O   UNL     1      -4.651  10.920  17.712  0.00  0.00    +0.000 OA
ATOM     34  H   UNL     1      -2.315  11.540  15.677  0.00  0.00    +0.000 HD
ATOM     35  H   UNL     1      -3.967  11.142  15.343  0.00  0.00    +0.000 HD
ENDBRANCH   3  31
TORSDOF 7
ENDMDL
MODEL 8
REMARK VINA RESULT:      -6.4      3.261      4.988
REMARK  Name = 
REMARK  10 active torsions:
REMARK  status: ('A' for Active; 'I' for Inactive)
REMARK    1  A    between atoms: C_1  and  C_2
REMARK    2  A    between atoms: C_2  and  C_3
REMARK    3  A    between atoms: C_2  and  C_4
REMARK    4  A    between atoms: C_2  and  O_5
REMARK    5  A    between atoms: O_5  and  C_6
REMARK    6  A    between atoms: C_11  and  C_12
REMARK    7  A    between atoms: C_11  and  N_15
REMARK    8  A    between atoms: C_12  and  C_13
REMARK    9  A    between atoms: C_17  and  C_18
REMARK   10  A    between atoms: N_22  and  C_23
REMARK                            x       y       z     vdW  Elec       q    Type
REMARK                         _______ _______ _______ _____ _____    ______ ____
ROOT
ATOM      1  N   UNL     1       0.223  12.844  20.608  0.00  0.00    +0.000 N 
ATOM      2  C   UNL     1       0.315  11.954  21.638  0.00  0.00    +0.000 A 
ATOM      3  C   UNL     1      -0.282  10.782  21.205  0.00  0.00    +0.000 A 
ATOM      4  C   UNL     1      -0.667  11.056  19.866  0.00  0.00    +0.000 A 
ATOM      5  N   UNL     1      -1.316  10.178  19.060  0.00  0.00    +0.000 N 
ATOM      6  N   UNL     1      -0.329  12.301  19.515  0.00  0.00    +0.000 NA
ATOM      7  H   UNL     1      -1.368   9.204  19.355  0.00  0.00    +0.000 HD
ENDROOT
BRANCH   1  13
ATOM      8  C   UNL     1       4.220  15.019  18.555  0.00  0.00    +0.000 C 
ATOM      9  O   UNL     1       4.090  15.548  17.452  0.00  0.00    +0.000 OA
ATOM     10  N   UNL     1       3.191  14.316  19.149  0.00  0.00    +0.000 N 
ATOM     11  C   UNL     1       1.965  14.108  18.400  0.00  0.00    +0.000 C 
ATOM     12  C   UNL     1       0.794  14.772  19.113  0.00  0.00    +0.000 C 
ATOM     13  C   UNL     1       0.643  14.260  20.575  0.00  0.00    +0.000 C 
ATOM     14  C   UNL     1       2.029  14.450  21.290  0.00  0.00    +0.000 C 
ATOM     15  C   UNL     1       3.195  13.824  20.518  0.00  0.00    +0.000 C 
BRANCH   8  16
ATOM     16  O   UNL     1       5.366  15.060  19.293  0.00  0.00    +0.000 OA
BRANCH  16  18
ATOM     17  C   UNL     1       4.607  17.246  20.114  0.00  0.00    +0.000 C 
ATOM     18  C   UNL     1       5.814  16.350  19.799  0.00  0.00    +0.000 C 
ATOM     19  C   UNL     1       6.815  17.018  18.840  0.00  0.00    +0.000 C 
ATOM     20  C   UNL     1       6.552  16.080  21.121  0.00  0.00    +0.000 C 
ENDBRANCH  16  18
ENDBRANCH   8  16
BRANCH  13  21
ATOM     21  C   UNL     1      -0.396  15.118  21.344  0.00  0.00    +0.000 C 
BRANCH  21  22
ATOM     22  C   UNL     1      -1.791  14.789  21.004  0.00  0.00    +0.000 C 
ATOM     23  N   UNL     1      -2.888  14.495  20.768  0.00  0.00    +0.000 NA
ENDBRANCH  21  22
ENDBRANCH  13  21
ENDBRANCH   1  13
BRANCH   5  24
ATOM     24  C   UNL     1      -2.260  10.499  18.056  0.00  0.00    +0.000 A 
ATOM     25  C   UNL     1      -3.422  11.198  18.382  0.00  0.00    +0.000 A 
ATOM     26  C   UNL     1      -4.349  11.457  17.380  0.00  0.00    +0.000 A 
ATOM     27  N   UNL     1      -4.196  11.083  16.093  0.00  0.00    +0.000 NA
ATOM     28  C   UNL     1      -3.070  10.403  15.809  0.00  0.00    +0.000 A 
ATOM     29 CL   UNL     1      -2.893   9.953  14.162  0.00  0.00    +0.000 Cl
ATOM     30  C   UNL     1      -2.095  10.083  16.733  0.00  0.00    +0.000 A 
ENDBRANCH   5  24
BRANCH   3  31
ATOM     31  C   UNL     1      -0.478   9.570  21.970  0.00  0.00    +0.000 C 
ATOM     32  N   UNL     1      -0.834   9.762  23.278  0.00  0.00    +0.000 N 
ATOM     33  O   UNL     1      -0.392   8.448  21.489  0.00  0.00    +0.000 OA
ATOM     34  H   UNL     1      -1.147  10.659  23.617  0.00  0.00    +0.000 HD
ATOM     35  H   UNL     1      -1.074   8.940  23.817  0.00  0.00    +0.000 HD
ENDBRANCH   3  31
TORSDOF 7
ENDMDL
MODEL 9
REMARK VINA RESULT:      -6.4      3.324      5.336
REMARK  Name = 
REMARK  10 active torsions:
REMARK  status: ('A' for Active; 'I' for Inactive)
REMARK    1  A    between atoms: C_1  and  C_2
REMARK    2  A    between atoms: C_2  and  C_3
REMARK    3  A    between atoms: C_2  and  C_4
REMARK    4  A    between atoms: C_2  and  O_5
REMARK    5  A    between atoms: O_5  and  C_6
REMARK    6  A    between atoms: C_11  and  C_12
REMARK    7  A    between atoms: C_11  and  N_15
REMARK    8  A    between atoms: C_12  and  C_13
REMARK    9  A    between atoms: C_17  and  C_18
REMARK   10  A    between atoms: N_22  and  C_23
REMARK                            x       y       z     vdW  Elec       q    Type
REMARK                         _______ _______ _______ _____ _____    ______ ____
ROOT
ATOM      1  N   UNL     1      -0.433  11.642  19.301  0.00  0.00    +0.000 N 
ATOM      2  C   UNL     1      -1.164  11.051  18.313  0.00  0.00    +0.000 A 
ATOM      3  C   UNL     1      -2.473  11.470  18.483  0.00  0.00    +0.000 A 
ATOM      4  C   UNL     1      -2.417  12.360  19.588  0.00  0.00    +0.000 A 
ATOM      5  N   UNL     1      -3.495  12.992  20.118  0.00  0.00    +0.000 N 
ATOM      6  N   UNL     1      -1.168  12.470  20.053  0.00  0.00    +0.000 NA
ATOM      7  H   UNL     1      -4.365  12.984  19.587  0.00  0.00    +0.000 HD
ENDROOT
BRANCH   1  13
ATOM      8  C   UNL     1       2.571   7.686  18.797  0.00  0.00    +0.000 C 
ATOM      9  O   UNL     1       3.288   7.627  17.799  0.00  0.00    +0.000 OA
ATOM     10  N   UNL     1       1.646   8.697  18.966  0.00  0.00    +0.000 N 
ATOM     11  C   UNL     1       1.444   9.646  17.886  0.00  0.00    +0.000 C 
ATOM     12  C   UNL     1       1.807  11.052  18.347  0.00  0.00    +0.000 C 
ATOM     13  C   UNL     1       1.002  11.472  19.611  0.00  0.00    +0.000 C 
ATOM     14  C   UNL     1       1.213  10.358  20.699  0.00  0.00    +0.000 C 
ATOM     15  C   UNL     1       0.897   8.949  20.187  0.00  0.00    +0.000 C 
BRANCH   8  16
ATOM     16  O   UNL     1       2.604   6.783  19.817  0.00  0.00    +0.000 OA
BRANCH  16  18
ATOM     17  C   UNL     1       4.089   4.866  19.433  0.00  0.00    +0.000 C 
ATOM     18  C   UNL     1       2.638   5.367  19.483  0.00  0.00    +0.000 C 
ATOM     19  C   UNL     1       1.864   5.072  18.187  0.00  0.00    +0.000 C 
ATOM     20  C   UNL     1       1.926   4.620  20.625  0.00  0.00    +0.000 C 
ENDBRANCH  16  18
ENDBRANCH   8  16
BRANCH  13  21
ATOM     21  C   UNL     1       1.560  12.798  20.191  0.00  0.00    +0.000 C 
BRANCH  21  22
ATOM     22  C   UNL     1       2.304  13.599  19.205  0.00  0.00    +0.000 C 
ATOM     23  N   UNL     1       2.929  14.228  18.456  0.00  0.00    +0.000 NA
ENDBRANCH  21  22
ENDBRANCH  13  21
ENDBRANCH   1  13
BRANCH   5  24
ATOM     24  C   UNL     1      -3.685  13.333  21.478  0.00  0.00    +0.000 A 
ATOM     25  C   UNL     1      -3.328  12.433  22.484  0.00  0.00    +0.000 A 
ATOM     26  C   UNL     1      -3.569  12.782  23.807  0.00  0.00    +0.000 A 
ATOM     27  N   UNL     1      -4.123  13.950  24.193  0.00  0.00    +0.000 NA
ATOM     28  C   UNL     1      -4.464  14.794  23.202  0.00  0.00    +0.000 A 
ATOM     29 CL   UNL     1      -5.152  16.279  23.721  0.00  0.00    +0.000 Cl
ATOM     30  C   UNL     1      -4.280  14.538  21.858  0.00  0.00    +0.000 A 
ENDBRANCH   5  24
BRANCH   3  31
ATOM     31  C   UNL     1      -3.625  11.062  17.710  0.00  0.00    +0.000 C 
ATOM     32  N   UNL     1      -4.011  11.942  16.735  0.00  0.00    +0.000 N 
ATOM     33  O   UNL     1      -4.193   9.988  17.862  0.00  0.00    +0.000 OA
ATOM     34  H   UNL     1      -3.414  12.699  16.437  0.00  0.00    +0.000 HD
ATOM     35  H   UNL     1      -4.750  11.647  16.111  0.00  0.00    +0.000 HD
ENDBRANCH   3  31
TORSDOF 7
ENDMDL
