MODEL 1
REMARK VINA RESULT:      -8.4      0.000      0.000
REMARK  Name = 
REMARK  6 active torsions:
REMARK  status: ('A' for Active; 'I' for Inactive)
REMARK    1  A    between atoms: C_1  and  C_2
REMARK    2  A    between atoms: C_5  and  C_6
REMARK    3  A    between atoms: N_8  and  C_9
REMARK    4  A    between atoms: C_9  and  C_10
REMARK    5  A    between atoms: C_18  and  C_19
REMARK    6  A    between atoms: C_18  and  C_20
REMARK                            x       y       z     vdW  Elec       q    Type
REMARK                         _______ _______ _______ _____ _____    ______ ____
ROOT
ATOM      1  C   UNL     1       0.471   3.451  19.942  0.00  0.00    +0.000 C 
ATOM      2  C   UNL     1       1.930   3.173  19.651  0.00  0.00    +0.000 C 
ATOM      3  C   UNL     1       2.182   2.018  18.658  0.00  0.00    +0.000 C 
ATOM      4  C   UNL     1       3.676   2.208  18.319  0.00  0.00    +0.000 C 
ATOM      5  C   UNL     1       4.044   3.459  19.156  0.00  0.00    +0.000 C 
ATOM      6  O   UNL     1       4.082   3.010  20.523  0.00  0.00    +0.000 OA
ATOM      7  C   UNL     1       2.762   2.781  20.865  0.00  0.00    +0.000 C 
ATOM      8  O   UNL     1       2.379   2.322  21.925  0.00  0.00    +0.000 OA
ATOM      9  C   UNL     1       2.780   4.342  19.117  0.00  0.00    +0.000 C 
ATOM     10  C   UNL     1       2.847   5.559  20.067  0.00  0.00    +0.000 C 
ATOM     11  C   UNL     1       2.343   4.857  17.732  0.00  0.00    +0.000 C 
ENDROOT
BRANCH   5  12
ATOM     12  C   UNL     1       5.337   4.131  18.673  0.00  0.00    +0.000 C 
ATOM     13  O   UNL     1       6.064   4.773  19.425  0.00  0.00    +0.000 OA
ATOM     14  N   UNL     1       5.586   4.037  17.322  0.00  0.00    +0.000 N 
ATOM     15  H   UNL     1       5.151   3.272  16.813  0.00  0.00    +0.000 HD
BRANCH  14  16
ATOM     16  C   UNL     1       6.830   4.558  16.805  0.00  0.00    +0.000 C 
BRANCH  16  17
ATOM     17  C   UNL     1       6.842   4.473  15.329  0.00  0.00    +0.000 A 
ATOM     18  C   UNL     1       6.093   3.742  14.426  0.00  0.00    +0.000 A 
ATOM     19  C   UNL     1       6.528   4.132  13.140  0.00  0.00    +0.000 A 
ATOM     20  C   UNL     1       7.516   5.069  13.337  0.00  0.00    +0.000 A 
ATOM     21  O   UNL     1       7.715   5.280  14.663  0.00  0.00    +0.000 OA
ENDBRANCH  16  17
ENDBRANCH  14  16
ENDBRANCH   5  12
TORSDOF 3
ENDMDL
MODEL 2
REMARK VINA RESULT:      -8.3      1.969      2.707
REMARK  Name = 
REMARK  6 active torsions:
REMARK  status: ('A' for Active; 'I' for Inactive)
REMARK    1  A    between atoms: C_1  and  C_2
REMARK    2  A    between atoms: C_5  and  C_6
REMARK    3  A    between atoms: N_8  and  C_9
REMARK    4  A    between atoms: C_9  and  C_10
REMARK    5  A    between atoms: C_18  and  C_19
REMARK    6  A    between atoms: C_18  and  C_20
REMARK                            x       y       z     vdW  Elec       q    Type
REMARK                         _______ _______ _______ _____ _____    ______ ____
ROOT
ATOM      1  C   UNL     1       1.241   3.315  20.957  0.00  0.00    +0.000 C 
ATOM      2  C   UNL     1       2.312   2.985  19.942  0.00  0.00    +0.000 C 
ATOM      3  C   UNL     1       1.922   1.894  18.921  0.00  0.00    +0.000 C 
ATOM      4  C   UNL     1       3.038   2.031  17.863  0.00  0.00    +0.000 C 
ATOM      5  C   UNL     1       3.885   3.198  18.432  0.00  0.00    +0.000 C 
ATOM      6  O   UNL     1       4.585   2.649  19.565  0.00  0.00    +0.000 OA
ATOM      7  C   UNL     1       3.616   2.463  20.533  0.00  0.00    +0.000 C 
ATOM      8  O   UNL     1       3.797   1.949  21.621  0.00  0.00    +0.000 OA
ATOM      9  C   UNL     1       2.858   4.144  19.087  0.00  0.00    +0.000 C 
ATOM     10  C   UNL     1       3.504   5.284  19.906  0.00  0.00    +0.000 C 
ATOM     11  C   UNL     1       1.814   4.780  18.149  0.00  0.00    +0.000 C 
ENDROOT
BRANCH   5  12
ATOM     12  C   UNL     1       4.794   3.836  17.373  0.00  0.00    +0.000 C 
ATOM     13  O   UNL     1       4.454   3.954  16.200  0.00  0.00    +0.000 OA
ATOM     14  N   UNL     1       6.052   4.193  17.807  0.00  0.00    +0.000 N 
ATOM     15  H   UNL     1       6.178   4.361  18.801  0.00  0.00    +0.000 HD
BRANCH  14  16
ATOM     16  C   UNL     1       6.931   4.888  16.896  0.00  0.00    +0.000 C 
BRANCH  16  17
ATOM     17  C   UNL     1       7.397   6.152  17.507  0.00  0.00    +0.000 A 
ATOM     18  C   UNL     1       7.998   6.443  18.717  0.00  0.00    +0.000 A 
ATOM     19  C   UNL     1       8.263   7.831  18.706  0.00  0.00    +0.000 A 
ATOM     20  C   UNL     1       7.802   8.300  17.498  0.00  0.00    +0.000 A 
ATOM     21  O   UNL     1       7.273   7.288  16.765  0.00  0.00    +0.000 OA
ENDBRANCH  16  17
ENDBRANCH  14  16
ENDBRANCH   5  12
TORSDOF 3
ENDMDL
MODEL 3
REMARK VINA RESULT:      -8.1      1.631      2.436
REMARK  Name = 
REMARK  6 active torsions:
REMARK  status: ('A' for Active; 'I' for Inactive)
REMARK    1  A    between atoms: C_1  and  C_2
REMARK    2  A    between atoms: C_5  and  C_6
REMARK    3  A    between atoms: N_8  and  C_9
REMARK    4  A    between atoms: C_9  and  C_10
REMARK    5  A    between atoms: C_18  and  C_19
REMARK    6  A    between atoms: C_18  and  C_20
REMARK                            x       y       z     vdW  Elec       q    Type
REMARK                         _______ _______ _______ _____ _____    ______ ____
ROOT
ATOM      1  C   UNL     1       1.245   2.372  19.671  0.00  0.00    +0.000 C 
ATOM      2  C   UNL     1       2.242   3.422  19.232  0.00  0.00    +0.000 C 
ATOM      3  C   UNL     1       2.423   4.595  20.221  0.00  0.00    +0.000 C 
ATOM      4  C   UNL     1       3.696   5.278  19.677  0.00  0.00    +0.000 C 
ATOM      5  C   UNL     1       4.062   4.375  18.471  0.00  0.00    +0.000 C 
ATOM      6  O   UNL     1       3.082   4.673  17.458  0.00  0.00    +0.000 OA
ATOM      7  C   UNL     1       1.904   4.117  17.920  0.00  0.00    +0.000 C 
ATOM      8  O   UNL     1       0.819   4.215  17.376  0.00  0.00    +0.000 OA
ATOM      9  C   UNL     1       3.674   2.950  18.918  0.00  0.00    +0.000 C 
ATOM     10  C   UNL     1       3.759   1.904  17.784  0.00  0.00    +0.000 C 
ATOM     11  C   UNL     1       4.431   2.381  20.133  0.00  0.00    +0.000 C 
ENDROOT
BRANCH   5  12
ATOM     12  C   UNL     1       5.517   4.556  18.019  0.00  0.00    +0.000 C 
ATOM     13  O   UNL     1       6.465   4.417  18.786  0.00  0.00    +0.000 OA
ATOM     14  N   UNL     1       5.688   4.967  16.716  0.00  0.00    +0.000 N 
ATOM     15  H   UNL     1       4.937   4.777  16.058  0.00  0.00    +0.000 HD
BRANCH  14  16
ATOM     16  C   UNL     1       7.028   5.065  16.187  0.00  0.00    +0.000 C 
BRANCH  16  17
ATOM     17  C   UNL     1       7.026   4.753  14.741  0.00  0.00    +0.000 A 
ATOM     18  C   UNL     1       6.289   3.874  13.973  0.00  0.00    +0.000 A 
ATOM     19  C   UNL     1       6.700   4.072  12.636  0.00  0.00    +0.000 A 
ATOM     20  C   UNL     1       7.665   5.051  12.672  0.00  0.00    +0.000 A 
ATOM     21  O   UNL     1       7.871   5.469  13.947  0.00  0.00    +0.000 OA
ENDBRANCH  16  17
ENDBRANCH  14  16
ENDBRANCH   5  12
TORSDOF 3
ENDMDL
MODEL 4
REMARK VINA RESULT:      -7.8      1.073      1.073
REMARK  Name = 
REMARK  6 active torsions:
REMARK  status: ('A' for Active; 'I' for Inactive)
REMARK    1  A    between atoms: C_1  and  C_2
REMARK    2  A    between atoms: C_5  and  C_6
REMARK    3  A    between atoms: N_8  and  C_9
REMARK    4  A    between atoms: C_9  and  C_10
REMARK    5  A    between atoms: C_18  and  C_19
REMARK    6  A    between atoms: C_18  and  C_20
REMARK                            x       y       z     vdW  Elec       q    Type
REMARK                         _______ _______ _______ _____ _____    ______ ____
ROOT
ATOM      1  C   UNL     1       1.271   2.619  20.378  0.00  0.00    +0.000 C 
ATOM      2  C   UNL     1       2.554   2.800  19.598  0.00  0.00    +0.000 C 
ATOM      3  C   UNL     1       2.737   1.822  18.417  0.00  0.00    +0.000 C 
ATOM      4  C   UNL     1       3.913   2.462  17.650  0.00  0.00    +0.000 C 
ATOM      5  C   UNL     1       4.208   3.725  18.499  0.00  0.00    +0.000 C 
ATOM      6  O   UNL     1       4.837   3.241  19.701  0.00  0.00    +0.000 OA
ATOM      7  C   UNL     1       3.829   2.615  20.410  0.00  0.00    +0.000 C 
ATOM      8  O   UNL     1       3.975   2.012  21.457  0.00  0.00    +0.000 OA
ATOM      9  C   UNL     1       2.826   4.193  18.998  0.00  0.00    +0.000 C 
ATOM     10  C   UNL     1       2.899   5.328  20.044  0.00  0.00    +0.000 C 
ATOM     11  C   UNL     1       1.815   4.622  17.917  0.00  0.00    +0.000 C 
ENDROOT
BRANCH   5  12
ATOM     12  C   UNL     1       5.027   4.772  17.732  0.00  0.00    +0.000 C 
ATOM     13  O   UNL     1       5.502   5.763  18.279  0.00  0.00    +0.000 OA
ATOM     14  N   UNL     1       5.123   4.572  16.373  0.00  0.00    +0.000 N 
ATOM     15  H   UNL     1       4.992   3.627  16.025  0.00  0.00    +0.000 HD
BRANCH  14  16
ATOM     16  C   UNL     1       5.957   5.459  15.596  0.00  0.00    +0.000 C 
BRANCH  16  17
ATOM     17  C   UNL     1       6.323   4.818  14.314  0.00  0.00    +0.000 A 
ATOM     18  C   UNL     1       5.768   3.777  13.595  0.00  0.00    +0.000 A 
ATOM     19  C   UNL     1       6.531   3.660  12.412  0.00  0.00    +0.000 A 
ATOM     20  C   UNL     1       7.505   4.629  12.485  0.00  0.00    +0.000 A 
ATOM     21  O   UNL     1       7.387   5.335  13.639  0.00  0.00    +0.000 OA
ENDBRANCH  16  17
ENDBRANCH  14  16
ENDBRANCH   5  12
TORSDOF 3
ENDMDL
MODEL 5
REMARK VINA RESULT:      -7.7      1.225      1.530
REMARK  Name = 
REMARK  6 active torsions:
REMARK  status: ('A' for Active; 'I' for Inactive)
REMARK    1  A    between atoms: C_1  and  C_2
REMARK    2  A    between atoms: C_5  and  C_6
REMARK    3  A    between atoms: N_8  and  C_9
REMARK    4  A    between atoms: C_9  and  C_10
REMARK    5  A    between atoms: C_18  and  C_19
REMARK    6  A    between atoms: C_18  and  C_20
REMARK                            x       y       z     vdW  Elec       q    Type
REMARK                         _______ _______ _______ _____ _____    ______ ____
ROOT
ATOM      1  C   UNL     1       0.879   2.631  19.605  0.00  0.00    +0.000 C 
ATOM      2  C   UNL     1       2.268   3.231  19.610  0.00  0.00    +0.000 C 
ATOM      3  C   UNL     1       3.371   2.306  20.168  0.00  0.00    +0.000 C 
ATOM      4  C   UNL     1       4.656   3.042  19.734  0.00  0.00    +0.000 C 
ATOM      5  C   UNL     1       4.089   4.267  18.972  0.00  0.00    +0.000 C 
ATOM      6  O   UNL     1       3.552   5.136  19.987  0.00  0.00    +0.000 OA
ATOM      7  C   UNL     1       2.415   4.498  20.444  0.00  0.00    +0.000 C 
ATOM      8  O   UNL     1       1.712   4.882  21.360  0.00  0.00    +0.000 OA
ATOM      9  C   UNL     1       2.824   3.737  18.266  0.00  0.00    +0.000 C 
ATOM     10  C   UNL     1       1.974   4.848  17.608  0.00  0.00    +0.000 C 
ATOM     11  C   UNL     1       3.036   2.631  17.215  0.00  0.00    +0.000 C 
ENDROOT
BRANCH   5  12
ATOM     12  C   UNL     1       5.132   4.927  18.059  0.00  0.00    +0.000 C 
ATOM     13  O   UNL     1       5.029   6.088  17.675  0.00  0.00    +0.000 OA
ATOM     14  N   UNL     1       6.149   4.104  17.628  0.00  0.00    +0.000 N 
ATOM     15  H   UNL     1       6.362   3.284  18.188  0.00  0.00    +0.000 HD
BRANCH  14  16
ATOM     16  C   UNL     1       7.222   4.674  16.847  0.00  0.00    +0.000 C 
BRANCH  16  17
ATOM     17  C   UNL     1       6.938   4.515  15.404  0.00  0.00    +0.000 A 
ATOM     18  C   UNL     1       6.029   3.742  14.707  0.00  0.00    +0.000 A 
ATOM     19  C   UNL     1       6.195   4.066  13.343  0.00  0.00    +0.000 A 
ATOM     20  C   UNL     1       7.196   5.008  13.290  0.00  0.00    +0.000 A 
ATOM     21  O   UNL     1       7.654   5.285  14.538  0.00  0.00    +0.000 OA
ENDBRANCH  16  17
ENDBRANCH  14  16
ENDBRANCH   5  12
TORSDOF 3
ENDMDL
MODEL 6
REMARK VINA RESULT:      -7.7      2.403      3.580
REMARK  Name = 
REMARK  6 active torsions:
REMARK  status: ('A' for Active; 'I' for Inactive)
REMARK    1  A    between atoms: C_1  and  C_2
REMARK    2  A    between atoms: C_5  and  C_6
REMARK    3  A    between atoms: N_8  and  C_9
REMARK    4  A    between atoms: C_9  and  C_10
REMARK    5  A    between atoms: C_18  and  C_19
REMARK    6  A    between atoms: C_18  and  C_20
REMARK                            x       y       z     vdW  Elec       q    Type
REMARK                         _______ _______ _______ _____ _____    ______ ____
ROOT
ATOM      1  C   UNL     1       0.675   2.447  19.319  0.00  0.00    +0.000 C 
ATOM      2  C   UNL     1       1.726   3.521  19.146  0.00  0.00    +0.000 C 
ATOM      3  C   UNL     1       1.659   4.665  20.181  0.00  0.00    +0.000 C 
ATOM      4  C   UNL     1       3.010   5.378  19.959  0.00  0.00    +0.000 C 
ATOM      5  C   UNL     1       3.654   4.516  18.843  0.00  0.00    +0.000 C 
ATOM      6  O   UNL     1       2.925   4.834  17.642  0.00  0.00    +0.000 OA
ATOM      7  C   UNL     1       1.682   4.252  17.810  0.00  0.00    +0.000 C 
ATOM      8  O   UNL     1       0.747   4.354  17.038  0.00  0.00    +0.000 OA
ATOM      9  C   UNL     1       3.201   3.074  19.151  0.00  0.00    +0.000 C 
ATOM     10  C   UNL     1       3.558   2.064  18.038  0.00  0.00    +0.000 C 
ATOM     11  C   UNL     1       3.673   2.477  20.490  0.00  0.00    +0.000 C 
ENDROOT
BRANCH   5  12
ATOM     12  C   UNL     1       5.171   4.726  18.738  0.00  0.00    +0.000 C 
ATOM     13  O   UNL     1       5.914   4.649  19.712  0.00  0.00    +0.000 OA
ATOM     14  N   UNL     1       5.635   5.090  17.493  0.00  0.00    +0.000 N 
ATOM     15  H   UNL     1       5.066   4.849  16.687  0.00  0.00    +0.000 HD
BRANCH  14  16
ATOM     16  C   UNL     1       7.060   5.211  17.290  0.00  0.00    +0.000 C 
BRANCH  16  17
ATOM     17  C   UNL     1       7.522   6.549  17.717  0.00  0.00    +0.000 A 
ATOM     18  C   UNL     1       8.327   6.976  18.754  0.00  0.00    +0.000 A 
ATOM     19  C   UNL     1       8.454   8.376  18.610  0.00  0.00    +0.000 A 
ATOM     20  C   UNL     1       7.715   8.716  17.501  0.00  0.00    +0.000 A 
ATOM     21  O   UNL     1       7.143   7.613  16.954  0.00  0.00    +0.000 OA
ENDBRANCH  16  17
ENDBRANCH  14  16
ENDBRANCH   5  12
TORSDOF 3
ENDMDL
MODEL 7
REMARK VINA RESULT:      -7.3      2.757      3.796
REMARK  Name = 
REMARK  6 active torsions:
REMARK  status: ('A' for Active; 'I' for Inactive)
REMARK    1  A    between atoms: C_1  and  C_2
REMARK    2  A    between atoms: C_5  and  C_6
REMARK    3  A    between atoms: N_8  and  C_9
REMARK    4  A    between atoms: C_9  and  C_10
REMARK    5  A    between atoms: C_18  and  C_19
REMARK    6  A    between atoms: C_18  and  C_20
REMARK                            x       y       z     vdW  Elec       q    Type
REMARK                         _______ _______ _______ _____ _____    ______ ____
ROOT
ATOM      1  C   UNL     1       0.912   2.549  19.303  0.00  0.00    +0.000 C 
ATOM      2  C   UNL     1       2.009   3.549  19.009  0.00  0.00    +0.000 C 
ATOM      3  C   UNL     1       2.164   4.668  20.061  0.00  0.00    +0.000 C 
ATOM      4  C   UNL     1       3.524   5.287  19.673  0.00  0.00    +0.000 C 
ATOM      5  C   UNL     1       3.950   4.409  18.468  0.00  0.00    +0.000 C 
ATOM      6  O   UNL     1       3.094   4.809  17.380  0.00  0.00    +0.000 OA
ATOM      7  C   UNL     1       1.845   4.314  17.702  0.00  0.00    +0.000 C 
ATOM      8  O   UNL     1       0.827   4.503  17.063  0.00  0.00    +0.000 OA
ATOM      9  C   UNL     1       3.434   2.997  18.811  0.00  0.00    +0.000 C 
ATOM     10  C   UNL     1       3.566   1.991  17.645  0.00  0.00    +0.000 C 
ATOM     11  C   UNL     1       4.032   2.333  20.066  0.00  0.00    +0.000 C 
ENDROOT
BRANCH   5  12
ATOM     12  C   UNL     1       5.451   4.512  18.166  0.00  0.00    +0.000 C 
ATOM     13  O   UNL     1       5.953   4.023  17.159  0.00  0.00    +0.000 OA
ATOM     14  N   UNL     1       6.212   5.118  19.140  0.00  0.00    +0.000 N 
ATOM     15  H   UNL     1       5.744   5.756  19.777  0.00  0.00    +0.000 HD
BRANCH  14  16
ATOM     16  C   UNL     1       7.617   5.341  18.888  0.00  0.00    +0.000 C 
BRANCH  16  17
ATOM     17  C   UNL     1       7.840   6.740  18.463  0.00  0.00    +0.000 A 
ATOM     18  C   UNL     1       7.298   7.511  17.453  0.00  0.00    +0.000 A 
ATOM     19  C   UNL     1       7.867   8.798  17.586  0.00  0.00    +0.000 A 
ATOM     20  C   UNL     1       8.722   8.731  18.661  0.00  0.00    +0.000 A 
ATOM     21  O   UNL     1       8.713   7.484  19.199  0.00  0.00    +0.000 OA
ENDBRANCH  16  17
ENDBRANCH  14  16
ENDBRANCH   5  12
TORSDOF 3
ENDMDL
MODEL 8
REMARK VINA RESULT:      -7.3      1.474      2.097
REMARK  Name = 
REMARK  6 active torsions:
REMARK  status: ('A' for Active; 'I' for Inactive)
REMARK    1  A    between atoms: C_1  and  C_2
REMARK    2  A    between atoms: C_5  and  C_6
REMARK    3  A    between atoms: N_8  and  C_9
REMARK    4  A    between atoms: C_9  and  C_10
REMARK    5  A    between atoms: C_18  and  C_19
REMARK    6  A    between atoms: C_18  and  C_20
REMARK                            x       y       z     vdW  Elec       q    Type
REMARK                         _______ _______ _______ _____ _____    ______ ____
ROOT
ATOM      1  C   UNL     1       0.302   3.433  20.073  0.00  0.00    +0.000 C 
ATOM      2  C   UNL     1       1.734   3.062  19.755  0.00  0.00    +0.000 C 
ATOM      3  C   UNL     1       1.893   1.851  18.810  0.00  0.00    +0.000 C 
ATOM      4  C   UNL     1       3.384   1.942  18.421  0.00  0.00    +0.000 C 
ATOM      5  C   UNL     1       3.845   3.208  19.187  0.00  0.00    +0.000 C 
ATOM      6  O   UNL     1       3.899   2.820  20.573  0.00  0.00    +0.000 OA
ATOM      7  C   UNL     1       2.581   2.681  20.962  0.00  0.00    +0.000 C 
ATOM      8  O   UNL     1       2.206   2.293  22.053  0.00  0.00    +0.000 OA
ATOM      9  C   UNL     1       2.628   4.156  19.142  0.00  0.00    +0.000 C 
ATOM     10  C   UNL     1       2.790   5.410  20.031  0.00  0.00    +0.000 C 
ATOM     11  C   UNL     1       2.178   4.630  17.747  0.00  0.00    +0.000 C 
ENDROOT
BRANCH   5  12
ATOM     12  C   UNL     1       5.156   3.785  18.637  0.00  0.00    +0.000 C 
ATOM     13  O   UNL     1       6.037   4.227  19.368  0.00  0.00    +0.000 OA
ATOM     14  N   UNL     1       5.246   3.851  17.264  0.00  0.00    +0.000 N 
ATOM     15  H   UNL     1       4.662   3.221  16.722  0.00  0.00    +0.000 HD
BRANCH  14  16
ATOM     16  C   UNL     1       6.486   4.290  16.668  0.00  0.00    +0.000 C 
BRANCH  16  17
ATOM     17  C   UNL     1       6.718   5.718  16.975  0.00  0.00    +0.000 A 
ATOM     18  C   UNL     1       5.945   6.850  16.807  0.00  0.00    +0.000 A 
ATOM     19  C   UNL     1       6.688   7.923  17.348  0.00  0.00    +0.000 A 
ATOM     20  C   UNL     1       7.867   7.382  17.805  0.00  0.00    +0.000 A 
ATOM     21  O   UNL     1       7.895   6.043  17.580  0.00  0.00    +0.000 OA
ENDBRANCH  16  17
ENDBRANCH  14  16
ENDBRANCH   5  12
TORSDOF 3
ENDMDL
MODEL 9
REMARK VINA RESULT:      -7.3      2.570      3.515
REMARK  Name = 
REMARK  6 active torsions:
REMARK  status: ('A' for Active; 'I' for Inactive)
REMARK    1  A    between atoms: C_1  and  C_2
REMARK    2  A    between atoms: C_5  and  C_6
REMARK    3  A    between atoms: N_8  and  C_9
REMARK    4  A    between atoms: C_9  and  C_10
REMARK    5  A    between atoms: C_18  and  C_19
REMARK    6  A    between atoms: C_18  and  C_20
REMARK                            x       y       z     vdW  Elec       q    Type
REMARK                         _______ _______ _______ _____ _____    ______ ____
ROOT
ATOM      1  C   UNL     1       1.498   2.441  21.064  0.00  0.00    +0.000 C 
ATOM      2  C   UNL     1       1.805   3.271  19.836  0.00  0.00    +0.000 C 
ATOM      3  C   UNL     1       1.402   4.758  19.943  0.00  0.00    +0.000 C 
ATOM      4  C   UNL     1       2.129   5.375  18.730  0.00  0.00    +0.000 C 
ATOM      5  C   UNL     1       2.858   4.147  18.127  0.00  0.00    +0.000 C 
ATOM      6  O   UNL     1       1.827   3.353  17.510  0.00  0.00    +0.000 OA
ATOM      7  C   UNL     1       1.113   2.809  18.561  0.00  0.00    +0.000 C 
ATOM      8  O   UNL     1       0.110   2.128  18.452  0.00  0.00    +0.000 OA
ATOM      9  C   UNL     1       3.266   3.296  19.347  0.00  0.00    +0.000 C 
ATOM     10  C   UNL     1       3.829   1.907  18.970  0.00  0.00    +0.000 C 
ATOM     11  C   UNL     1       4.251   3.944  20.338  0.00  0.00    +0.000 C 
ENDROOT
BRANCH   5  12
ATOM     12  C   UNL     1       4.001   4.546  17.184  0.00  0.00    +0.000 C 
ATOM     13  O   UNL     1       4.440   3.786  16.326  0.00  0.00    +0.000 OA
ATOM     14  N   UNL     1       4.560   5.782  17.418  0.00  0.00    +0.000 N 
ATOM     15  H   UNL     1       3.994   6.472  17.904  0.00  0.00    +0.000 HD
BRANCH  14  16
ATOM     16  C   UNL     1       5.575   6.271  16.513  0.00  0.00    +0.000 C 
BRANCH  16  17
ATOM     17  C   UNL     1       6.666   6.916  17.275  0.00  0.00    +0.000 A 
ATOM     18  C   UNL     1       7.513   6.461  18.267  0.00  0.00    +0.000 A 
ATOM     19  C   UNL     1       8.390   7.528  18.561  0.00  0.00    +0.000 A 
ATOM     20  C   UNL     1       8.021   8.567  17.739  0.00  0.00    +0.000 A 
ATOM     21  O   UNL     1       6.973   8.204  16.955  0.00  0.00    +0.000 OA
ENDBRANCH  16  17
ENDBRANCH  14  16
ENDBRANCH   5  12
TORSDOF 3
ENDMDL
