MODEL 1
REMARK VINA RESULT:      -6.3      0.000      0.000
REMARK  Name = 
REMARK  7 active torsions:
REMARK  status: ('A' for Active; 'I' for Inactive)
REMARK    1  A    between atoms: C_1  and  C_2
REMARK    2  A    between atoms: C_2  and  C_3
REMARK    3  A    between atoms: C_2  and  C_4
REMARK    4  A    between atoms: C_7  and  C_8
REMARK    5  A    between atoms: N_9  and  N_10
REMARK    6  A    between atoms: C_11  and  C_13
REMARK    7  A    between atoms: C_13  and  C_14
REMARK                            x       y       z     vdW  Elec       q    Type
REMARK                         _______ _______ _______ _____ _____    ______ ____
ROOT
ATOM      1  C   UNL     1       3.724   5.703  18.488  0.00  0.00    +0.000 A 
ATOM      2  C   UNL     1       4.815   6.313  17.849  0.00  0.00    +0.000 A 
ATOM      3  C   UNL     1       5.541   5.634  16.868  0.00  0.00    +0.000 A 
ATOM      4  C   UNL     1       5.183   4.332  16.510  0.00  0.00    +0.000 A 
ATOM      5  C   UNL     1       4.114   3.703  17.146  0.00  0.00    +0.000 A 
ATOM      6  C   UNL     1       3.388   4.388  18.128  0.00  0.00    +0.000 A 
ENDROOT
BRANCH   1   8
ATOM      7  C   UNL     1       2.270   7.712  18.750  0.00  0.00    +0.000 C 
ATOM      8  C   UNL     1       2.903   6.520  19.474  0.00  0.00    +0.000 C 
ATOM      9  C   UNL     1       1.832   5.724  20.224  0.00  0.00    +0.000 C 
ENDBRANCH   1   8
BRANCH   4  10
ATOM     10  C   UNL     1       5.917   3.630  15.435  0.00  0.00    +0.000 C 
ATOM     11  N   UNL     1       5.824   4.027  14.208  0.00  0.00    +0.000 NA
BRANCH  11  12
ATOM     12  N   UNL     1       6.504   3.322  13.266  0.00  0.00    +0.000 N 
ATOM     13  C   UNL     1       5.826   2.942  12.112  0.00  0.00    +0.000 C 
ATOM     14  O   UNL     1       4.657   3.232  11.859  0.00  0.00    +0.000 OA
ATOM     15  H   UNL     1       7.451   3.012  13.467  0.00  0.00    +0.000 HD
BRANCH  13  16
ATOM     16  C   UNL     1       6.661   2.188  11.110  0.00  0.00    +0.000 C 
BRANCH  16  17
ATOM     17  C   UNL     1       6.329   0.768  11.110  0.00  0.00    +0.000 C 
ATOM     18  N   UNL     1       6.093  -0.369  11.152  0.00  0.00    +0.000 NA
ENDBRANCH  16  17
ENDBRANCH  13  16
ENDBRANCH  11  12
ENDBRANCH   4  10
TORSDOF 5
ENDMDL
MODEL 2
REMARK VINA RESULT:      -6.3      2.182      3.154
REMARK  Name = 
REMARK  7 active torsions:
REMARK  status: ('A' for Active; 'I' for Inactive)
REMARK    1  A    between atoms: C_1  and  C_2
REMARK    2  A    between atoms: C_2  and  C_3
REMARK    3  A    between atoms: C_2  and  C_4
REMARK    4  A    between atoms: C_7  and  C_8
REMARK    5  A    between atoms: N_9  and  N_10
REMARK    6  A    between atoms: C_11  and  C_13
REMARK    7  A    between atoms: C_13  and  C_14
REMARK                            x       y       z     vdW  Elec       q    Type
REMARK                         _______ _______ _______ _____ _____    ______ ____
ROOT
ATOM      1  C   UNL     1       2.442   3.925  19.216  0.00  0.00    +0.000 A 
ATOM      2  C   UNL     1       2.490   5.207  18.648  0.00  0.00    +0.000 A 
ATOM      3  C   UNL     1       3.401   5.507  17.633  0.00  0.00    +0.000 A 
ATOM      4  C   UNL     1       4.281   4.526  17.171  0.00  0.00    +0.000 A 
ATOM      5  C   UNL     1       4.262   3.251  17.736  0.00  0.00    +0.000 A 
ATOM      6  C   UNL     1       3.345   2.953  18.751  0.00  0.00    +0.000 A 
ENDROOT
BRANCH   1   8
ATOM      7  C   UNL     1       0.410   2.559  19.685  0.00  0.00    +0.000 C 
ATOM      8  C   UNL     1       1.364   3.619  20.244  0.00  0.00    +0.000 C 
ATOM      9  C   UNL     1       1.894   3.188  21.614  0.00  0.00    +0.000 C 
ENDBRANCH   1   8
BRANCH   4  10
ATOM     10  C   UNL     1       5.212   4.825  16.062  0.00  0.00    +0.000 C 
ATOM     11  N   UNL     1       5.773   3.867  15.399  0.00  0.00    +0.000 NA
BRANCH  11  12
ATOM     12  N   UNL     1       6.638   4.211  14.409  0.00  0.00    +0.000 N 
ATOM     13  C   UNL     1       6.237   4.020  13.090  0.00  0.00    +0.000 C 
ATOM     14  O   UNL     1       5.133   3.595  12.747  0.00  0.00    +0.000 OA
ATOM     15  H   UNL     1       7.578   4.506  14.653  0.00  0.00    +0.000 HD
BRANCH  13  16
ATOM     16  C   UNL     1       7.245   4.452  12.056  0.00  0.00    +0.000 C 
BRANCH  16  17
ATOM     17  C   UNL     1       8.231   5.361  12.629  0.00  0.00    +0.000 C 
ATOM     18  N   UNL     1       9.013   6.058  13.131  0.00  0.00    +0.000 NA
ENDBRANCH  16  17
ENDBRANCH  13  16
ENDBRANCH  11  12
ENDBRANCH   4  10
TORSDOF 5
ENDMDL
MODEL 3
REMARK VINA RESULT:      -6.1      3.749      7.328
REMARK  Name = 
REMARK  7 active torsions:
REMARK  status: ('A' for Active; 'I' for Inactive)
REMARK    1  A    between atoms: C_1  and  C_2
REMARK    2  A    between atoms: C_2  and  C_3
REMARK    3  A    between atoms: C_2  and  C_4
REMARK    4  A    between atoms: C_7  and  C_8
REMARK    5  A    between atoms: N_9  and  N_10
REMARK    6  A    between atoms: C_11  and  C_13
REMARK    7  A    between atoms: C_13  and  C_14
REMARK                            x       y       z     vdW  Elec       q    Type
REMARK                         _______ _______ _______ _____ _____    ______ ____
ROOT
ATOM      1  C   UNL     1       6.850   4.647  14.186  0.00  0.00    +0.000 A 
ATOM      2  C   UNL     1       7.412   4.875  15.453  0.00  0.00    +0.000 A 
ATOM      3  C   UNL     1       6.623   4.829  16.604  0.00  0.00    +0.000 A 
ATOM      4  C   UNL     1       5.257   4.553  16.505  0.00  0.00    +0.000 A 
ATOM      5  C   UNL     1       4.678   4.342  15.254  0.00  0.00    +0.000 A 
ATOM      6  C   UNL     1       5.472   4.387  14.103  0.00  0.00    +0.000 A 
ENDROOT
BRANCH   1   8
ATOM      7  C   UNL     1       7.046   3.930  11.807  0.00  0.00    +0.000 C 
ATOM      8  C   UNL     1       7.769   4.605  12.975  0.00  0.00    +0.000 C 
ATOM      9  C   UNL     1       8.317   5.969  12.544  0.00  0.00    +0.000 C 
ENDBRANCH   1   8
BRANCH   4  10
ATOM     10  C   UNL     1       4.430   4.453  17.726  0.00  0.00    +0.000 C 
ATOM     11  N   UNL     1       3.691   3.412  17.935  0.00  0.00    +0.000 NA
BRANCH  11  12
ATOM     12  N   UNL     1       2.935   3.395  19.065  0.00  0.00    +0.000 N 
ATOM     13  C   UNL     1       1.553   3.491  18.933  0.00  0.00    +0.000 C 
ATOM     14  O   UNL     1       0.954   3.551  17.859  0.00  0.00    +0.000 OA
ATOM     15  H   UNL     1       3.397   3.408  19.969  0.00  0.00    +0.000 HD
BRANCH  13  16
ATOM     16  C   UNL     1       0.791   3.437  20.232  0.00  0.00    +0.000 C 
BRANCH  16  17
ATOM     17  C   UNL     1       1.664   3.066  21.340  0.00  0.00    +0.000 C 
ATOM     18  N   UNL     1       2.318   2.751  22.247  0.00  0.00    +0.000 NA
ENDBRANCH  16  17
ENDBRANCH  13  16
ENDBRANCH  11  12
ENDBRANCH   4  10
TORSDOF 5
ENDMDL
MODEL 4
REMARK VINA RESULT:      -6.1      2.158      3.239
REMARK  Name = 
REMARK  7 active torsions:
REMARK  status: ('A' for Active; 'I' for Inactive)
REMARK    1  A    between atoms: C_1  and  C_2
REMARK    2  A    between atoms: C_2  and  C_3
REMARK    3  A    between atoms: C_2  and  C_4
REMARK    4  A    between atoms: C_7  and  C_8
REMARK    5  A    between atoms: N_9  and  N_10
REMARK    6  A    between atoms: C_11  and  C_13
REMARK    7  A    between atoms: C_13  and  C_14
REMARK                            x       y       z     vdW  Elec       q    Type
REMARK                         _______ _______ _______ _____ _____    ______ ____
ROOT
ATOM      1  C   UNL     1       2.592   4.165  19.465  0.00  0.00    +0.000 A 
ATOM      2  C   UNL     1       2.747   3.262  18.402  0.00  0.00    +0.000 A 
ATOM      3  C   UNL     1       3.653   3.519  17.370  0.00  0.00    +0.000 A 
ATOM      4  C   UNL     1       4.419   4.687  17.388  0.00  0.00    +0.000 A 
ATOM      5  C   UNL     1       4.265   5.606  18.426  0.00  0.00    +0.000 A 
ATOM      6  C   UNL     1       3.358   5.343  19.459  0.00  0.00    +0.000 A 
ENDROOT
BRANCH   1   8
ATOM      7  C   UNL     1       0.379   3.185  20.060  0.00  0.00    +0.000 C 
ATOM      8  C   UNL     1       1.670   3.791  20.615  0.00  0.00    +0.000 C 
ATOM      9  C   UNL     1       2.295   2.853  21.652  0.00  0.00    +0.000 C 
ENDBRANCH   1   8
BRANCH   4  10
ATOM     10  C   UNL     1       5.415   4.937  16.324  0.00  0.00    +0.000 C 
ATOM     11  N   UNL     1       5.359   4.289  15.207  0.00  0.00    +0.000 NA
BRANCH  11  12
ATOM     12  N   UNL     1       6.319   4.549  14.281  0.00  0.00    +0.000 N 
ATOM     13  C   UNL     1       6.179   3.992  13.013  0.00  0.00    +0.000 C 
ATOM     14  O   UNL     1       5.223   3.306  12.651  0.00  0.00    +0.000 OA
ATOM     15  H   UNL     1       7.152   5.058  14.561  0.00  0.00    +0.000 HD
BRANCH  13  16
ATOM     16  C   UNL     1       7.273   4.352  12.042  0.00  0.00    +0.000 C 
BRANCH  16  17
ATOM     17  C   UNL     1       8.201   5.314  12.626  0.00  0.00    +0.000 C 
ATOM     18  N   UNL     1       8.900   6.101  13.117  0.00  0.00    +0.000 NA
ENDBRANCH  16  17
ENDBRANCH  13  16
ENDBRANCH  11  12
ENDBRANCH   4  10
TORSDOF 5
ENDMDL
MODEL 5
REMARK VINA RESULT:      -6.0      2.500      3.331
REMARK  Name = 
REMARK  7 active torsions:
REMARK  status: ('A' for Active; 'I' for Inactive)
REMARK    1  A    between atoms: C_1  and  C_2
REMARK    2  A    between atoms: C_2  and  C_3
REMARK    3  A    between atoms: C_2  and  C_4
REMARK    4  A    between atoms: C_7  and  C_8
REMARK    5  A    between atoms: N_9  and  N_10
REMARK    6  A    between atoms: C_11  and  C_13
REMARK    7  A    between atoms: C_13  and  C_14
REMARK                            x       y       z     vdW  Elec       q    Type
REMARK                         _______ _______ _______ _____ _____    ______ ____
ROOT
ATOM      1  C   UNL     1       2.897   3.268  19.401  0.00  0.00    +0.000 A 
ATOM      2  C   UNL     1       2.389   3.678  18.157  0.00  0.00    +0.000 A 
ATOM      3  C   UNL     1       3.242   4.128  17.148  0.00  0.00    +0.000 A 
ATOM      4  C   UNL     1       4.621   4.175  17.368  0.00  0.00    +0.000 A 
ATOM      5  C   UNL     1       5.143   3.789  18.602  0.00  0.00    +0.000 A 
ATOM      6  C   UNL     1       4.284   3.336  19.611  0.00  0.00    +0.000 A 
ENDROOT
BRANCH   1   8
ATOM      7  C   UNL     1       2.211   3.320  21.796  0.00  0.00    +0.000 C 
ATOM      8  C   UNL     1       1.938   2.689  20.429  0.00  0.00    +0.000 C 
ATOM      9  C   UNL     1       0.457   2.825  20.066  0.00  0.00    +0.000 C 
ENDBRANCH   1   8
BRANCH   4  10
ATOM     10  C   UNL     1       5.531   4.603  16.284  0.00  0.00    +0.000 C 
ATOM     11  N   UNL     1       5.704   3.859  15.240  0.00  0.00    +0.000 NA
BRANCH  11  12
ATOM     12  N   UNL     1       6.574   4.299  14.293  0.00  0.00    +0.000 N 
ATOM     13  C   UNL     1       6.335   3.949  12.968  0.00  0.00    +0.000 C 
ATOM     14  O   UNL     1       5.366   3.297  12.579  0.00  0.00    +0.000 OA
ATOM     15  H   UNL     1       7.417   4.786  14.583  0.00  0.00    +0.000 HD
BRANCH  13  16
ATOM     16  C   UNL     1       7.331   4.500  11.981  0.00  0.00    +0.000 C 
BRANCH  16  17
ATOM     17  C   UNL     1       8.272   5.405  12.631  0.00  0.00    +0.000 C 
ATOM     18  N   UNL     1       8.990   6.126  13.191  0.00  0.00    +0.000 NA
ENDBRANCH  16  17
ENDBRANCH  13  16
ENDBRANCH  11  12
ENDBRANCH   4  10
TORSDOF 5
ENDMDL
MODEL 6
REMARK VINA RESULT:      -6.0      3.125      5.066
REMARK  Name = 
REMARK  7 active torsions:
REMARK  status: ('A' for Active; 'I' for Inactive)
REMARK    1  A    between atoms: C_1  and  C_2
REMARK    2  A    between atoms: C_2  and  C_3
REMARK    3  A    between atoms: C_2  and  C_4
REMARK    4  A    between atoms: C_7  and  C_8
REMARK    5  A    between atoms: N_9  and  N_10
REMARK    6  A    between atoms: C_11  and  C_13
REMARK    7  A    between atoms: C_13  and  C_14
REMARK                            x       y       z     vdW  Elec       q    Type
REMARK                         _______ _______ _______ _____ _____    ______ ____
ROOT
ATOM      1  C   UNL     1       0.953   9.171  19.994  0.00  0.00    +0.000 A 
ATOM      2  C   UNL     1       1.559   7.999  20.472  0.00  0.00    +0.000 A 
ATOM      3  C   UNL     1       2.434   7.265  19.668  0.00  0.00    +0.000 A 
ATOM      4  C   UNL     1       2.716   7.696  18.369  0.00  0.00    +0.000 A 
ATOM      5  C   UNL     1       2.109   8.848  17.869  0.00  0.00    +0.000 A 
ATOM      6  C   UNL     1       1.235   9.581  18.680  0.00  0.00    +0.000 A 
ENDROOT
BRANCH   1   8
ATOM      7  C   UNL     1      -0.045   9.251  22.277  0.00  0.00    +0.000 C 
ATOM      8  C   UNL     1       0.091   9.989  20.943  0.00  0.00    +0.000 C 
ATOM      9  C   UNL     1       0.582  11.421  21.174  0.00  0.00    +0.000 C 
ENDBRANCH   1   8
BRANCH   4  10
ATOM     10  C   UNL     1       3.680   6.950  17.533  0.00  0.00    +0.000 C 
ATOM     11  N   UNL     1       4.443   6.047  18.058  0.00  0.00    +0.000 NA
BRANCH  11  12
ATOM     12  N   UNL     1       5.325   5.416  17.238  0.00  0.00    +0.000 N 
ATOM     13  C   UNL     1       4.912   4.249  16.602  0.00  0.00    +0.000 C 
ATOM     14  O   UNL     1       3.786   3.761  16.695  0.00  0.00    +0.000 OA
ATOM     15  H   UNL     1       6.281   5.754  17.185  0.00  0.00    +0.000 HD
BRANCH  13  16
ATOM     16  C   UNL     1       5.941   3.629  15.693  0.00  0.00    +0.000 C 
BRANCH  16  17
ATOM     17  C   UNL     1       6.820   4.644  15.122  0.00  0.00    +0.000 C 
ATOM     18  N   UNL     1       7.489   5.453  14.626  0.00  0.00    +0.000 NA
ENDBRANCH  16  17
ENDBRANCH  13  16
ENDBRANCH  11  12
ENDBRANCH   4  10
TORSDOF 5
ENDMDL
MODEL 7
REMARK VINA RESULT:      -6.0      1.101      1.128
REMARK  Name = 
REMARK  7 active torsions:
REMARK  status: ('A' for Active; 'I' for Inactive)
REMARK    1  A    between atoms: C_1  and  C_2
REMARK    2  A    between atoms: C_2  and  C_3
REMARK    3  A    between atoms: C_2  and  C_4
REMARK    4  A    between atoms: C_7  and  C_8
REMARK    5  A    between atoms: N_9  and  N_10
REMARK    6  A    between atoms: C_11  and  C_13
REMARK    7  A    between atoms: C_13  and  C_14
REMARK                            x       y       z     vdW  Elec       q    Type
REMARK                         _______ _______ _______ _____ _____    ______ ____
ROOT
ATOM      1  C   UNL     1       3.826   6.299  17.759  0.00  0.00    +0.000 A 
ATOM      2  C   UNL     1       4.682   6.804  16.767  0.00  0.00    +0.000 A 
ATOM      3  C   UNL     1       5.296   5.950  15.849  0.00  0.00    +0.000 A 
ATOM      4  C   UNL     1       5.063   4.575  15.909  0.00  0.00    +0.000 A 
ATOM      5  C   UNL     1       4.231   4.051  16.899  0.00  0.00    +0.000 A 
ATOM      6  C   UNL     1       3.615   4.911  17.816  0.00  0.00    +0.000 A 
ENDROOT
BRANCH   1   8
ATOM      7  C   UNL     1       2.280   8.253  17.821  0.00  0.00    +0.000 C 
ATOM      8  C   UNL     1       3.101   7.278  18.669  0.00  0.00    +0.000 C 
ATOM      9  C   UNL     1       2.216   6.623  19.733  0.00  0.00    +0.000 C 
ENDBRANCH   1   8
BRANCH   4  10
ATOM     10  C   UNL     1       5.671   3.674  14.907  0.00  0.00    +0.000 C 
ATOM     11  N   UNL     1       5.369   3.785  13.655  0.00  0.00    +0.000 NA
BRANCH  11  12
ATOM     12  N   UNL     1       5.945   2.910  12.789  0.00  0.00    +0.000 N 
ATOM     13  C   UNL     1       6.933   3.385  11.933  0.00  0.00    +0.000 C 
ATOM     14  O   UNL     1       7.358   4.541  11.926  0.00  0.00    +0.000 OA
ATOM     15  H   UNL     1       5.578   1.965  12.724  0.00  0.00    +0.000 HD
BRANCH  13  16
ATOM     16  C   UNL     1       7.536   2.344  11.026  0.00  0.00    +0.000 C 
BRANCH  16  17
ATOM     17  C   UNL     1       6.764   1.107  11.058  0.00  0.00    +0.000 C 
ATOM     18  N   UNL     1       6.162   0.113  11.034  0.00  0.00    +0.000 NA
ENDBRANCH  16  17
ENDBRANCH  13  16
ENDBRANCH  11  12
ENDBRANCH   4  10
TORSDOF 5
ENDMDL
MODEL 8
REMARK VINA RESULT:      -6.0      2.741      4.675
REMARK  Name = 
REMARK  7 active torsions:
REMARK  status: ('A' for Active; 'I' for Inactive)
REMARK    1  A    between atoms: C_1  and  C_2
REMARK    2  A    between atoms: C_2  and  C_3
REMARK    3  A    between atoms: C_2  and  C_4
REMARK    4  A    between atoms: C_7  and  C_8
REMARK    5  A    between atoms: N_9  and  N_10
REMARK    6  A    between atoms: C_11  and  C_13
REMARK    7  A    between atoms: C_13  and  C_14
REMARK                            x       y       z     vdW  Elec       q    Type
REMARK                         _______ _______ _______ _____ _____    ______ ____
ROOT
ATOM      1  C   UNL     1       1.020   9.298  19.719  0.00  0.00    +0.000 A 
ATOM      2  C   UNL     1       1.402   8.204  20.514  0.00  0.00    +0.000 A 
ATOM      3  C   UNL     1       2.168   7.166  19.982  0.00  0.00    +0.000 A 
ATOM      4  C   UNL     1       2.566   7.205  18.643  0.00  0.00    +0.000 A 
ATOM      5  C   UNL     1       2.182   8.273  17.833  0.00  0.00    +0.000 A 
ATOM      6  C   UNL     1       1.415   9.314  18.371  0.00  0.00    +0.000 A 
ENDROOT
BRANCH   1   8
ATOM      7  C   UNL     1      -0.939  10.825  19.517  0.00  0.00    +0.000 C 
ATOM      8  C   UNL     1       0.276  10.452  20.371  0.00  0.00    +0.000 C 
ATOM      9  C   UNL     1      -0.151  10.198  21.819  0.00  0.00    +0.000 C 
ENDBRANCH   1   8
BRANCH   4  10
ATOM     10  C   UNL     1       3.420   6.132  18.091  0.00  0.00    +0.000 C 
ATOM     11  N   UNL     1       4.638   6.381  17.733  0.00  0.00    +0.000 NA
BRANCH  11  12
ATOM     12  N   UNL     1       5.361   5.356  17.210  0.00  0.00    +0.000 N 
ATOM     13  C   UNL     1       5.694   5.408  15.860  0.00  0.00    +0.000 C 
ATOM     14  O   UNL     1       5.414   6.340  15.105  0.00  0.00    +0.000 OA
ATOM     15  H   UNL     1       5.556   4.543  17.786  0.00  0.00    +0.000 HD
BRANCH  13  16
ATOM     16  C   UNL     1       6.517   4.246  15.368  0.00  0.00    +0.000 C 
BRANCH  16  17
ATOM     17  C   UNL     1       6.205   3.930  13.979  0.00  0.00    +0.000 C 
ATOM     18  N   UNL     1       6.007   3.687  12.860  0.00  0.00    +0.000 NA
ENDBRANCH  16  17
ENDBRANCH  13  16
ENDBRANCH  11  12
ENDBRANCH   4  10
TORSDOF 5
ENDMDL
MODEL 9
REMARK VINA RESULT:      -5.9      5.122      6.455
REMARK  Name = 
REMARK  7 active torsions:
REMARK  status: ('A' for Active; 'I' for Inactive)
REMARK    1  A    between atoms: C_1  and  C_2
REMARK    2  A    between atoms: C_2  and  C_3
REMARK    3  A    between atoms: C_2  and  C_4
REMARK    4  A    between atoms: C_7  and  C_8
REMARK    5  A    between atoms: N_9  and  N_10
REMARK    6  A    between atoms: C_11  and  C_13
REMARK    7  A    between atoms: C_13  and  C_14
REMARK                            x       y       z     vdW  Elec       q    Type
REMARK                         _______ _______ _______ _____ _____    ______ ____
ROOT
ATOM      1  C   UNL     1       0.852  10.060  19.310  0.00  0.00    +0.000 A 
ATOM      2  C   UNL     1       1.495   9.542  18.175  0.00  0.00    +0.000 A 
ATOM      3  C   UNL     1       2.135   8.302  18.218  0.00  0.00    +0.000 A 
ATOM      4  C   UNL     1       2.141   7.559  19.401  0.00  0.00    +0.000 A 
ATOM      5  C   UNL     1       1.523   8.065  20.545  0.00  0.00    +0.000 A 
ATOM      6  C   UNL     1       0.881   9.308  20.497  0.00  0.00    +0.000 A 
ENDROOT
BRANCH   1   8
ATOM      7  C   UNL     1       1.033  12.481  18.746  0.00  0.00    +0.000 C 
ATOM      8  C   UNL     1       0.081  11.365  19.184  0.00  0.00    +0.000 C 
ATOM      9  C   UNL     1      -1.129  11.301  18.248  0.00  0.00    +0.000 C 
ENDBRANCH   1   8
BRANCH   4  10
ATOM     10  C   UNL     1       2.774   6.223  19.437  0.00  0.00    +0.000 C 
ATOM     11  N   UNL     1       2.073   5.159  19.212  0.00  0.00    +0.000 NA
BRANCH  11  12
ATOM     12  N   UNL     1       2.711   3.961  19.285  0.00  0.00    +0.000 N 
ATOM     13  C   UNL     1       2.614   3.098  18.197  0.00  0.00    +0.000 C 
ATOM     14  O   UNL     1       2.022   3.355  17.149  0.00  0.00    +0.000 OA
ATOM     15  H   UNL     1       3.156   3.689  20.156  0.00  0.00    +0.000 HD
BRANCH  13  16
ATOM     16  C   UNL     1       3.372   1.804  18.350  0.00  0.00    +0.000 C 
BRANCH  16  17
ATOM     17  C   UNL     1       4.257   1.846  19.508  0.00  0.00    +0.000 C 
ATOM     18  N   UNL     1       5.001   1.865  20.400  0.00  0.00    +0.000 NA
ENDBRANCH  16  17
ENDBRANCH  13  16
ENDBRANCH  11  12
ENDBRANCH   4  10
TORSDOF 5
ENDMDL
