MODEL 1
REMARK VINA RESULT:      -7.3      0.000      0.000
REMARK  Name = 
REMARK  5 active torsions:
REMARK  status: ('A' for Active; 'I' for Inactive)
REMARK    1  A    between atoms: O_1  and  C_2
REMARK    2  A    between atoms: C_2  and  C_3
REMARK    3  A    between atoms: C_5  and  C_6
REMARK    4  A    between atoms: C_16  and  O_17
REMARK    5  A    between atoms: C_18  and  O_19
REMARK                            x       y       z     vdW  Elec       q    Type
REMARK                         _______ _______ _______ _____ _____    ______ ____
ROOT
ATOM      1  C   UNL     1       1.689   2.367  20.178  0.00  0.00    +0.000 C 
ATOM      2  O   UNL     1       3.033   2.264  19.666  0.00  0.00    +0.000 OA
ATOM      3  C   UNL     1       3.594   3.601  19.553  0.00  0.00    +0.000 C 
ATOM      4  C   UNL     1       2.490   4.596  19.936  0.00  0.00    +0.000 C 
ATOM      5  C   UNL     1       1.593   3.746  20.823  0.00  0.00    +0.000 C 
ENDROOT
BRANCH   3   6
ATOM      6  C   UNL     1       4.170   3.858  18.195  0.00  0.00    +0.000 A 
ATOM      7  N   UNL     1       3.419   3.791  17.074  0.00  0.00    +0.000 NA
ATOM      8  N   UNL     1       4.292   4.081  16.087  0.00  0.00    +0.000 N 
ATOM      9  C   UNL     1       5.560   4.315  16.522  0.00  0.00    +0.000 A 
ATOM     10  C   UNL     1       6.746   4.623  15.906  0.00  0.00    +0.000 A 
ATOM     11 CL   UNL     1       6.915   4.790  14.218  0.00  0.00    +0.000 Cl
ATOM     12  N   UNL     1       7.850   4.794  16.651  0.00  0.00    +0.000 NA
ATOM     13  C   UNL     1       7.719   4.652  17.982  0.00  0.00    +0.000 A 
ATOM     14  N   UNL     1       6.607   4.349  18.676  0.00  0.00    +0.000 NA
ATOM     15  C   UNL     1       5.517   4.184  17.894  0.00  0.00    +0.000 A 
ATOM     16  H   UNL     1       3.950   4.100  15.131  0.00  0.00    +0.000 HD
ENDBRANCH   3   6
BRANCH   4  17
ATOM     17  O   UNL     1       2.990   5.731  20.648  0.00  0.00    +0.000 OA
ATOM     18  H   UNL     1       3.843   5.440  21.037  0.00  0.00    +0.000 HD
ENDBRANCH   4  17
BRANCH   5  19
ATOM     19  O   UNL     1       2.170   3.746  22.149  0.00  0.00    +0.000 OA
ATOM     20  H   UNL     1       2.554   2.863  22.312  0.00  0.00    +0.000 HD
ENDBRANCH   5  19
BRANCH   1  21
ATOM     21  C   UNL     1       0.687   2.130  19.045  0.00  0.00    +0.000 C 
BRANCH  21  22
ATOM     22  O   UNL     1       1.365   1.741  17.857  0.00  0.00    +0.000 OA
ATOM     23  H   UNL     1       0.683   1.466  17.218  0.00  0.00    +0.000 HD
ENDBRANCH  21  22
ENDBRANCH   1  21
TORSDOF 5
ENDMDL
MODEL 2
REMARK VINA RESULT:      -7.0      2.036      3.235
REMARK  Name = 
REMARK  5 active torsions:
REMARK  status: ('A' for Active; 'I' for Inactive)
REMARK    1  A    between atoms: O_1  and  C_2
REMARK    2  A    between atoms: C_2  and  C_3
REMARK    3  A    between atoms: C_5  and  C_6
REMARK    4  A    between atoms: C_16  and  O_17
REMARK    5  A    between atoms: C_18  and  O_19
REMARK                            x       y       z     vdW  Elec       q    Type
REMARK                         _______ _______ _______ _____ _____    ______ ____
ROOT
ATOM      1  C   UNL     1       1.360   3.378  19.816  0.00  0.00    +0.000 C 
ATOM      2  O   UNL     1       2.104   4.239  18.930  0.00  0.00    +0.000 OA
ATOM      3  C   UNL     1       3.258   3.510  18.428  0.00  0.00    +0.000 C 
ATOM      4  C   UNL     1       3.272   2.141  19.121  0.00  0.00    +0.000 C 
ATOM      5  C   UNL     1       1.809   1.957  19.489  0.00  0.00    +0.000 C 
ENDROOT
BRANCH   3   6
ATOM      6  C   UNL     1       4.532   4.275  18.611  0.00  0.00    +0.000 A 
ATOM      7  N   UNL     1       5.374   4.028  19.638  0.00  0.00    +0.000 NA
ATOM      8  N   UNL     1       6.378   4.910  19.447  0.00  0.00    +0.000 N 
ATOM      9  C   UNL     1       6.209   5.711  18.361  0.00  0.00    +0.000 A 
ATOM     10  C   UNL     1       6.934   6.730  17.797  0.00  0.00    +0.000 A 
ATOM     11 CL   UNL     1       8.408   7.302  18.433  0.00  0.00    +0.000 Cl
ATOM     12  N   UNL     1       6.471   7.333  16.690  0.00  0.00    +0.000 NA
ATOM     13  C   UNL     1       5.303   6.889  16.193  0.00  0.00    +0.000 A 
ATOM     14  N   UNL     1       4.521   5.905  16.673  0.00  0.00    +0.000 NA
ATOM     15  C   UNL     1       5.017   5.323  17.787  0.00  0.00    +0.000 A 
ATOM     16  H   UNL     1       7.151   4.909  20.105  0.00  0.00    +0.000 HD
ENDBRANCH   3   6
BRANCH   4  17
ATOM     17  O   UNL     1       3.724   1.091  18.262  0.00  0.00    +0.000 OA
ATOM     18  H   UNL     1       4.133   1.541  17.492  0.00  0.00    +0.000 HD
ENDBRANCH   4  17
BRANCH   5  19
ATOM     19  O   UNL     1       1.128   1.451  18.316  0.00  0.00    +0.000 OA
ATOM     20  H   UNL     1       0.859   2.213  17.770  0.00  0.00    +0.000 HD
ENDBRANCH   5  19
BRANCH   1  21
ATOM     21  C   UNL     1       1.607   3.797  21.268  0.00  0.00    +0.000 C 
BRANCH  21  22
ATOM     22  O   UNL     1       1.613   2.657  22.118  0.00  0.00    +0.000 OA
ATOM     23  H   UNL     1       2.212   2.859  22.860  0.00  0.00    +0.000 HD
ENDBRANCH  21  22
ENDBRANCH   1  21
TORSDOF 5
ENDMDL
MODEL 3
REMARK VINA RESULT:      -6.9      1.888      2.956
REMARK  Name = 
REMARK  5 active torsions:
REMARK  status: ('A' for Active; 'I' for Inactive)
REMARK    1  A    between atoms: O_1  and  C_2
REMARK    2  A    between atoms: C_2  and  C_3
REMARK    3  A    between atoms: C_5  and  C_6
REMARK    4  A    between atoms: C_16  and  O_17
REMARK    5  A    between atoms: C_18  and  O_19
REMARK                            x       y       z     vdW  Elec       q    Type
REMARK                         _______ _______ _______ _____ _____    ______ ____
ROOT
ATOM      1  C   UNL     1       1.352   3.388  19.856  0.00  0.00    +0.000 C 
ATOM      2  O   UNL     1       1.691   4.377  18.864  0.00  0.00    +0.000 OA
ATOM      3  C   UNL     1       2.865   3.925  18.135  0.00  0.00    +0.000 C 
ATOM      4  C   UNL     1       3.331   2.614  18.782  0.00  0.00    +0.000 C 
ATOM      5  C   UNL     1       2.048   2.103  19.418  0.00  0.00    +0.000 C 
ENDROOT
BRANCH   3   6
ATOM      6  C   UNL     1       3.937   4.970  18.088  0.00  0.00    +0.000 A 
ATOM      7  N   UNL     1       3.886   6.083  18.850  0.00  0.00    +0.000 NA
ATOM      8  N   UNL     1       5.012   6.750  18.520  0.00  0.00    +0.000 N 
ATOM      9  C   UNL     1       5.768   6.122  17.578  0.00  0.00    +0.000 A 
ATOM     10  C   UNL     1       6.947   6.415  16.941  0.00  0.00    +0.000 A 
ATOM     11 CL   UNL     1       7.843   7.837  17.224  0.00  0.00    +0.000 Cl
ATOM     12  N   UNL     1       7.435   5.555  16.033  0.00  0.00    +0.000 NA
ATOM     13  C   UNL     1       6.723   4.437  15.801  0.00  0.00    +0.000 A 
ATOM     14  N   UNL     1       5.561   4.066  16.368  0.00  0.00    +0.000 NA
ATOM     15  C   UNL     1       5.100   4.954  17.276  0.00  0.00    +0.000 A 
ATOM     16  H   UNL     1       5.202   7.634  18.980  0.00  0.00    +0.000 HD
ENDBRANCH   3   6
BRANCH   4  17
ATOM     17  O   UNL     1       3.841   1.678  17.829  0.00  0.00    +0.000 OA
ATOM     18  H   UNL     1       3.167   1.634  17.118  0.00  0.00    +0.000 HD
ENDBRANCH   4  17
BRANCH   5  19
ATOM     19  O   UNL     1       1.293   1.425  18.387  0.00  0.00    +0.000 OA
ATOM     20  H   UNL     1       0.478   1.072  18.791  0.00  0.00    +0.000 HD
ENDBRANCH   5  19
BRANCH   1  21
ATOM     21  C   UNL     1       1.767   3.887  21.243  0.00  0.00    +0.000 C 
BRANCH  21  22
ATOM     22  O   UNL     1       2.211   5.236  21.173  0.00  0.00    +0.000 OA
ATOM     23  H   UNL     1       3.097   5.265  21.577  0.00  0.00    +0.000 HD
ENDBRANCH  21  22
ENDBRANCH   1  21
TORSDOF 5
ENDMDL
MODEL 4
REMARK VINA RESULT:      -6.8      3.676      5.748
REMARK  Name = 
REMARK  5 active torsions:
REMARK  status: ('A' for Active; 'I' for Inactive)
REMARK    1  A    between atoms: O_1  and  C_2
REMARK    2  A    between atoms: C_2  and  C_3
REMARK    3  A    between atoms: C_5  and  C_6
REMARK    4  A    between atoms: C_16  and  O_17
REMARK    5  A    between atoms: C_18  and  O_19
REMARK                            x       y       z     vdW  Elec       q    Type
REMARK                         _______ _______ _______ _____ _____    ______ ____
ROOT
ATOM      1  C   UNL     1       7.662   5.362  17.739  0.00  0.00    +0.000 C 
ATOM      2  O   UNL     1       6.697   4.291  17.714  0.00  0.00    +0.000 OA
ATOM      3  C   UNL     1       5.506   4.749  17.017  0.00  0.00    +0.000 C 
ATOM      4  C   UNL     1       5.720   6.229  16.669  0.00  0.00    +0.000 C 
ATOM      5  C   UNL     1       7.237   6.331  16.640  0.00  0.00    +0.000 C 
ENDROOT
BRANCH   3   6
ATOM      6  C   UNL     1       4.260   4.507  17.810  0.00  0.00    +0.000 A 
ATOM      7  N   UNL     1       3.092   5.117  17.513  0.00  0.00    +0.000 NA
ATOM      8  N   UNL     1       2.237   4.642  18.442  0.00  0.00    +0.000 N 
ATOM      9  C   UNL     1       2.805   3.772  19.321  0.00  0.00    +0.000 A 
ATOM     10  C   UNL     1       2.350   3.068  20.407  0.00  0.00    +0.000 A 
ATOM     11 CL   UNL     1       0.747   3.153  20.980  0.00  0.00    +0.000 Cl
ATOM     12  N   UNL     1       3.198   2.274  21.079  0.00  0.00    +0.000 NA
ATOM     13  C   UNL     1       4.467   2.215  20.634  0.00  0.00    +0.000 A 
ATOM     14  N   UNL     1       5.006   2.866  19.588  0.00  0.00    +0.000 NA
ATOM     15  C   UNL     1       4.124   3.656  18.937  0.00  0.00    +0.000 A 
ATOM     16  H   UNL     1       1.272   4.957  18.417  0.00  0.00    +0.000 HD
ENDBRANCH   3   6
BRANCH   4  17
ATOM     17  O   UNL     1       5.156   6.586  15.404  0.00  0.00    +0.000 OA
ATOM     18  H   UNL     1       4.716   5.773  15.075  0.00  0.00    +0.000 HD
ENDBRANCH   4  17
BRANCH   5  19
ATOM     19  O   UNL     1       7.677   5.873  15.340  0.00  0.00    +0.000 OA
ATOM     20  H   UNL     1       8.653   5.846  15.343  0.00  0.00    +0.000 HD
ENDBRANCH   5  19
BRANCH   1  21
ATOM     21  C   UNL     1       7.710   5.980  19.139  0.00  0.00    +0.000 C 
BRANCH  21  22
ATOM     22  O   UNL     1       7.109   5.108  20.087  0.00  0.00    +0.000 OA
ATOM     23  H   UNL     1       6.146   5.162  19.953  0.00  0.00    +0.000 HD
ENDBRANCH  21  22
ENDBRANCH   1  21
TORSDOF 5
ENDMDL
MODEL 5
REMARK VINA RESULT:      -6.8      3.871      5.910
REMARK  Name = 
REMARK  5 active torsions:
REMARK  status: ('A' for Active; 'I' for Inactive)
REMARK    1  A    between atoms: O_1  and  C_2
REMARK    2  A    between atoms: C_2  and  C_3
REMARK    3  A    between atoms: C_5  and  C_6
REMARK    4  A    between atoms: C_16  and  O_17
REMARK    5  A    between atoms: C_18  and  O_19
REMARK                            x       y       z     vdW  Elec       q    Type
REMARK                         _______ _______ _______ _____ _____    ______ ____
ROOT
ATOM      1  C   UNL     1       5.814   5.476  15.676  0.00  0.00    +0.000 C 
ATOM      2  O   UNL     1       4.971   5.792  16.802  0.00  0.00    +0.000 OA
ATOM      3  C   UNL     1       5.649   5.385  18.023  0.00  0.00    +0.000 C 
ATOM      4  C   UNL     1       6.955   4.692  17.613  0.00  0.00    +0.000 C 
ATOM      5  C   UNL     1       7.219   5.298  16.244  0.00  0.00    +0.000 C 
ENDROOT
BRANCH   3   6
ATOM      6  C   UNL     1       4.779   4.532  18.893  0.00  0.00    +0.000 A 
ATOM      7  N   UNL     1       5.083   3.244  19.167  0.00  0.00    +0.000 NA
ATOM      8  N   UNL     1       4.072   2.840  19.964  0.00  0.00    +0.000 N 
ATOM      9  C   UNL     1       3.137   3.799  20.199  0.00  0.00    +0.000 A 
ATOM     10  C   UNL     1       1.965   3.845  20.912  0.00  0.00    +0.000 A 
ATOM     11 CL   UNL     1       1.332   2.516  21.770  0.00  0.00    +0.000 Cl
ATOM     12  N   UNL     1       1.256   4.985  20.938  0.00  0.00    +0.000 NA
ATOM     13  C   UNL     1       1.750   6.032  20.253  0.00  0.00    +0.000 A 
ATOM     14  N   UNL     1       2.881   6.083  19.525  0.00  0.00    +0.000 NA
ATOM     15  C   UNL     1       3.567   4.920  19.520  0.00  0.00    +0.000 A 
ATOM     16  H   UNL     1       4.086   1.886  20.313  0.00  0.00    +0.000 HD
ENDBRANCH   3   6
BRANCH   4  17
ATOM     17  O   UNL     1       8.032   4.965  18.513  0.00  0.00    +0.000 OA
ATOM     18  H   UNL     1       7.785   4.527  19.356  0.00  0.00    +0.000 HD
ENDBRANCH   4  17
BRANCH   5  19
ATOM     19  O   UNL     1       7.864   6.576  16.454  0.00  0.00    +0.000 OA
ATOM     20  H   UNL     1       7.579   7.180  15.741  0.00  0.00    +0.000 HD
ENDBRANCH   5  19
BRANCH   1  21
ATOM     21  C   UNL     1       5.267   4.241  14.954  0.00  0.00    +0.000 C 
BRANCH  21  22
ATOM     22  O   UNL     1       6.320   3.542  14.302  0.00  0.00    +0.000 OA
ATOM     23  H   UNL     1       6.877   3.151  14.999  0.00  0.00    +0.000 HD
ENDBRANCH  21  22
ENDBRANCH   1  21
TORSDOF 5
ENDMDL
MODEL 6
REMARK VINA RESULT:      -6.8      2.330      2.951
REMARK  Name = 
REMARK  5 active torsions:
REMARK  status: ('A' for Active; 'I' for Inactive)
REMARK    1  A    between atoms: O_1  and  C_2
REMARK    2  A    between atoms: C_2  and  C_3
REMARK    3  A    between atoms: C_5  and  C_6
REMARK    4  A    between atoms: C_16  and  O_17
REMARK    5  A    between atoms: C_18  and  O_19
REMARK                            x       y       z     vdW  Elec       q    Type
REMARK                         _______ _______ _______ _____ _____    ______ ____
ROOT
ATOM      1  C   UNL     1       2.170   2.959  17.832  0.00  0.00    +0.000 C 
ATOM      2  O   UNL     1       3.159   3.428  16.893  0.00  0.00    +0.000 OA
ATOM      3  C   UNL     1       4.447   3.498  17.564  0.00  0.00    +0.000 C 
ATOM      4  C   UNL     1       4.216   3.132  19.037  0.00  0.00    +0.000 C 
ATOM      5  C   UNL     1       2.951   2.292  18.960  0.00  0.00    +0.000 C 
ENDROOT
BRANCH   3   6
ATOM      6  C   UNL     1       5.104   4.831  17.386  0.00  0.00    +0.000 A 
ATOM      7  N   UNL     1       4.647   5.743  16.501  0.00  0.00    +0.000 NA
ATOM      8  N   UNL     1       5.496   6.782  16.645  0.00  0.00    +0.000 N 
ATOM      9  C   UNL     1       6.476   6.571  17.566  0.00  0.00    +0.000 A 
ATOM     10  C   UNL     1       7.536   7.309  18.028  0.00  0.00    +0.000 A 
ATOM     11 CL   UNL     1       7.919   8.868  17.456  0.00  0.00    +0.000 Cl
ATOM     12  N   UNL     1       8.338   6.789  18.971  0.00  0.00    +0.000 NA
ATOM     13  C   UNL     1       8.043   5.555  19.416  0.00  0.00    +0.000 A 
ATOM     14  N   UNL     1       7.033   4.755  19.025  0.00  0.00    +0.000 NA
ATOM     15  C   UNL     1       6.249   5.309  18.075  0.00  0.00    +0.000 A 
ATOM     16  H   UNL     1       5.346   7.609  16.077  0.00  0.00    +0.000 HD
ENDBRANCH   3   6
BRANCH   4  17
ATOM     17  O   UNL     1       5.298   2.383  19.597  0.00  0.00    +0.000 OA
ATOM     18  H   UNL     1       5.598   2.899  20.375  0.00  0.00    +0.000 HD
ENDBRANCH   4  17
BRANCH   5  19
ATOM     19  O   UNL     1       3.346   0.947  18.600  0.00  0.00    +0.000 OA
ATOM     20  H   UNL     1       2.831   0.324  19.147  0.00  0.00    +0.000 HD
ENDBRANCH   5  19
BRANCH   1  21
ATOM     21  C   UNL     1       1.291   4.128  18.282  0.00  0.00    +0.000 C 
BRANCH  21  22
ATOM     22  O   UNL     1       0.891   3.956  19.635  0.00  0.00    +0.000 OA
ATOM     23  H   UNL     1       0.050   4.435  19.747  0.00  0.00    +0.000 HD
ENDBRANCH  21  22
ENDBRANCH   1  21
TORSDOF 5
ENDMDL
MODEL 7
REMARK VINA RESULT:      -6.7      3.663      6.038
REMARK  Name = 
REMARK  5 active torsions:
REMARK  status: ('A' for Active; 'I' for Inactive)
REMARK    1  A    between atoms: O_1  and  C_2
REMARK    2  A    between atoms: C_2  and  C_3
REMARK    3  A    between atoms: C_5  and  C_6
REMARK    4  A    between atoms: C_16  and  O_17
REMARK    5  A    between atoms: C_18  and  O_19
REMARK                            x       y       z     vdW  Elec       q    Type
REMARK                         _______ _______ _______ _____ _____    ______ ____
ROOT
ATOM      1  C   UNL     1       7.902   5.584  17.921  0.00  0.00    +0.000 C 
ATOM      2  O   UNL     1       7.253   4.309  18.094  0.00  0.00    +0.000 OA
ATOM      3  C   UNL     1       5.878   4.416  17.634  0.00  0.00    +0.000 C 
ATOM      4  C   UNL     1       5.641   5.879  17.235  0.00  0.00    +0.000 C 
ATOM      5  C   UNL     1       7.051   6.351  16.913  0.00  0.00    +0.000 C 
ENDROOT
BRANCH   3   6
ATOM      6  C   UNL     1       4.901   3.922  18.655  0.00  0.00    +0.000 A 
ATOM      7  N   UNL     1       5.300   3.398  19.834  0.00  0.00    +0.000 NA
ATOM      8  N   UNL     1       4.143   3.081  20.452  0.00  0.00    +0.000 N 
ATOM      9  C   UNL     1       3.031   3.364  19.720  0.00  0.00    +0.000 A 
ATOM     10  C   UNL     1       1.683   3.209  19.921  0.00  0.00    +0.000 A 
ATOM     11 CL   UNL     1       1.014   2.518  21.329  0.00  0.00    +0.000 Cl
ATOM     12  N   UNL     1       0.826   3.603  18.966  0.00  0.00    +0.000 NA
ATOM     13  C   UNL     1       1.354   4.139  17.851  0.00  0.00    +0.000 A 
ATOM     14  N   UNL     1       2.654   4.328  17.561  0.00  0.00    +0.000 NA
ATOM     15  C   UNL     1       3.486   3.919  18.543  0.00  0.00    +0.000 A 
ATOM     16  H   UNL     1       4.188   2.670  21.379  0.00  0.00    +0.000 HD
ENDBRANCH   3   6
BRANCH   4  17
ATOM     17  O   UNL     1       4.783   6.010  16.099  0.00  0.00    +0.000 OA
ATOM     18  H   UNL     1       5.346   6.383  15.387  0.00  0.00    +0.000 HD
ENDBRANCH   4  17
BRANCH   5  19
ATOM     19  O   UNL     1       7.346   5.940  15.558  0.00  0.00    +0.000 OA
ATOM     20  H   UNL     1       8.253   6.231  15.345  0.00  0.00    +0.000 HD
ENDBRANCH   5  19
BRANCH   1  21
ATOM     21  C   UNL     1       8.047   6.277  19.278  0.00  0.00    +0.000 C 
BRANCH  21  22
ATOM     22  O   UNL     1       7.842   5.347  20.334  0.00  0.00    +0.000 OA
ATOM     23  H   UNL     1       8.404   5.631  21.077  0.00  0.00    +0.000 HD
ENDBRANCH  21  22
ENDBRANCH   1  21
TORSDOF 5
ENDMDL
MODEL 8
REMARK VINA RESULT:      -6.7      3.766      6.029
REMARK  Name = 
REMARK  5 active torsions:
REMARK  status: ('A' for Active; 'I' for Inactive)
REMARK    1  A    between atoms: O_1  and  C_2
REMARK    2  A    between atoms: C_2  and  C_3
REMARK    3  A    between atoms: C_5  and  C_6
REMARK    4  A    between atoms: C_16  and  O_17
REMARK    5  A    between atoms: C_18  and  O_19
REMARK                            x       y       z     vdW  Elec       q    Type
REMARK                         _______ _______ _______ _____ _____    ______ ____
ROOT
ATOM      1  C   UNL     1       7.870   5.622  17.993  0.00  0.00    +0.000 C 
ATOM      2  O   UNL     1       6.965   4.514  18.172  0.00  0.00    +0.000 OA
ATOM      3  C   UNL     1       5.659   4.888  17.656  0.00  0.00    +0.000 C 
ATOM      4  C   UNL     1       5.744   6.355  17.212  0.00  0.00    +0.000 C 
ATOM      5  C   UNL     1       7.230   6.515  16.935  0.00  0.00    +0.000 C 
ENDROOT
BRANCH   3   6
ATOM      6  C   UNL     1       4.567   4.639  18.650  0.00  0.00    +0.000 A 
ATOM      7  N   UNL     1       4.294   5.507  19.648  0.00  0.00    +0.000 NA
ATOM      8  N   UNL     1       3.267   4.927  20.305  0.00  0.00    +0.000 N 
ATOM      9  C   UNL     1       2.884   3.730  19.783  0.00  0.00    +0.000 A 
ATOM     10  C   UNL     1       1.930   2.801  20.110  0.00  0.00    +0.000 A 
ATOM     11 CL   UNL     1       0.875   2.961  21.439  0.00  0.00    +0.000 Cl
ATOM     12  N   UNL     1       1.811   1.690  19.365  0.00  0.00    +0.000 NA
ATOM     13  C   UNL     1       2.650   1.558  18.322  0.00  0.00    +0.000 A 
ATOM     14  N   UNL     1       3.615   2.407  17.925  0.00  0.00    +0.000 NA
ATOM     15  C   UNL     1       3.707   3.511  18.698  0.00  0.00    +0.000 A 
ATOM     16  H   UNL     1       2.875   5.409  21.108  0.00  0.00    +0.000 HD
ENDBRANCH   3   6
BRANCH   4  17
ATOM     17  O   UNL     1       4.970   6.624  16.041  0.00  0.00    +0.000 OA
ATOM     18  H   UNL     1       4.516   5.780  15.828  0.00  0.00    +0.000 HD
ENDBRANCH   4  17
BRANCH   5  19
ATOM     19  O   UNL     1       7.479   6.009  15.603  0.00  0.00    +0.000 OA
ATOM     20  H   UNL     1       6.756   5.395  15.372  0.00  0.00    +0.000 HD
ENDBRANCH   5  19
BRANCH   1  21
ATOM     21  C   UNL     1       8.111   6.313  19.338  0.00  0.00    +0.000 C 
BRANCH  21  22
ATOM     22  O   UNL     1       7.908   5.399  20.408  0.00  0.00    +0.000 OA
ATOM     23  H   UNL     1       8.788   5.083  20.683  0.00  0.00    +0.000 HD
ENDBRANCH  21  22
ENDBRANCH   1  21
TORSDOF 5
ENDMDL
MODEL 9
REMARK VINA RESULT:      -6.6      3.778      5.665
REMARK  Name = 
REMARK  5 active torsions:
REMARK  status: ('A' for Active; 'I' for Inactive)
REMARK    1  A    between atoms: O_1  and  C_2
REMARK    2  A    between atoms: C_2  and  C_3
REMARK    3  A    between atoms: C_5  and  C_6
REMARK    4  A    between atoms: C_16  and  O_17
REMARK    5  A    between atoms: C_18  and  O_19
REMARK                            x       y       z     vdW  Elec       q    Type
REMARK                         _______ _______ _______ _____ _____    ______ ____
ROOT
ATOM      1  C   UNL     1       5.835   5.456  15.563  0.00  0.00    +0.000 C 
ATOM      2  O   UNL     1       4.832   6.071  16.396  0.00  0.00    +0.000 OA
ATOM      3  C   UNL     1       5.282   6.030  17.778  0.00  0.00    +0.000 C 
ATOM      4  C   UNL     1       6.609   5.259  17.806  0.00  0.00    +0.000 C 
ATOM      5  C   UNL     1       7.119   5.457  16.387  0.00  0.00    +0.000 C 
ENDROOT
BRANCH   3   6
ATOM      6  C   UNL     1       4.248   5.451  18.692  0.00  0.00    +0.000 A 
ATOM      7  N   UNL     1       3.680   6.173  19.682  0.00  0.00    +0.000 NA
ATOM      8  N   UNL     1       2.822   5.307  20.259  0.00  0.00    +0.000 N 
ATOM      9  C   UNL     1       2.825   4.068  19.695  0.00  0.00    +0.000 A 
ATOM     10  C   UNL     1       2.155   2.897  19.944  0.00  0.00    +0.000 A 
ATOM     11 CL   UNL     1       1.020   2.710  21.201  0.00  0.00    +0.000 Cl
ATOM     12  N   UNL     1       2.401   1.824  19.176  0.00  0.00    +0.000 NA
ATOM     13  C   UNL     1       3.304   1.967  18.190  0.00  0.00    +0.000 A 
ATOM     14  N   UNL     1       4.012   3.066  17.872  0.00  0.00    +0.000 NA
ATOM     15  C   UNL     1       3.740   4.126  18.665  0.00  0.00    +0.000 A 
ATOM     16  H   UNL     1       2.262   5.632  21.041  0.00  0.00    +0.000 HD
ENDBRANCH   3   6
BRANCH   4  17
ATOM     17  O   UNL     1       7.533   5.784  18.762  0.00  0.00    +0.000 OA
ATOM     18  H   UNL     1       8.422   5.640  18.373  0.00  0.00    +0.000 HD
ENDBRANCH   4  17
BRANCH   5  19
ATOM     19  O   UNL     1       7.772   6.747  16.337  0.00  0.00    +0.000 OA
ATOM     20  H   UNL     1       8.736   6.597  16.314  0.00  0.00    +0.000 HD
ENDBRANCH   5  19
BRANCH   1  21
ATOM     21  C   UNL     1       5.365   4.064  15.133  0.00  0.00    +0.000 C 
BRANCH  21  22
ATOM     22  O   UNL     1       6.317   3.465  14.263  0.00  0.00    +0.000 OA
ATOM     23  H   UNL     1       6.935   2.959  14.822  0.00  0.00    +0.000 HD
ENDBRANCH  21  22
ENDBRANCH   1  21
TORSDOF 5
ENDMDL
