MODEL 1
REMARK VINA RESULT:      -6.3      0.000      0.000
REMARK  Name = 
REMARK  5 active torsions:
REMARK  status: ('A' for Active; 'I' for Inactive)
REMARK    1  A    between atoms: C_1  and  C_2
REMARK    2  A    between atoms: C_2  and  C_3
REMARK    3  A    between atoms: C_4  and  C_5
REMARK    4  A    between atoms: C_5  and  N_6
REMARK    5  A    between atoms: C_19  and  C_20
REMARK                            x       y       z     vdW  Elec       q    Type
REMARK                         _______ _______ _______ _____ _____    ______ ____
ROOT
ATOM      1  N   UNL     1      -1.297  12.910  19.238  0.00  0.00    +0.000 NA
ATOM      2  C   UNL     1      -0.142  12.796  18.325  0.00  0.00    +0.000 C 
ATOM      3  C   UNL     1       1.140  12.105  18.823  0.00  0.00    +0.000 C 
ATOM      4  N   UNL     1       0.907  10.884  19.568  0.00  0.00    +0.000 N 
ATOM      5  C   UNL     1       1.313   9.570  19.278  0.00  0.00    +0.000 A 
ATOM      6  S   UNL     1       2.033   8.968  17.915  0.00  0.00    +0.000 S 
ATOM      7  N   UNL     1       0.963   8.783  20.388  0.00  0.00    +0.000 N 
ATOM      8  C   UNL     1       0.327   9.588  21.328  0.00  0.00    +0.000 A 
ATOM      9  C   UNL     1      -0.235   9.237  22.532  0.00  0.00    +0.000 A 
ATOM     10  C   UNL     1      -0.896  10.249  23.229  0.00  0.00    +0.000 A 
ATOM     11  C   UNL     1      -1.041  11.546  22.678  0.00  0.00    +0.000 A 
ATOM     12  C   UNL     1      -0.510  11.877  21.415  0.00  0.00    +0.000 A 
ATOM     13  C   UNL     1       0.252  10.883  20.816  0.00  0.00    +0.000 A 
ATOM     14  C   UNL     1      -0.873  13.150  20.654  0.00  0.00    +0.000 C 
ATOM     15  C   UNL     1      -1.960  14.014  21.319  0.00  0.00    +0.000 C 
ATOM     16  H   UNL     1       1.093   7.784  20.442  0.00  0.00    +0.000 HD
ENDROOT
BRANCH   1  17
ATOM     17  C   UNL     1      -2.261  11.797  19.107  0.00  0.00    +0.000 C 
BRANCH  17  21
ATOM     18  C   UNL     1      -2.947  10.009  15.699  0.00  0.00    +0.000 C 
ATOM     19  C   UNL     1      -3.152  10.845  16.933  0.00  0.00    +0.000 C 
ATOM     20  C   UNL     1      -4.501  11.497  17.089  0.00  0.00    +0.000 C 
ATOM     21  C   UNL     1      -2.156  11.004  17.829  0.00  0.00    +0.000 C 
ENDBRANCH  17  21
ENDBRANCH   1  17
TORSDOF 2
ENDMDL
MODEL 2
REMARK VINA RESULT:      -6.1      6.210      9.248
REMARK  Name = 
REMARK  5 active torsions:
REMARK  status: ('A' for Active; 'I' for Inactive)
REMARK    1  A    between atoms: C_1  and  C_2
REMARK    2  A    between atoms: C_2  and  C_3
REMARK    3  A    between atoms: C_4  and  C_5
REMARK    4  A    between atoms: C_5  and  N_6
REMARK    5  A    between atoms: C_19  and  C_20
REMARK                            x       y       z     vdW  Elec       q    Type
REMARK                         _______ _______ _______ _____ _____    ______ ____
ROOT
ATOM      1  N   UNL     1       4.427   3.784  17.751  0.00  0.00    +0.000 NA
ATOM      2  C   UNL     1       3.919   5.029  17.139  0.00  0.00    +0.000 C 
ATOM      3  C   UNL     1       2.534   5.556  17.555  0.00  0.00    +0.000 C 
ATOM      4  N   UNL     1       2.281   5.503  18.980  0.00  0.00    +0.000 N 
ATOM      5  C   UNL     1       2.022   6.551  19.881  0.00  0.00    +0.000 A 
ATOM      6  S   UNL     1       2.096   8.186  19.639  0.00  0.00    +0.000 S 
ATOM      7  N   UNL     1       1.697   5.958  21.112  0.00  0.00    +0.000 N 
ATOM      8  C   UNL     1       1.785   4.575  20.982  0.00  0.00    +0.000 A 
ATOM      9  C   UNL     1       1.612   3.602  21.936  0.00  0.00    +0.000 A 
ATOM     10  C   UNL     1       1.859   2.288  21.538  0.00  0.00    +0.000 A 
ATOM     11  C   UNL     1       2.335   1.992  20.237  0.00  0.00    +0.000 A 
ATOM     12  C   UNL     1       2.564   3.006  19.284  0.00  0.00    +0.000 A 
ATOM     13  C   UNL     1       2.182   4.282  19.677  0.00  0.00    +0.000 A 
ATOM     14  C   UNL     1       3.335   2.786  17.985  0.00  0.00    +0.000 C 
ATOM     15  C   UNL     1       3.952   1.385  17.828  0.00  0.00    +0.000 C 
ATOM     16  H   UNL     1       1.509   6.471  21.960  0.00  0.00    +0.000 HD
ENDROOT
BRANCH   1  17
ATOM     17  C   UNL     1       5.259   4.018  18.950  0.00  0.00    +0.000 C 
BRANCH  17  21
ATOM     18  C   UNL     1       7.862   6.880  18.388  0.00  0.00    +0.000 C 
ATOM     19  C   UNL     1       7.168   5.548  18.288  0.00  0.00    +0.000 C 
ATOM     20  C   UNL     1       7.808   4.520  17.392  0.00  0.00    +0.000 C 
ATOM     21  C   UNL     1       6.022   5.319  18.960  0.00  0.00    +0.000 C 
ENDBRANCH  17  21
ENDBRANCH   1  17
TORSDOF 2
ENDMDL
MODEL 3
REMARK VINA RESULT:      -6.0      9.278     10.717
REMARK  Name = 
REMARK  5 active torsions:
REMARK  status: ('A' for Active; 'I' for Inactive)
REMARK    1  A    between atoms: C_1  and  C_2
REMARK    2  A    between atoms: C_2  and  C_3
REMARK    3  A    between atoms: C_4  and  C_5
REMARK    4  A    between atoms: C_5  and  N_6
REMARK    5  A    between atoms: C_19  and  C_20
REMARK                            x       y       z     vdW  Elec       q    Type
REMARK                         _______ _______ _______ _____ _____    ______ ____
ROOT
ATOM      1  N   UNL     1       8.732  14.319  21.838  0.00  0.00    +0.000 NA
ATOM      2  C   UNL     1       9.610  15.439  21.441  0.00  0.00    +0.000 C 
ATOM      3  C   UNL     1      10.759  15.174  20.452  0.00  0.00    +0.000 C 
ATOM      4  N   UNL     1      10.395  14.337  19.327  0.00  0.00    +0.000 N 
ATOM      5  C   UNL     1      10.400  14.636  17.953  0.00  0.00    +0.000 A 
ATOM      6  S   UNL     1      10.653  16.084  17.194  0.00  0.00    +0.000 S 
ATOM      7  N   UNL     1      10.106  13.441  17.276  0.00  0.00    +0.000 N 
ATOM      8  C   UNL     1       9.894  12.434  18.213  0.00  0.00    +0.000 A 
ATOM      9  C   UNL     1       9.525  11.126  18.011  0.00  0.00    +0.000 A 
ATOM     10  C   UNL     1       9.288  10.362  19.154  0.00  0.00    +0.000 A 
ATOM     11  C   UNL     1       9.353  10.936  20.447  0.00  0.00    +0.000 A 
ATOM     12  C   UNL     1       9.676  12.295  20.638  0.00  0.00    +0.000 A 
ATOM     13  C   UNL     1      10.032  12.985  19.487  0.00  0.00    +0.000 A 
ATOM     14  C   UNL     1       9.485  13.031  21.962  0.00  0.00    +0.000 C 
ATOM     15  C   UNL     1       8.803  12.205  23.068  0.00  0.00    +0.000 C 
ATOM     16  H   UNL     1       9.997  13.364  16.276  0.00  0.00    +0.000 HD
ENDROOT
BRANCH   1  17
ATOM     17  C   UNL     1       7.520  14.199  20.999  0.00  0.00    +0.000 C 
BRANCH  17  21
ATOM     18  C   UNL     1       6.109  17.088  18.775  0.00  0.00    +0.000 C 
ATOM     19  C   UNL     1       6.630  15.739  19.193  0.00  0.00    +0.000 C 
ATOM     20  C   UNL     1       6.726  14.690  18.116  0.00  0.00    +0.000 C 
ATOM     21  C   UNL     1       6.967  15.501  20.477  0.00  0.00    +0.000 C 
ENDBRANCH  17  21
ENDBRANCH   1  17
TORSDOF 2
ENDMDL
MODEL 4
REMARK VINA RESULT:      -5.9      9.687     11.941
REMARK  Name = 
REMARK  5 active torsions:
REMARK  status: ('A' for Active; 'I' for Inactive)
REMARK    1  A    between atoms: C_1  and  C_2
REMARK    2  A    between atoms: C_2  and  C_3
REMARK    3  A    between atoms: C_4  and  C_5
REMARK    4  A    between atoms: C_5  and  N_6
REMARK    5  A    between atoms: C_19  and  C_20
REMARK                            x       y       z     vdW  Elec       q    Type
REMARK                         _______ _______ _______ _____ _____    ______ ____
ROOT
ATOM      1  N   UNL     1      11.188  12.592  19.067  0.00  0.00    +0.000 NA
ATOM      2  C   UNL     1      12.332  13.296  18.454  0.00  0.00    +0.000 C 
ATOM      3  C   UNL     1      12.065  14.353  17.367  0.00  0.00    +0.000 C 
ATOM      4  N   UNL     1      10.966  15.248  17.666  0.00  0.00    +0.000 N 
ATOM      5  C   UNL     1      10.972  16.644  17.838  0.00  0.00    +0.000 A 
ATOM      6  S   UNL     1      12.254  17.685  17.930  0.00  0.00    +0.000 S 
ATOM      7  N   UNL     1       9.631  17.044  17.961  0.00  0.00    +0.000 N 
ATOM      8  C   UNL     1       8.818  15.916  17.897  0.00  0.00    +0.000 A 
ATOM      9  C   UNL     1       7.453  15.823  18.030  0.00  0.00    +0.000 A 
ATOM     10  C   UNL     1       6.913  14.537  18.017  0.00  0.00    +0.000 A 
ATOM     11  C   UNL     1       7.743  13.392  17.947  0.00  0.00    +0.000 A 
ATOM     12  C   UNL     1       9.147  13.500  17.869  0.00  0.00    +0.000 A 
ATOM     13  C   UNL     1       9.634  14.795  17.753  0.00  0.00    +0.000 A 
ATOM     14  C   UNL     1      10.097  12.323  18.077  0.00  0.00    +0.000 C 
ATOM     15  C   UNL     1       9.415  11.006  18.491  0.00  0.00    +0.000 C 
ATOM     16  H   UNL     1       9.333  17.990  18.142  0.00  0.00    +0.000 HD
ENDROOT
BRANCH   1  17
ATOM     17  C   UNL     1      10.697  13.236  20.304  0.00  0.00    +0.000 C 
BRANCH  17  21
ATOM     18  C   UNL     1       8.149  11.662  22.816  0.00  0.00    +0.000 C 
ATOM     19  C   UNL     1       8.795  12.636  21.867  0.00  0.00    +0.000 C 
ATOM     20  C   UNL     1       8.068  13.935  21.637  0.00  0.00    +0.000 C 
ATOM     21  C   UNL     1       9.954  12.328  21.251  0.00  0.00    +0.000 C 
ENDBRANCH  17  21
ENDBRANCH   1  17
TORSDOF 2
ENDMDL
MODEL 5
REMARK VINA RESULT:      -5.9      6.561      9.552
REMARK  Name = 
REMARK  5 active torsions:
REMARK  status: ('A' for Active; 'I' for Inactive)
REMARK    1  A    between atoms: C_1  and  C_2
REMARK    2  A    between atoms: C_2  and  C_3
REMARK    3  A    between atoms: C_4  and  C_5
REMARK    4  A    between atoms: C_5  and  N_6
REMARK    5  A    between atoms: C_19  and  C_20
REMARK                            x       y       z     vdW  Elec       q    Type
REMARK                         _______ _______ _______ _____ _____    ______ ____
ROOT
ATOM      1  N   UNL     1       4.016   4.649  18.771  0.00  0.00    +0.000 NA
ATOM      2  C   UNL     1       5.014   5.194  19.713  0.00  0.00    +0.000 C 
ATOM      3  C   UNL     1       6.499   5.201  19.308  0.00  0.00    +0.000 C 
ATOM      4  N   UNL     1       6.743   5.625  17.945  0.00  0.00    +0.000 N 
ATOM      5  C   UNL     1       7.474   6.727  17.469  0.00  0.00    +0.000 A 
ATOM      6  S   UNL     1       8.141   7.987  18.310  0.00  0.00    +0.000 S 
ATOM      7  N   UNL     1       7.530   6.605  16.071  0.00  0.00    +0.000 N 
ATOM      8  C   UNL     1       6.822   5.470  15.690  0.00  0.00    +0.000 A 
ATOM      9  C   UNL     1       6.563   4.993  14.428  0.00  0.00    +0.000 A 
ATOM     10  C   UNL     1       5.737   3.872  14.343  0.00  0.00    +0.000 A 
ATOM     11  C   UNL     1       5.140   3.311  15.498  0.00  0.00    +0.000 A 
ATOM     12  C   UNL     1       5.368   3.845  16.783  0.00  0.00    +0.000 A 
ATOM     13  C   UNL     1       6.298   4.875  16.838  0.00  0.00    +0.000 A 
ATOM     14  C   UNL     1       4.544   3.471  18.012  0.00  0.00    +0.000 C 
ATOM     15  C   UNL     1       3.355   2.533  17.733  0.00  0.00    +0.000 C 
ATOM     16  H   UNL     1       7.955   7.283  15.457  0.00  0.00    +0.000 HD
ENDROOT
BRANCH   1  17
ATOM     17  C   UNL     1       3.415   5.676  17.893  0.00  0.00    +0.000 C 
BRANCH  17  21
ATOM     18  C   UNL     1       1.638   8.204  20.288  0.00  0.00    +0.000 C 
ATOM     19  C   UNL     1       2.101   6.909  19.676  0.00  0.00    +0.000 C 
ATOM     20  C   UNL     1       1.632   5.642  20.343  0.00  0.00    +0.000 C 
ATOM     21  C   UNL     1       2.912   6.910  18.599  0.00  0.00    +0.000 C 
ENDBRANCH  17  21
ENDBRANCH   1  17
TORSDOF 2
ENDMDL
MODEL 6
REMARK VINA RESULT:      -5.9      2.687      4.678
REMARK  Name = 
REMARK  5 active torsions:
REMARK  status: ('A' for Active; 'I' for Inactive)
REMARK    1  A    between atoms: C_1  and  C_2
REMARK    2  A    between atoms: C_2  and  C_3
REMARK    3  A    between atoms: C_4  and  C_5
REMARK    4  A    between atoms: C_5  and  N_6
REMARK    5  A    between atoms: C_19  and  C_20
REMARK                            x       y       z     vdW  Elec       q    Type
REMARK                         _______ _______ _______ _____ _____    ______ ____
ROOT
ATOM      1  N   UNL     1       0.415  11.850  18.496  0.00  0.00    +0.000 NA
ATOM      2  C   UNL     1      -0.884  12.553  18.491  0.00  0.00    +0.000 C 
ATOM      3  C   UNL     1      -1.999  12.072  19.436  0.00  0.00    +0.000 C 
ATOM      4  N   UNL     1      -1.549  11.761  20.777  0.00  0.00    +0.000 N 
ATOM      5  C   UNL     1      -1.918  12.346  22.001  0.00  0.00    +0.000 A 
ATOM      6  S   UNL     1      -2.844  13.687  22.288  0.00  0.00    +0.000 S 
ATOM      7  N   UNL     1      -1.312  11.585  23.014  0.00  0.00    +0.000 N 
ATOM      8  C   UNL     1      -0.561  10.571  22.427  0.00  0.00    +0.000 A 
ATOM      9  C   UNL     1       0.242   9.630  23.025  0.00  0.00    +0.000 A 
ATOM     10  C   UNL     1       0.958   8.790  22.172  0.00  0.00    +0.000 A 
ATOM     11  C   UNL     1       0.911   8.958  20.766  0.00  0.00    +0.000 A 
ATOM     12  C   UNL     1       0.127   9.966  20.167  0.00  0.00    +0.000 A 
ATOM     13  C   UNL     1      -0.669  10.693  21.042  0.00  0.00    +0.000 A 
ATOM     14  C   UNL     1       0.255  10.375  18.702  0.00  0.00    +0.000 C 
ATOM     15  C   UNL     1       1.390   9.677  17.931  0.00  0.00    +0.000 C 
ATOM     16  H   UNL     1      -1.364  11.802  23.998  0.00  0.00    +0.000 HD
ENDROOT
BRANCH   1  17
ATOM     17  C   UNL     1       1.406  12.454  19.411  0.00  0.00    +0.000 C 
BRANCH  17  21
ATOM     18  C   UNL     1       3.697  15.163  17.769  0.00  0.00    +0.000 C 
ATOM     19  C   UNL     1       2.528  14.522  18.468  0.00  0.00    +0.000 C 
ATOM     20  C   UNL     1       1.393  15.433  18.857  0.00  0.00    +0.000 C 
ATOM     21  C   UNL     1       2.531  13.201  18.740  0.00  0.00    +0.000 C 
ENDBRANCH  17  21
ENDBRANCH   1  17
TORSDOF 2
ENDMDL
MODEL 7
REMARK VINA RESULT:      -5.8      0.493      1.036
REMARK  Name = 
REMARK  5 active torsions:
REMARK  status: ('A' for Active; 'I' for Inactive)
REMARK    1  A    between atoms: C_1  and  C_2
REMARK    2  A    between atoms: C_2  and  C_3
REMARK    3  A    between atoms: C_4  and  C_5
REMARK    4  A    between atoms: C_5  and  N_6
REMARK    5  A    between atoms: C_19  and  C_20
REMARK                            x       y       z     vdW  Elec       q    Type
REMARK                         _______ _______ _______ _____ _____    ______ ____
ROOT
ATOM      1  N   UNL     1      -1.367  12.749  19.336  0.00  0.00    +0.000 NA
ATOM      2  C   UNL     1      -0.241  12.678  18.382  0.00  0.00    +0.000 C 
ATOM      3  C   UNL     1       1.079  12.027  18.832  0.00  0.00    +0.000 C 
ATOM      4  N   UNL     1       0.913  10.796  19.576  0.00  0.00    +0.000 N 
ATOM      5  C   UNL     1       1.353   9.497  19.264  0.00  0.00    +0.000 A 
ATOM      6  S   UNL     1       2.044   8.928  17.873  0.00  0.00    +0.000 S 
ATOM      7  N   UNL     1       1.068   8.693  20.380  0.00  0.00    +0.000 N 
ATOM      8  C   UNL     1       0.439   9.471  21.346  0.00  0.00    +0.000 A 
ATOM      9  C   UNL     1      -0.069   9.096  22.567  0.00  0.00    +0.000 A 
ATOM     10  C   UNL     1      -0.739  10.080  23.293  0.00  0.00    +0.000 A 
ATOM     11  C   UNL     1      -0.946  11.375  22.756  0.00  0.00    +0.000 A 
ATOM     12  C   UNL     1      -0.471  11.731  21.478  0.00  0.00    +0.000 A 
ATOM     13  C   UNL     1       0.303  10.766  20.846  0.00  0.00    +0.000 A 
ATOM     14  C   UNL     1      -0.902  12.995  20.738  0.00  0.00    +0.000 C 
ATOM     15  C   UNL     1      -1.993  13.819  21.446  0.00  0.00    +0.000 C 
ATOM     16  H   UNL     1       1.233   7.699  20.423  0.00  0.00    +0.000 HD
ENDROOT
BRANCH   1  17
ATOM     17  C   UNL     1      -2.297  11.604  19.231  0.00  0.00    +0.000 C 
BRANCH  17  21
ATOM     18  C   UNL     1      -5.588  11.971  17.153  0.00  0.00    +0.000 C 
ATOM     19  C   UNL     1      -4.199  11.554  17.556  0.00  0.00    +0.000 C 
ATOM     20  C   UNL     1      -3.452  10.673  16.589  0.00  0.00    +0.000 C 
ATOM     21  C   UNL     1      -3.682  11.944  18.739  0.00  0.00    +0.000 C 
ENDBRANCH  17  21
ENDBRANCH   1  17
TORSDOF 2
ENDMDL
MODEL 8
REMARK VINA RESULT:      -5.8      6.697      9.340
REMARK  Name = 
REMARK  5 active torsions:
REMARK  status: ('A' for Active; 'I' for Inactive)
REMARK    1  A    between atoms: C_1  and  C_2
REMARK    2  A    between atoms: C_2  and  C_3
REMARK    3  A    between atoms: C_4  and  C_5
REMARK    4  A    between atoms: C_5  and  N_6
REMARK    5  A    between atoms: C_19  and  C_20
REMARK                            x       y       z     vdW  Elec       q    Type
REMARK                         _______ _______ _______ _____ _____    ______ ____
ROOT
ATOM      1  N   UNL     1       6.412   5.411  16.513  0.00  0.00    +0.000 NA
ATOM      2  C   UNL     1       6.373   4.059  17.107  0.00  0.00    +0.000 C 
ATOM      3  C   UNL     1       5.387   3.774  18.254  0.00  0.00    +0.000 C 
ATOM      4  N   UNL     1       4.062   4.322  18.050  0.00  0.00    +0.000 N 
ATOM      5  C   UNL     1       2.827   3.657  17.946  0.00  0.00    +0.000 A 
ATOM      6  S   UNL     1       2.512   2.036  17.846  0.00  0.00    +0.000 S 
ATOM      7  N   UNL     1       1.834   4.650  17.904  0.00  0.00    +0.000 N 
ATOM      8  C   UNL     1       2.444   5.899  17.950  0.00  0.00    +0.000 A 
ATOM      9  C   UNL     1       1.873   7.146  17.876  0.00  0.00    +0.000 A 
ATOM     10  C   UNL     1       2.749   8.232  17.851  0.00  0.00    +0.000 A 
ATOM     11  C   UNL     1       4.152   8.043  17.827  0.00  0.00    +0.000 A 
ATOM     12  C   UNL     1       4.726   6.755  17.846  0.00  0.00    +0.000 A 
ATOM     13  C   UNL     1       3.825   5.710  18.003  0.00  0.00    +0.000 A 
ATOM     14  C   UNL     1       6.196   6.481  17.537  0.00  0.00    +0.000 C 
ATOM     15  C   UNL     1       7.004   7.713  17.092  0.00  0.00    +0.000 C 
ATOM     16  H   UNL     1       0.850   4.466  17.784  0.00  0.00    +0.000 HD
ENDROOT
BRANCH   1  17
ATOM     17  C   UNL     1       5.533   5.558  15.333  0.00  0.00    +0.000 C 
BRANCH  17  21
ATOM     18  C   UNL     1       6.265   2.991  12.477  0.00  0.00    +0.000 C 
ATOM     19  C   UNL     1       6.386   4.193  13.375  0.00  0.00    +0.000 C 
ATOM     20  C   UNL     1       7.524   5.137  13.088  0.00  0.00    +0.000 C 
ATOM     21  C   UNL     1       5.519   4.381  14.390  0.00  0.00    +0.000 C 
ENDBRANCH  17  21
ENDBRANCH   1  17
TORSDOF 2
ENDMDL
MODEL 9
REMARK VINA RESULT:      -5.8      6.427      9.358
REMARK  Name = 
REMARK  5 active torsions:
REMARK  status: ('A' for Active; 'I' for Inactive)
REMARK    1  A    between atoms: C_1  and  C_2
REMARK    2  A    between atoms: C_2  and  C_3
REMARK    3  A    between atoms: C_4  and  C_5
REMARK    4  A    between atoms: C_5  and  N_6
REMARK    5  A    between atoms: C_19  and  C_20
REMARK                            x       y       z     vdW  Elec       q    Type
REMARK                         _______ _______ _______ _____ _____    ______ ____
ROOT
ATOM      1  N   UNL     1       3.765   4.670  18.704  0.00  0.00    +0.000 NA
ATOM      2  C   UNL     1       4.767   5.104  19.699  0.00  0.00    +0.000 C 
ATOM      3  C   UNL     1       6.261   5.018  19.341  0.00  0.00    +0.000 C 
ATOM      4  N   UNL     1       6.581   5.478  18.005  0.00  0.00    +0.000 N 
ATOM      5  C   UNL     1       7.405   6.542  17.600  0.00  0.00    +0.000 A 
ATOM      6  S   UNL     1       8.131   7.715  18.513  0.00  0.00    +0.000 S 
ATOM      7  N   UNL     1       7.500   6.472  16.200  0.00  0.00    +0.000 N 
ATOM      8  C   UNL     1       6.727   5.407  15.749  0.00  0.00    +0.000 A 
ATOM      9  C   UNL     1       6.477   5.001  14.461  0.00  0.00    +0.000 A 
ATOM     10  C   UNL     1       5.576   3.948  14.303  0.00  0.00    +0.000 A 
ATOM     11  C   UNL     1       4.902   3.385  15.414  0.00  0.00    +0.000 A 
ATOM     12  C   UNL     1       5.124   3.850  16.727  0.00  0.00    +0.000 A 
ATOM     13  C   UNL     1       6.122   4.807  16.854  0.00  0.00    +0.000 A 
ATOM     14  C   UNL     1       4.233   3.488  17.913  0.00  0.00    +0.000 C 
ATOM     15  C   UNL     1       2.990   2.652  17.557  0.00  0.00    +0.000 C 
ATOM     16  H   UNL     1       7.993   7.141  15.628  0.00  0.00    +0.000 HD
ENDROOT
BRANCH   1  17
ATOM     17  C   UNL     1       3.269   5.772  17.852  0.00  0.00    +0.000 C 
BRANCH  17  21
ATOM     18  C   UNL     1       1.294   8.911  19.089  0.00  0.00    +0.000 C 
ATOM     19  C   UNL     1       2.287   8.056  18.349  0.00  0.00    +0.000 C 
ATOM     20  C   UNL     1       3.223   8.769  17.409  0.00  0.00    +0.000 C 
ATOM     21  C   UNL     1       2.304   6.718  18.522  0.00  0.00    +0.000 C 
ENDBRANCH  17  21
ENDBRANCH   1  17
TORSDOF 2
ENDMDL
