MODEL 1
REMARK VINA RESULT:      -7.3      0.000      0.000
REMARK  Name = 
REMARK  7 active torsions:
REMARK  status: ('A' for Active; 'I' for Inactive)
REMARK    1  A    between atoms: C_1  and  N_2
REMARK    2  A    between atoms: N_2  and  C_3
REMARK    3  A    between atoms: N_2  and  C_4
REMARK    4  A    between atoms: C_4  and  C_5
REMARK    5  A    between atoms: C_5  and  C_6
REMARK    6  A    between atoms: C_6  and  C_7
REMARK    7  A    between atoms: C_16  and  C_17
REMARK                            x       y       z     vdW  Elec       q    Type
REMARK                         _______ _______ _______ _____ _____    ______ ____
ROOT
ATOM      1  C   UNL     1       0.561  10.165  19.423  0.00  0.00    +0.000 C 
ATOM      2  C   UNL     1       1.256   9.998  18.028  0.00  0.00    +0.000 C 
ATOM      3  C   UNL     1       1.555   8.513  17.838  0.00  0.00    +0.000 C 
ATOM      4  C   UNL     1       1.863   8.049  19.215  0.00  0.00    +0.000 C 
ATOM      5  C   UNL     1       2.482   6.928  19.615  0.00  0.00    +0.000 C 
ATOM      6  C   UNL     1       1.323   9.071  20.173  0.00  0.00    +0.000 C 
ATOM      7  O   UNL     1       1.437   8.960  21.384  0.00  0.00    +0.000 OA
ENDROOT
BRANCH   5   8
ATOM      8  C   UNL     1       2.935   5.894  18.685  0.00  0.00    +0.000 A 
ATOM      9  C   UNL     1       2.124   4.792  18.396  0.00  0.00    +0.000 A 
ATOM     10  C   UNL     1       2.564   3.810  17.507  0.00  0.00    +0.000 A 
ATOM     11  C   UNL     1       3.816   3.922  16.901  0.00  0.00    +0.000 A 
ATOM     12  C   UNL     1       4.630   5.015  17.187  0.00  0.00    +0.000 A 
ATOM     13  C   UNL     1       4.193   6.000  18.078  0.00  0.00    +0.000 A 
ENDBRANCH   5   8
BRANCH   1  14
ATOM     14  C   UNL     1       0.866  11.582  20.010  0.00  0.00    +0.000 C 
BRANCH  14  16
ATOM     15  C   UNL     1       0.332  13.552  18.730  0.00  0.00    +0.000 C 
ATOM     16  N   UNL     1       1.426  12.697  19.213  0.00  0.00    +0.000 NA
ATOM     17  C   UNL     1       2.408  13.533  19.892  0.00  0.00    +0.000 C 
ENDBRANCH  14  16
ENDBRANCH   1  14
BRANCH   1  18
ATOM     18  C   UNL     1      -0.928   9.746  19.343  0.00  0.00    +0.000 C 
BRANCH  18  19
ATOM     19  C   UNL     1      -1.813  10.223  18.205  0.00  0.00    +0.000 A 
ATOM     20  C   UNL     1      -1.772   9.727  16.896  0.00  0.00    +0.000 A 
ATOM     21  C   UNL     1      -2.636  10.207  15.907  0.00  0.00    +0.000 A 
ATOM     22  C   UNL     1      -3.567  11.187  16.213  0.00  0.00    +0.000 A 
ATOM     23  C   UNL     1      -3.633  11.692  17.509  0.00  0.00    +0.000 A 
ATOM     24  C   UNL     1      -2.765  11.215  18.494  0.00  0.00    +0.000 A 
ENDBRANCH  18  19
ENDBRANCH   1  18
TORSDOF 5
ENDMDL
MODEL 2
REMARK VINA RESULT:      -7.2      0.807      1.450
REMARK  Name = 
REMARK  7 active torsions:
REMARK  status: ('A' for Active; 'I' for Inactive)
REMARK    1  A    between atoms: C_1  and  N_2
REMARK    2  A    between atoms: N_2  and  C_3
REMARK    3  A    between atoms: N_2  and  C_4
REMARK    4  A    between atoms: C_4  and  C_5
REMARK    5  A    between atoms: C_5  and  C_6
REMARK    6  A    between atoms: C_6  and  C_7
REMARK    7  A    between atoms: C_16  and  C_17
REMARK                            x       y       z     vdW  Elec       q    Type
REMARK                         _______ _______ _______ _____ _____    ______ ____
ROOT
ATOM      1  C   UNL     1       0.407  10.154  19.359  0.00  0.00    +0.000 C 
ATOM      2  C   UNL     1       1.172  10.034  17.997  0.00  0.00    +0.000 C 
ATOM      3  C   UNL     1       1.540   8.565  17.805  0.00  0.00    +0.000 C 
ATOM      4  C   UNL     1       1.801   8.095  19.189  0.00  0.00    +0.000 C 
ATOM      5  C   UNL     1       2.445   6.994  19.605  0.00  0.00    +0.000 C 
ATOM      6  C   UNL     1       1.176   9.081  20.132  0.00  0.00    +0.000 C 
ATOM      7  O   UNL     1       1.237   8.958  21.346  0.00  0.00    +0.000 OA
ENDROOT
BRANCH   5   8
ATOM      8  C   UNL     1       2.983   5.991  18.686  0.00  0.00    +0.000 A 
ATOM      9  C   UNL     1       4.243   6.161  18.106  0.00  0.00    +0.000 A 
ATOM     10  C   UNL     1       4.749   5.199  17.230  0.00  0.00    +0.000 A 
ATOM     11  C   UNL     1       3.998   4.062  16.927  0.00  0.00    +0.000 A 
ATOM     12  C   UNL     1       2.740   3.888  17.498  0.00  0.00    +0.000 A 
ATOM     13  C   UNL     1       2.230   4.851  18.375  0.00  0.00    +0.000 A 
ENDBRANCH   5   8
BRANCH   1  14
ATOM     14  C   UNL     1       0.626  11.574  19.977  0.00  0.00    +0.000 C 
BRANCH  14  16
ATOM     15  C   UNL     1      -0.387  12.412  21.996  0.00  0.00    +0.000 C 
ATOM     16  N   UNL     1      -0.466  12.407  20.528  0.00  0.00    +0.000 NA
ATOM     17  C   UNL     1      -0.514  13.786  20.058  0.00  0.00    +0.000 C 
ENDBRANCH  14  16
ENDBRANCH   1  14
BRANCH   1  18
ATOM     18  C   UNL     1      -1.059   9.678  19.204  0.00  0.00    +0.000 C 
BRANCH  18  19
ATOM     19  C   UNL     1      -1.918  10.161  18.049  0.00  0.00    +0.000 A 
ATOM     20  C   UNL     1      -1.825   9.696  16.731  0.00  0.00    +0.000 A 
ATOM     21  C   UNL     1      -2.668  10.179  15.726  0.00  0.00    +0.000 A 
ATOM     22  C   UNL     1      -3.630  11.131  16.023  0.00  0.00    +0.000 A 
ATOM     23  C   UNL     1      -3.749  11.604  17.327  0.00  0.00    +0.000 A 
ATOM     24  C   UNL     1      -2.902  11.125  18.329  0.00  0.00    +0.000 A 
ENDBRANCH  18  19
ENDBRANCH   1  18
TORSDOF 5
ENDMDL
MODEL 3
REMARK VINA RESULT:      -7.2      3.224      7.453
REMARK  Name = 
REMARK  7 active torsions:
REMARK  status: ('A' for Active; 'I' for Inactive)
REMARK    1  A    between atoms: C_1  and  N_2
REMARK    2  A    between atoms: N_2  and  C_3
REMARK    3  A    between atoms: N_2  and  C_4
REMARK    4  A    between atoms: C_4  and  C_5
REMARK    5  A    between atoms: C_5  and  C_6
REMARK    6  A    between atoms: C_6  and  C_7
REMARK    7  A    between atoms: C_16  and  C_17
REMARK                            x       y       z     vdW  Elec       q    Type
REMARK                         _______ _______ _______ _____ _____    ______ ____
ROOT
ATOM      1  C   UNL     1       2.916   6.825  18.140  0.00  0.00    +0.000 C 
ATOM      2  C   UNL     1       3.104   6.751  19.694  0.00  0.00    +0.000 C 
ATOM      3  C   UNL     1       1.936   7.498  20.335  0.00  0.00    +0.000 C 
ATOM      4  C   UNL     1       1.664   8.595  19.372  0.00  0.00    +0.000 C 
ATOM      5  C   UNL     1       0.965   9.726  19.548  0.00  0.00    +0.000 C 
ATOM      6  C   UNL     1       2.305   8.226  18.065  0.00  0.00    +0.000 C 
ATOM      7  O   UNL     1       2.253   8.949  17.081  0.00  0.00    +0.000 OA
ENDROOT
BRANCH   5   8
ATOM      8  C   UNL     1       0.272  10.047  20.796  0.00  0.00    +0.000 A 
ATOM      9  C   UNL     1      -0.216  11.336  21.027  0.00  0.00    +0.000 A 
ATOM     10  C   UNL     1      -0.877  11.633  22.221  0.00  0.00    +0.000 A 
ATOM     11  C   UNL     1      -1.053  10.644  23.190  0.00  0.00    +0.000 A 
ATOM     12  C   UNL     1      -0.567   9.359  22.967  0.00  0.00    +0.000 A 
ATOM     13  C   UNL     1       0.096   9.058  21.773  0.00  0.00    +0.000 A 
ENDBRANCH   5   8
BRANCH   1  14
ATOM     14  C   UNL     1       4.305   6.766  17.426  0.00  0.00    +0.000 C 
BRANCH  14  16
ATOM     15  C   UNL     1       5.579   5.102  16.238  0.00  0.00    +0.000 C 
ATOM     16  N   UNL     1       5.253   5.638  17.567  0.00  0.00    +0.000 NA
ATOM     17  C   UNL     1       6.496   5.935  18.269  0.00  0.00    +0.000 C 
ENDBRANCH  14  16
ENDBRANCH   1  14
BRANCH   1  18
ATOM     18  C   UNL     1       1.845   5.808  17.672  0.00  0.00    +0.000 C 
BRANCH  18  19
ATOM     19  C   UNL     1       1.838   4.384  18.201  0.00  0.00    +0.000 A 
ATOM     20  C   UNL     1       1.220   3.972  19.388  0.00  0.00    +0.000 A 
ATOM     21  C   UNL     1       1.242   2.636  19.796  0.00  0.00    +0.000 A 
ATOM     22  C   UNL     1       1.876   1.681  19.016  0.00  0.00    +0.000 A 
ATOM     23  C   UNL     1       2.493   2.063  17.828  0.00  0.00    +0.000 A 
ATOM     24  C   UNL     1       2.474   3.400  17.425  0.00  0.00    +0.000 A 
ENDBRANCH  18  19
ENDBRANCH   1  18
TORSDOF 5
ENDMDL
MODEL 4
REMARK VINA RESULT:      -7.2      3.158      7.394
REMARK  Name = 
REMARK  7 active torsions:
REMARK  status: ('A' for Active; 'I' for Inactive)
REMARK    1  A    between atoms: C_1  and  N_2
REMARK    2  A    between atoms: N_2  and  C_3
REMARK    3  A    between atoms: N_2  and  C_4
REMARK    4  A    between atoms: C_4  and  C_5
REMARK    5  A    between atoms: C_5  and  C_6
REMARK    6  A    between atoms: C_6  and  C_7
REMARK    7  A    between atoms: C_16  and  C_17
REMARK                            x       y       z     vdW  Elec       q    Type
REMARK                         _______ _______ _______ _____ _____    ______ ____
ROOT
ATOM      1  C   UNL     1       2.920   6.781  18.113  0.00  0.00    +0.000 C 
ATOM      2  C   UNL     1       3.125   6.697  19.665  0.00  0.00    +0.000 C 
ATOM      3  C   UNL     1       1.965   7.441  20.322  0.00  0.00    +0.000 C 
ATOM      4  C   UNL     1       1.684   8.545  19.369  0.00  0.00    +0.000 C 
ATOM      5  C   UNL     1       0.989   9.676  19.559  0.00  0.00    +0.000 C 
ATOM      6  C   UNL     1       2.311   8.183  18.053  0.00  0.00    +0.000 C 
ATOM      7  O   UNL     1       2.250   8.912  17.075  0.00  0.00    +0.000 OA
ENDROOT
BRANCH   5   8
ATOM      8  C   UNL     1       0.309   9.990  20.816  0.00  0.00    +0.000 A 
ATOM      9  C   UNL     1       0.468   9.168  21.935  0.00  0.00    +0.000 A 
ATOM     10  C   UNL     1      -0.183   9.474  23.131  0.00  0.00    +0.000 A 
ATOM     11  C   UNL     1      -0.998  10.605  23.215  0.00  0.00    +0.000 A 
ATOM     12  C   UNL     1      -1.164  11.426  22.104  0.00  0.00    +0.000 A 
ATOM     13  C   UNL     1      -0.513  11.120  20.904  0.00  0.00    +0.000 A 
ENDBRANCH   5   8
BRANCH   1  14
ATOM     14  C   UNL     1       4.302   6.724  17.384  0.00  0.00    +0.000 C 
BRANCH  14  16
ATOM     15  C   UNL     1       5.680   4.817  17.902  0.00  0.00    +0.000 C 
ATOM     16  N   UNL     1       5.554   6.276  18.033  0.00  0.00    +0.000 NA
ATOM     17  C   UNL     1       6.781   6.896  17.546  0.00  0.00    +0.000 C 
ENDBRANCH  14  16
ENDBRANCH   1  14
BRANCH   1  18
ATOM     18  C   UNL     1       1.843   5.768  17.651  0.00  0.00    +0.000 C 
BRANCH  18  19
ATOM     19  C   UNL     1       1.832   4.345  18.181  0.00  0.00    +0.000 A 
ATOM     20  C   UNL     1       1.181   3.930  19.349  0.00  0.00    +0.000 A 
ATOM     21  C   UNL     1       1.201   2.594  19.760  0.00  0.00    +0.000 A 
ATOM     22  C   UNL     1       1.866   1.643  19.002  0.00  0.00    +0.000 A 
ATOM     23  C   UNL     1       2.515   2.029  17.832  0.00  0.00    +0.000 A 
ATOM     24  C   UNL     1       2.498   3.365  17.426  0.00  0.00    +0.000 A 
ENDBRANCH  18  19
ENDBRANCH   1  18
TORSDOF 5
ENDMDL
MODEL 5
REMARK VINA RESULT:      -7.2      3.235      7.379
REMARK  Name = 
REMARK  7 active torsions:
REMARK  status: ('A' for Active; 'I' for Inactive)
REMARK    1  A    between atoms: C_1  and  N_2
REMARK    2  A    between atoms: N_2  and  C_3
REMARK    3  A    between atoms: N_2  and  C_4
REMARK    4  A    between atoms: C_4  and  C_5
REMARK    5  A    between atoms: C_5  and  C_6
REMARK    6  A    between atoms: C_6  and  C_7
REMARK    7  A    between atoms: C_16  and  C_17
REMARK                            x       y       z     vdW  Elec       q    Type
REMARK                         _______ _______ _______ _____ _____    ______ ____
ROOT
ATOM      1  C   UNL     1       2.917   6.770  18.134  0.00  0.00    +0.000 C 
ATOM      2  C   UNL     1       3.118   6.698  19.686  0.00  0.00    +0.000 C 
ATOM      3  C   UNL     1       1.957   7.448  20.336  0.00  0.00    +0.000 C 
ATOM      4  C   UNL     1       1.680   8.545  19.373  0.00  0.00    +0.000 C 
ATOM      5  C   UNL     1       0.984   9.677  19.554  0.00  0.00    +0.000 C 
ATOM      6  C   UNL     1       2.309   8.172  18.062  0.00  0.00    +0.000 C 
ATOM      7  O   UNL     1       2.251   8.894  17.078  0.00  0.00    +0.000 OA
ENDROOT
BRANCH   5   8
ATOM      8  C   UNL     1       0.302  10.001  20.807  0.00  0.00    +0.000 A 
ATOM      9  C   UNL     1       0.034   9.004  21.749  0.00  0.00    +0.000 A 
ATOM     10  C   UNL     1      -0.617   9.321  22.942  0.00  0.00    +0.000 A 
ATOM     11  C   UNL     1      -1.004  10.638  23.202  0.00  0.00    +0.000 A 
ATOM     12  C   UNL     1      -0.743  11.635  22.266  0.00  0.00    +0.000 A 
ATOM     13  C   UNL     1      -0.092  11.320  21.069  0.00  0.00    +0.000 A 
ENDBRANCH   5   8
BRANCH   1  14
ATOM     14  C   UNL     1       4.300   6.707  17.408  0.00  0.00    +0.000 C 
BRANCH  14  16
ATOM     15  C   UNL     1       5.475   4.799  16.522  0.00  0.00    +0.000 C 
ATOM     16  N   UNL     1       5.328   5.680  17.689  0.00  0.00    +0.000 NA
ATOM     17  C   UNL     1       6.645   6.182  18.064  0.00  0.00    +0.000 C 
ENDBRANCH  14  16
ENDBRANCH   1  14
BRANCH   1  18
ATOM     18  C   UNL     1       1.840   5.755  17.676  0.00  0.00    +0.000 C 
BRANCH  18  19
ATOM     19  C   UNL     1       1.875   4.313  18.152  0.00  0.00    +0.000 A 
ATOM     20  C   UNL     1       2.544   3.270  17.499  0.00  0.00    +0.000 A 
ATOM     21  C   UNL     1       2.544   1.970  18.013  0.00  0.00    +0.000 A 
ATOM     22  C   UNL     1       1.884   1.690  19.199  0.00  0.00    +0.000 A 
ATOM     23  C   UNL     1       1.217   2.711  19.871  0.00  0.00    +0.000 A 
ATOM     24  C   UNL     1       1.213   4.008  19.353  0.00  0.00    +0.000 A 
ENDBRANCH  18  19
ENDBRANCH   1  18
TORSDOF 5
ENDMDL
MODEL 6
REMARK VINA RESULT:      -7.1      5.722      8.150
REMARK  Name = 
REMARK  7 active torsions:
REMARK  status: ('A' for Active; 'I' for Inactive)
REMARK    1  A    between atoms: C_1  and  N_2
REMARK    2  A    between atoms: N_2  and  C_3
REMARK    3  A    between atoms: N_2  and  C_4
REMARK    4  A    between atoms: C_4  and  C_5
REMARK    5  A    between atoms: C_5  and  C_6
REMARK    6  A    between atoms: C_6  and  C_7
REMARK    7  A    between atoms: C_16  and  C_17
REMARK                            x       y       z     vdW  Elec       q    Type
REMARK                         _______ _______ _______ _____ _____    ______ ____
ROOT
ATOM      1  C   UNL     1       6.762   5.996  17.104  0.00  0.00    +0.000 C 
ATOM      2  C   UNL     1       6.587   5.664  18.625  0.00  0.00    +0.000 C 
ATOM      3  C   UNL     1       5.296   4.863  18.776  0.00  0.00    +0.000 C 
ATOM      4  C   UNL     1       4.414   5.439  17.729  0.00  0.00    +0.000 C 
ATOM      5  C   UNL     1       3.083   5.344  17.594  0.00  0.00    +0.000 C 
ATOM      6  C   UNL     1       5.284   6.176  16.753  0.00  0.00    +0.000 C 
ATOM      7  O   UNL     1       4.830   6.763  15.783  0.00  0.00    +0.000 OA
ENDROOT
BRANCH   5   8
ATOM      8  C   UNL     1       2.245   4.557  18.499  0.00  0.00    +0.000 A 
ATOM      9  C   UNL     1       1.971   5.013  19.791  0.00  0.00    +0.000 A 
ATOM     10  C   UNL     1       1.171   4.257  20.649  0.00  0.00    +0.000 A 
ATOM     11  C   UNL     1       0.639   3.039  20.220  0.00  0.00    +0.000 A 
ATOM     12  C   UNL     1       0.910   2.577  18.935  0.00  0.00    +0.000 A 
ATOM     13  C   UNL     1       1.713   3.333  18.074  0.00  0.00    +0.000 A 
ENDBRANCH   5   8
BRANCH   1  14
ATOM     14  C   UNL     1       7.560   7.329  16.932  0.00  0.00    +0.000 C 
BRANCH  14  16
ATOM     15  C   UNL     1       8.684   7.883  18.989  0.00  0.00    +0.000 C 
ATOM     16  N   UNL     1       7.701   8.345  17.999  0.00  0.00    +0.000 NA
ATOM     17  C   UNL     1       8.075   9.684  17.559  0.00  0.00    +0.000 C 
ENDBRANCH  14  16
ENDBRANCH   1  14
BRANCH   1  18
ATOM     18  C   UNL     1       7.292   4.760  16.335  0.00  0.00    +0.000 C 
BRANCH  18  19
ATOM     19  C   UNL     1       7.124   4.646  14.830  0.00  0.00    +0.000 A 
ATOM     20  C   UNL     1       7.872   5.358  13.883  0.00  0.00    +0.000 A 
ATOM     21  C   UNL     1       7.669   5.182  12.512  0.00  0.00    +0.000 A 
ATOM     22  C   UNL     1       6.719   4.280  12.059  0.00  0.00    +0.000 A 
ATOM     23  C   UNL     1       5.967   3.555  12.979  0.00  0.00    +0.000 A 
ATOM     24  C   UNL     1       6.167   3.736  14.349  0.00  0.00    +0.000 A 
ENDBRANCH  18  19
ENDBRANCH   1  18
TORSDOF 5
ENDMDL
MODEL 7
REMARK VINA RESULT:      -7.1      0.234      1.407
REMARK  Name = 
REMARK  7 active torsions:
REMARK  status: ('A' for Active; 'I' for Inactive)
REMARK    1  A    between atoms: C_1  and  N_2
REMARK    2  A    between atoms: N_2  and  C_3
REMARK    3  A    between atoms: N_2  and  C_4
REMARK    4  A    between atoms: C_4  and  C_5
REMARK    5  A    between atoms: C_5  and  C_6
REMARK    6  A    between atoms: C_6  and  C_7
REMARK    7  A    between atoms: C_16  and  C_17
REMARK                            x       y       z     vdW  Elec       q    Type
REMARK                         _______ _______ _______ _____ _____    ______ ____
ROOT
ATOM      1  C   UNL     1       0.401  10.184  19.278  0.00  0.00    +0.000 C 
ATOM      2  C   UNL     1       1.121  10.046  17.893  0.00  0.00    +0.000 C 
ATOM      3  C   UNL     1       1.516   8.581  17.724  0.00  0.00    +0.000 C 
ATOM      4  C   UNL     1       1.837   8.153  19.109  0.00  0.00    +0.000 C 
ATOM      5  C   UNL     1       2.520   7.078  19.529  0.00  0.00    +0.000 C 
ATOM      6  C   UNL     1       1.222   9.149  20.049  0.00  0.00    +0.000 C 
ATOM      7  O   UNL     1       1.329   9.059  21.263  0.00  0.00    +0.000 OA
ENDROOT
BRANCH   5   8
ATOM      8  C   UNL     1       3.048   6.064  18.616  0.00  0.00    +0.000 A 
ATOM      9  C   UNL     1       4.253   6.275  17.940  0.00  0.00    +0.000 A 
ATOM     10  C   UNL     1       4.751   5.302  17.071  0.00  0.00    +0.000 A 
ATOM     11  C   UNL     1       4.046   4.113  16.872  0.00  0.00    +0.000 A 
ATOM     12  C   UNL     1       2.844   3.899  17.540  0.00  0.00    +0.000 A 
ATOM     13  C   UNL     1       2.343   4.872  18.410  0.00  0.00    +0.000 A 
ENDBRANCH   5   8
BRANCH   1  14
ATOM     14  C   UNL     1       0.609  11.624  19.851  0.00  0.00    +0.000 C 
BRANCH  14  16
ATOM     15  C   UNL     1       0.080  13.676  18.704  0.00  0.00    +0.000 C 
ATOM     16  N   UNL     1       1.162  12.749  19.064  0.00  0.00    +0.000 NA
ATOM     17  C   UNL     1       2.233  13.506  19.702  0.00  0.00    +0.000 C 
ENDBRANCH  14  16
ENDBRANCH   1  14
BRANCH   1  18
ATOM     18  C   UNL     1      -1.057   9.671  19.188  0.00  0.00    +0.000 C 
BRANCH  18  19
ATOM     19  C   UNL     1      -2.016  10.225  18.148  0.00  0.00    +0.000 A 
ATOM     20  C   UNL     1      -2.963  11.230  18.385  0.00  0.00    +0.000 A 
ATOM     21  C   UNL     1      -3.798  11.700  17.368  0.00  0.00    +0.000 A 
ATOM     22  C   UNL     1      -3.694  11.181  16.087  0.00  0.00    +0.000 A 
ATOM     23  C   UNL     1      -2.755  10.187  15.823  0.00  0.00    +0.000 A 
ATOM     24  C   UNL     1      -1.926   9.714  16.842  0.00  0.00    +0.000 A 
ENDBRANCH  18  19
ENDBRANCH   1  18
TORSDOF 5
ENDMDL
MODEL 8
REMARK VINA RESULT:      -7.1      5.684      8.729
REMARK  Name = 
REMARK  7 active torsions:
REMARK  status: ('A' for Active; 'I' for Inactive)
REMARK    1  A    between atoms: C_1  and  N_2
REMARK    2  A    between atoms: N_2  and  C_3
REMARK    3  A    between atoms: N_2  and  C_4
REMARK    4  A    between atoms: C_4  and  C_5
REMARK    5  A    between atoms: C_5  and  C_6
REMARK    6  A    between atoms: C_6  and  C_7
REMARK    7  A    between atoms: C_16  and  C_17
REMARK                            x       y       z     vdW  Elec       q    Type
REMARK                         _______ _______ _______ _____ _____    ______ ____
ROOT
ATOM      1  C   UNL     1       6.783   5.708  18.067  0.00  0.00    +0.000 C 
ATOM      2  C   UNL     1       8.184   5.704  18.770  0.00  0.00    +0.000 C 
ATOM      3  C   UNL     1       8.501   7.143  19.171  0.00  0.00    +0.000 C 
ATOM      4  C   UNL     1       7.886   7.944  18.082  0.00  0.00    +0.000 C 
ATOM      5  C   UNL     1       8.101   9.224  17.743  0.00  0.00    +0.000 C 
ATOM      6  C   UNL     1       6.896   7.066  17.372  0.00  0.00    +0.000 C 
ATOM      7  O   UNL     1       6.239   7.456  16.419  0.00  0.00    +0.000 OA
ENDROOT
BRANCH   5   8
ATOM      8  C   UNL     1       9.005  10.102  18.486  0.00  0.00    +0.000 A 
ATOM      9  C   UNL     1       8.900  10.221  19.875  0.00  0.00    +0.000 A 
ATOM     10  C   UNL     1       9.767  11.061  20.576  0.00  0.00    +0.000 A 
ATOM     11  C   UNL     1      10.744  11.787  19.893  0.00  0.00    +0.000 A 
ATOM     12  C   UNL     1      10.853  11.676  18.510  0.00  0.00    +0.000 A 
ATOM     13  C   UNL     1       9.984  10.836  17.805  0.00  0.00    +0.000 A 
ENDBRANCH   5   8
BRANCH   1  14
ATOM     14  C   UNL     1       6.697   4.539  17.033  0.00  0.00    +0.000 C 
BRANCH  14  16
ATOM     15  C   UNL     1       6.856   4.477  14.629  0.00  0.00    +0.000 C 
ATOM     16  N   UNL     1       5.935   4.619  15.766  0.00  0.00    +0.000 NA
ATOM     17  C   UNL     1       4.851   3.656  15.613  0.00  0.00    +0.000 C 
ENDBRANCH  14  16
ENDBRANCH   1  14
BRANCH   1  18
ATOM     18  C   UNL     1       5.648   5.798  19.117  0.00  0.00    +0.000 C 
BRANCH  18  19
ATOM     19  C   UNL     1       4.284   5.188  18.846  0.00  0.00    +0.000 A 
ATOM     20  C   UNL     1       3.254   5.812  18.130  0.00  0.00    +0.000 A 
ATOM     21  C   UNL     1       2.031   5.173  17.906  0.00  0.00    +0.000 A 
ATOM     22  C   UNL     1       1.818   3.891  18.386  0.00  0.00    +0.000 A 
ATOM     23  C   UNL     1       2.828   3.245  19.094  0.00  0.00    +0.000 A 
ATOM     24  C   UNL     1       4.047   3.887  19.322  0.00  0.00    +0.000 A 
ENDBRANCH  18  19
ENDBRANCH   1  18
TORSDOF 5
ENDMDL
MODEL 9
REMARK VINA RESULT:      -7.1      5.720      8.117
REMARK  Name = 
REMARK  7 active torsions:
REMARK  status: ('A' for Active; 'I' for Inactive)
REMARK    1  A    between atoms: C_1  and  N_2
REMARK    2  A    between atoms: N_2  and  C_3
REMARK    3  A    between atoms: N_2  and  C_4
REMARK    4  A    between atoms: C_4  and  C_5
REMARK    5  A    between atoms: C_5  and  C_6
REMARK    6  A    between atoms: C_6  and  C_7
REMARK    7  A    between atoms: C_16  and  C_17
REMARK                            x       y       z     vdW  Elec       q    Type
REMARK                         _______ _______ _______ _____ _____    ______ ____
ROOT
ATOM      1  C   UNL     1       6.799   5.969  17.140  0.00  0.00    +0.000 C 
ATOM      2  C   UNL     1       6.606   5.653  18.662  0.00  0.00    +0.000 C 
ATOM      3  C   UNL     1       5.315   4.851  18.805  0.00  0.00    +0.000 C 
ATOM      4  C   UNL     1       4.444   5.414  17.741  0.00  0.00    +0.000 C 
ATOM      5  C   UNL     1       3.116   5.316  17.590  0.00  0.00    +0.000 C 
ATOM      6  C   UNL     1       5.325   6.143  16.769  0.00  0.00    +0.000 C 
ATOM      7  O   UNL     1       4.883   6.720  15.787  0.00  0.00    +0.000 OA
ENDROOT
BRANCH   5   8
ATOM      8  C   UNL     1       2.268   4.537  18.493  0.00  0.00    +0.000 A 
ATOM      9  C   UNL     1       1.742   3.306  18.091  0.00  0.00    +0.000 A 
ATOM     10  C   UNL     1       0.935   2.568  18.958  0.00  0.00    +0.000 A 
ATOM     11  C   UNL     1       0.647   3.057  20.234  0.00  0.00    +0.000 A 
ATOM     12  C   UNL     1       1.165   4.284  20.640  0.00  0.00    +0.000 A 
ATOM     13  C   UNL     1       1.973   5.026  19.773  0.00  0.00    +0.000 A 
ENDBRANCH   5   8
BRANCH   1  14
ATOM     14  C   UNL     1       7.597   7.303  16.964  0.00  0.00    +0.000 C 
BRANCH  14  16
ATOM     15  C   UNL     1       8.702   7.960  19.001  0.00  0.00    +0.000 C 
ATOM     16  N   UNL     1       7.690   8.347  18.008  0.00  0.00    +0.000 NA
ATOM     17  C   UNL     1       7.989   9.694  17.537  0.00  0.00    +0.000 C 
ENDBRANCH  14  16
ENDBRANCH   1  14
BRANCH   1  18
ATOM     18  C   UNL     1       7.341   4.727  16.390  0.00  0.00    +0.000 C 
BRANCH  18  19
ATOM     19  C   UNL     1       7.066   4.528  14.909  0.00  0.00    +0.000 A 
ATOM     20  C   UNL     1       6.061   3.706  14.384  0.00  0.00    +0.000 A 
ATOM     21  C   UNL     1       5.860   3.592  13.005  0.00  0.00    +0.000 A 
ATOM     22  C   UNL     1       6.655   4.307  12.124  0.00  0.00    +0.000 A 
ATOM     23  C   UNL     1       7.657   5.136  12.622  0.00  0.00    +0.000 A 
ATOM     24  C   UNL     1       7.860   5.245  13.999  0.00  0.00    +0.000 A 
ENDBRANCH  18  19
ENDBRANCH   1  18
TORSDOF 5
ENDMDL
