MODEL 1
REMARK VINA RESULT:      -8.0      0.000      0.000
REMARK  Name = 
REMARK  9 active torsions:
REMARK  status: ('A' for Active; 'I' for Inactive)
REMARK    1  A    between atoms: C_1  and  C_2
REMARK    2  A    between atoms: C_5  and  C_6
REMARK    3  A    between atoms: C_8  and  C_9
REMARK    4  A    between atoms: C_9  and  N_10
REMARK    5  A    between atoms: N_10  and  C_11
REMARK    6  A    between atoms: N_10  and  C_16
REMARK    7  A    between atoms: C_11  and  C_12
REMARK    8  A    between atoms: C_16  and  C_17
REMARK    9  A    between atoms: C_22  and  C_23
REMARK                            x       y       z     vdW  Elec       q    Type
REMARK                         _______ _______ _______ _____ _____    ______ ____
ROOT
ATOM      1  C   UNL     1       6.039   5.130  19.048  0.00  0.00    +0.000 C 
ENDROOT
BRANCH   1   4
ATOM      2  C   UNL     1       6.979   5.098  15.614  0.00  0.00    +0.000 A 
ATOM      3  N   UNL     1       6.451   4.500  16.667  0.00  0.00    +0.000 NA
ATOM      4  C   UNL     1       6.657   5.366  17.709  0.00  0.00    +0.000 A 
ATOM      5  C   UNL     1       7.386   6.447  17.267  0.00  0.00    +0.000 A 
ATOM      6  C   UNL     1       7.844   7.699  17.890  0.00  0.00    +0.000 C 
ATOM      7  O   UNL     1       7.613   6.282  15.930  0.00  0.00    +0.000 OA
BRANCH   2  12
ATOM      8  C   UNL     1       5.340   2.527  11.296  0.00  0.00    +0.000 C 
ATOM      9  C   UNL     1       6.064   3.409  12.250  0.00  0.00    +0.000 A 
ATOM     10  C   UNL     1       7.166   4.203  12.015  0.00  0.00    +0.000 A 
ATOM     11  C   UNL     1       7.574   4.904  13.187  0.00  0.00    +0.000 A 
ATOM     12  C   UNL     1       6.786   4.607  14.283  0.00  0.00    +0.000 A 
ATOM     13  S   UNL     1       5.544   3.509  13.879  0.00  0.00    +0.000 S 
ENDBRANCH   2  12
ENDBRANCH   1   4
BRANCH   1  14
ATOM     14  N   UNL     1       4.576   5.046  18.912  0.00  0.00    +0.000 NA
BRANCH  14  15
ATOM     15  C   UNL     1       3.990   6.107  18.056  0.00  0.00    +0.000 C 
BRANCH  15  16
ATOM     16  C   UNL     1       2.611   6.673  18.428  0.00  0.00    +0.000 C 
ATOM     17  C   UNL     1       2.233   7.057  19.886  0.00  0.00    +0.000 C 
ATOM     18  C   UNL     1       1.675   8.392  19.348  0.00  0.00    +0.000 C 
ATOM     19  C   UNL     1       2.528   8.190  18.090  0.00  0.00    +0.000 C 
ENDBRANCH  15  16
ENDBRANCH  14  15
BRANCH  14  20
ATOM     20  C   UNL     1       4.090   3.696  18.582  0.00  0.00    +0.000 C 
BRANCH  20  21
ATOM     21  C   UNL     1       3.016   3.065  19.516  0.00  0.00    +0.000 C 
ATOM     22  C   UNL     1       1.561   3.407  19.216  0.00  0.00    +0.000 C 
ATOM     23  C   UNL     1       0.898   3.146  20.549  0.00  0.00    +0.000 C 
ATOM     24  C   UNL     1       1.956   3.602  21.529  0.00  0.00    +0.000 C 
ATOM     25  O   UNL     1       3.232   3.372  20.908  0.00  0.00    +0.000 OA
ENDBRANCH  20  21
ENDBRANCH  14  20
ENDBRANCH   1  14
TORSDOF 7
ENDMDL
MODEL 2
REMARK VINA RESULT:      -8.0      1.198      3.213
REMARK  Name = 
REMARK  9 active torsions:
REMARK  status: ('A' for Active; 'I' for Inactive)
REMARK    1  A    between atoms: C_1  and  C_2
REMARK    2  A    between atoms: C_5  and  C_6
REMARK    3  A    between atoms: C_8  and  C_9
REMARK    4  A    between atoms: C_9  and  N_10
REMARK    5  A    between atoms: N_10  and  C_11
REMARK    6  A    between atoms: N_10  and  C_16
REMARK    7  A    between atoms: C_11  and  C_12
REMARK    8  A    between atoms: C_16  and  C_17
REMARK    9  A    between atoms: C_22  and  C_23
REMARK                            x       y       z     vdW  Elec       q    Type
REMARK                         _______ _______ _______ _____ _____    ______ ____
ROOT
ATOM      1  C   UNL     1       5.888   5.240  19.089  0.00  0.00    +0.000 C 
ENDROOT
BRANCH   1   4
ATOM      2  C   UNL     1       6.884   5.136  15.673  0.00  0.00    +0.000 A 
ATOM      3  N   UNL     1       6.328   4.565  16.726  0.00  0.00    +0.000 NA
ATOM      4  C   UNL     1       6.532   5.443  17.758  0.00  0.00    +0.000 A 
ATOM      5  C   UNL     1       7.287   6.505  17.311  0.00  0.00    +0.000 A 
ATOM      6  C   UNL     1       7.756   7.758  17.921  0.00  0.00    +0.000 C 
ATOM      7  O   UNL     1       7.533   6.314  15.980  0.00  0.00    +0.000 OA
BRANCH   2  12
ATOM      8  C   UNL     1       5.234   2.566  11.358  0.00  0.00    +0.000 C 
ATOM      9  C   UNL     1       5.978   3.426  12.317  0.00  0.00    +0.000 A 
ATOM     10  C   UNL     1       7.133   4.149  12.102  0.00  0.00    +0.000 A 
ATOM     11  C   UNL     1       7.544   4.851  13.272  0.00  0.00    +0.000 A 
ATOM     12  C   UNL     1       6.705   4.627  14.347  0.00  0.00    +0.000 A 
ATOM     13  S   UNL     1       5.414   3.594  13.925  0.00  0.00    +0.000 S 
ENDBRANCH   2  12
ENDBRANCH   1   4
BRANCH   1  14
ATOM     14  N   UNL     1       4.428   5.151  18.927  0.00  0.00    +0.000 NA
BRANCH  14  15
ATOM     15  C   UNL     1       3.889   3.776  19.075  0.00  0.00    +0.000 C 
BRANCH  15  16
ATOM     16  C   UNL     1       2.512   3.457  18.473  0.00  0.00    +0.000 C 
ATOM     17  C   UNL     1       2.084   2.015  18.086  0.00  0.00    +0.000 C 
ATOM     18  C   UNL     1       0.746   2.258  18.816  0.00  0.00    +0.000 C 
ATOM     19  C   UNL     1       1.424   3.400  19.584  0.00  0.00    +0.000 C 
ENDBRANCH  15  16
ENDBRANCH  14  15
BRANCH  14  20
ATOM     20  C   UNL     1       3.684   6.155  19.707  0.00  0.00    +0.000 C 
BRANCH  20  21
ATOM     21  C   UNL     1       2.581   6.969  18.971  0.00  0.00    +0.000 C 
ATOM     22  C   UNL     1       3.033   7.829  17.795  0.00  0.00    +0.000 C 
ATOM     23  C   UNL     1       1.921   8.849  17.709  0.00  0.00    +0.000 C 
ATOM     24  C   UNL     1       1.574   9.070  19.165  0.00  0.00    +0.000 C 
ATOM     25  O   UNL     1       1.839   7.836  19.852  0.00  0.00    +0.000 OA
ENDBRANCH  20  21
ENDBRANCH  14  20
ENDBRANCH   1  14
TORSDOF 7
ENDMDL
MODEL 3
REMARK VINA RESULT:      -7.6      1.316      3.248
REMARK  Name = 
REMARK  9 active torsions:
REMARK  status: ('A' for Active; 'I' for Inactive)
REMARK    1  A    between atoms: C_1  and  C_2
REMARK    2  A    between atoms: C_5  and  C_6
REMARK    3  A    between atoms: C_8  and  C_9
REMARK    4  A    between atoms: C_9  and  N_10
REMARK    5  A    between atoms: N_10  and  C_11
REMARK    6  A    between atoms: N_10  and  C_16
REMARK    7  A    between atoms: C_11  and  C_12
REMARK    8  A    between atoms: C_16  and  C_17
REMARK    9  A    between atoms: C_22  and  C_23
REMARK                            x       y       z     vdW  Elec       q    Type
REMARK                         _______ _______ _______ _____ _____    ______ ____
ROOT
ATOM      1  C   UNL     1       5.332   5.673  18.912  0.00  0.00    +0.000 C 
ENDROOT
BRANCH   1   4
ATOM      2  C   UNL     1       6.726   5.179  15.674  0.00  0.00    +0.000 A 
ATOM      3  N   UNL     1       5.928   4.792  16.653  0.00  0.00    +0.000 NA
ATOM      4  C   UNL     1       6.174   5.666  17.679  0.00  0.00    +0.000 A 
ATOM      5  C   UNL     1       7.188   6.525  17.315  0.00  0.00    +0.000 A 
ATOM      6  C   UNL     1       7.825   7.687  17.951  0.00  0.00    +0.000 C 
ATOM      7  O   UNL     1       7.562   6.214  16.037  0.00  0.00    +0.000 OA
BRANCH   2  12
ATOM      8  C   UNL     1       5.361   2.475  11.341  0.00  0.00    +0.000 C 
ATOM      9  C   UNL     1       6.027   3.383  12.313  0.00  0.00    +0.000 A 
ATOM     10  C   UNL     1       7.151   4.160  12.128  0.00  0.00    +0.000 A 
ATOM     11  C   UNL     1       7.485   4.897  13.302  0.00  0.00    +0.000 A 
ATOM     12  C   UNL     1       6.620   4.644  14.349  0.00  0.00    +0.000 A 
ATOM     13  S   UNL     1       5.396   3.544  13.897  0.00  0.00    +0.000 S 
ENDBRANCH   2  12
ENDBRANCH   1   4
BRANCH   1  14
ATOM     14  N   UNL     1       3.922   5.887  18.549  0.00  0.00    +0.000 NA
BRANCH  14  15
ATOM     15  C   UNL     1       2.958   5.357  19.546  0.00  0.00    +0.000 C 
BRANCH  15  16
ATOM     16  C   UNL     1       2.507   3.893  19.426  0.00  0.00    +0.000 C 
ATOM     17  C   UNL     1       1.250   3.344  20.155  0.00  0.00    +0.000 C 
ATOM     18  C   UNL     1       0.820   2.680  18.829  0.00  0.00    +0.000 C 
ATOM     19  C   UNL     1       1.742   3.659  18.092  0.00  0.00    +0.000 C 
ENDBRANCH  15  16
ENDBRANCH  14  15
BRANCH  14  20
ATOM     20  C   UNL     1       3.623   7.266  18.126  0.00  0.00    +0.000 C 
BRANCH  20  21
ATOM     21  C   UNL     1       2.193   7.814  18.406  0.00  0.00    +0.000 C 
ATOM     22  C   UNL     1       1.786   9.080  17.659  0.00  0.00    +0.000 C 
ATOM     23  C   UNL     1       0.681   9.618  18.538  0.00  0.00    +0.000 C 
ATOM     24  C   UNL     1       1.173   9.269  19.924  0.00  0.00    +0.000 C 
ATOM     25  O   UNL     1       1.951   8.066  19.804  0.00  0.00    +0.000 OA
ENDBRANCH  20  21
ENDBRANCH  14  20
ENDBRANCH   1  14
TORSDOF 7
ENDMDL
MODEL 4
REMARK VINA RESULT:      -7.6      1.407      3.369
REMARK  Name = 
REMARK  9 active torsions:
REMARK  status: ('A' for Active; 'I' for Inactive)
REMARK    1  A    between atoms: C_1  and  C_2
REMARK    2  A    between atoms: C_5  and  C_6
REMARK    3  A    between atoms: C_8  and  C_9
REMARK    4  A    between atoms: C_9  and  N_10
REMARK    5  A    between atoms: N_10  and  C_11
REMARK    6  A    between atoms: N_10  and  C_16
REMARK    7  A    between atoms: C_11  and  C_12
REMARK    8  A    between atoms: C_16  and  C_17
REMARK    9  A    between atoms: C_22  and  C_23
REMARK                            x       y       z     vdW  Elec       q    Type
REMARK                         _______ _______ _______ _____ _____    ______ ____
ROOT
ATOM      1  C   UNL     1       4.944   5.813  18.695  0.00  0.00    +0.000 C 
ENDROOT
BRANCH   1   4
ATOM      2  C   UNL     1       6.583   5.164  15.602  0.00  0.00    +0.000 A 
ATOM      3  N   UNL     1       5.677   4.850  16.511  0.00  0.00    +0.000 NA
ATOM      4  C   UNL     1       5.890   5.726  17.543  0.00  0.00    +0.000 A 
ATOM      5  C   UNL     1       6.988   6.508  17.260  0.00  0.00    +0.000 A 
ATOM      6  C   UNL     1       7.643   7.638  17.936  0.00  0.00    +0.000 C 
ATOM      7  O   UNL     1       7.452   6.149  16.026  0.00  0.00    +0.000 OA
BRANCH   2  12
ATOM      8  C   UNL     1       5.537   2.354  11.249  0.00  0.00    +0.000 C 
ATOM      9  C   UNL     1       6.116   3.303  12.237  0.00  0.00    +0.000 A 
ATOM     10  C   UNL     1       7.207   4.134  12.090  0.00  0.00    +0.000 A 
ATOM     11  C   UNL     1       7.455   4.897  13.267  0.00  0.00    +0.000 A 
ATOM     12  C   UNL     1       6.560   4.612  14.281  0.00  0.00    +0.000 A 
ATOM     13  S   UNL     1       5.412   3.448  13.792  0.00  0.00    +0.000 S 
ENDBRANCH   2  12
ENDBRANCH   1   4
BRANCH   1  14
ATOM     14  N   UNL     1       3.728   5.037  18.399  0.00  0.00    +0.000 NA
BRANCH  14  15
ATOM     15  C   UNL     1       3.557   3.837  19.255  0.00  0.00    +0.000 C 
BRANCH  15  16
ATOM     16  C   UNL     1       2.586   3.915  20.443  0.00  0.00    +0.000 C 
ATOM     17  C   UNL     1       1.113   3.429  20.350  0.00  0.00    +0.000 C 
ATOM     18  C   UNL     1       1.318   2.677  21.682  0.00  0.00    +0.000 C 
ATOM     19  C   UNL     1       2.829   2.739  21.433  0.00  0.00    +0.000 C 
ENDBRANCH  15  16
ENDBRANCH  14  15
BRANCH  14  20
ATOM     20  C   UNL     1       2.511   5.861  18.301  0.00  0.00    +0.000 C 
BRANCH  20  21
ATOM     21  C   UNL     1       2.616   7.356  18.719  0.00  0.00    +0.000 C 
ATOM     22  C   UNL     1       1.702   7.818  19.850  0.00  0.00    +0.000 C 
ATOM     23  C   UNL     1       1.635   9.308  19.608  0.00  0.00    +0.000 C 
ATOM     24  C   UNL     1       1.643   9.389  18.098  0.00  0.00    +0.000 C 
ATOM     25  O   UNL     1       2.398   8.264  17.620  0.00  0.00    +0.000 OA
ENDBRANCH  20  21
ENDBRANCH  14  20
ENDBRANCH   1  14
TORSDOF 7
ENDMDL
MODEL 5
REMARK VINA RESULT:      -7.5      2.248      7.230
REMARK  Name = 
REMARK  9 active torsions:
REMARK  status: ('A' for Active; 'I' for Inactive)
REMARK    1  A    between atoms: C_1  and  C_2
REMARK    2  A    between atoms: C_5  and  C_6
REMARK    3  A    between atoms: C_8  and  C_9
REMARK    4  A    between atoms: C_9  and  N_10
REMARK    5  A    between atoms: N_10  and  C_11
REMARK    6  A    between atoms: N_10  and  C_16
REMARK    7  A    between atoms: C_11  and  C_12
REMARK    8  A    between atoms: C_16  and  C_17
REMARK    9  A    between atoms: C_22  and  C_23
REMARK                            x       y       z     vdW  Elec       q    Type
REMARK                         _______ _______ _______ _____ _____    ______ ____
ROOT
ATOM      1  C   UNL     1       4.475   3.609  17.322  0.00  0.00    +0.000 C 
ENDROOT
BRANCH   1   4
ATOM      2  C   UNL     1       2.933   6.347  18.996  0.00  0.00    +0.000 A 
ATOM      3  N   UNL     1       3.606   5.859  17.969  0.00  0.00    +0.000 NA
ATOM      4  C   UNL     1       3.879   4.559  18.308  0.00  0.00    +0.000 A 
ATOM      5  C   UNL     1       3.425   4.315  19.585  0.00  0.00    +0.000 A 
ATOM      6  C   UNL     1       3.371   3.122  20.443  0.00  0.00    +0.000 C 
ATOM      7  O   UNL     1       2.830   5.456  20.044  0.00  0.00    +0.000 OA
BRANCH   2  12
ATOM      8  C   UNL     1       0.162  10.725  20.045  0.00  0.00    +0.000 C 
ATOM      9  C   UNL     1       0.978   9.668  19.389  0.00  0.00    +0.000 A 
ATOM     10  C   UNL     1       1.405   9.605  18.079  0.00  0.00    +0.000 A 
ATOM     11  C   UNL     1       2.169   8.429  17.828  0.00  0.00    +0.000 A 
ATOM     12  C   UNL     1       2.284   7.623  18.944  0.00  0.00    +0.000 A 
ATOM     13  S   UNL     1       1.494   8.307  20.292  0.00  0.00    +0.000 S 
ENDBRANCH   2  12
ENDBRANCH   1   4
BRANCH   1  14
ATOM     14  N   UNL     1       5.650   4.226  16.686  0.00  0.00    +0.000 NA
BRANCH  14  15
ATOM     15  C   UNL     1       6.780   4.468  17.617  0.00  0.00    +0.000 C 
BRANCH  15  16
ATOM     16  C   UNL     1       6.894   5.843  18.292  0.00  0.00    +0.000 C 
ATOM     17  C   UNL     1       8.094   6.231  19.199  0.00  0.00    +0.000 C 
ATOM     18  C   UNL     1       8.195   7.564  18.428  0.00  0.00    +0.000 C 
ATOM     19  C   UNL     1       7.409   6.911  17.285  0.00  0.00    +0.000 C 
ENDBRANCH  15  16
ENDBRANCH  14  15
BRANCH  14  20
ATOM     20  C   UNL     1       6.058   3.566  15.434  0.00  0.00    +0.000 C 
BRANCH  20  21
ATOM     21  C   UNL     1       6.321   4.468  14.194  0.00  0.00    +0.000 C 
ATOM     22  C   UNL     1       6.397   3.769  12.841  0.00  0.00    +0.000 C 
ATOM     23  C   UNL     1       7.189   4.761  12.020  0.00  0.00    +0.000 C 
ATOM     24  C   UNL     1       8.170   5.306  13.034  0.00  0.00    +0.000 C 
ATOM     25  O   UNL     1       7.521   5.257  14.316  0.00  0.00    +0.000 OA
ENDBRANCH  20  21
ENDBRANCH  14  20
ENDBRANCH   1  14
TORSDOF 7
ENDMDL
MODEL 6
REMARK VINA RESULT:      -7.3      3.690      7.920
REMARK  Name = 
REMARK  9 active torsions:
REMARK  status: ('A' for Active; 'I' for Inactive)
REMARK    1  A    between atoms: C_1  and  C_2
REMARK    2  A    between atoms: C_5  and  C_6
REMARK    3  A    between atoms: C_8  and  C_9
REMARK    4  A    between atoms: C_9  and  N_10
REMARK    5  A    between atoms: N_10  and  C_11
REMARK    6  A    between atoms: N_10  and  C_16
REMARK    7  A    between atoms: C_11  and  C_12
REMARK    8  A    between atoms: C_16  and  C_17
REMARK    9  A    between atoms: C_22  and  C_23
REMARK                            x       y       z     vdW  Elec       q    Type
REMARK                         _______ _______ _______ _____ _____    ______ ____
ROOT
ATOM      1  C   UNL     1       3.072   5.927  19.703  0.00  0.00    +0.000 C 
ENDROOT
BRANCH   1   4
ATOM      2  C   UNL     1       1.001   8.742  20.376  0.00  0.00    +0.000 A 
ATOM      3  N   UNL     1       1.434   7.534  20.686  0.00  0.00    +0.000 NA
ATOM      4  C   UNL     1       2.243   7.166  19.642  0.00  0.00    +0.000 A 
ATOM      5  C   UNL     1       2.214   8.147  18.675  0.00  0.00    +0.000 A 
ATOM      6  C   UNL     1       2.911   8.345  17.396  0.00  0.00    +0.000 C 
ATOM      7  O   UNL     1       1.411   9.156  19.126  0.00  0.00    +0.000 OA
BRANCH   2  12
ATOM      8  C   UNL     1      -1.251  12.741  23.000  0.00  0.00    +0.000 C 
ATOM      9  C   UNL     1      -0.752  11.405  22.577  0.00  0.00    +0.000 A 
ATOM     10  C   UNL     1      -0.815  10.210  23.263  0.00  0.00    +0.000 A 
ATOM     11  C   UNL     1      -0.224   9.144  22.526  0.00  0.00    +0.000 A 
ATOM     12  C   UNL     1       0.290   9.560  21.312  0.00  0.00    +0.000 A 
ATOM     13  S   UNL     1       0.027  11.228  21.062  0.00  0.00    +0.000 S 
ENDBRANCH   2  12
ENDBRANCH   1   4
BRANCH   1  14
ATOM     14  N   UNL     1       3.136   5.306  18.369  0.00  0.00    +0.000 NA
BRANCH  14  15
ATOM     15  C   UNL     1       4.497   4.863  17.977  0.00  0.00    +0.000 C 
BRANCH  15  16
ATOM     16  C   UNL     1       4.821   4.723  16.482  0.00  0.00    +0.000 C 
ATOM     17  C   UNL     1       5.313   5.918  15.619  0.00  0.00    +0.000 C 
ATOM     18  C   UNL     1       6.425   5.006  15.059  0.00  0.00    +0.000 C 
ATOM     19  C   UNL     1       6.231   4.097  16.278  0.00  0.00    +0.000 C 
ENDBRANCH  15  16
ENDBRANCH  14  15
BRANCH  14  20
ATOM     20  C   UNL     1       2.103   4.281  18.145  0.00  0.00    +0.000 C 
BRANCH  20  21
ATOM     21  C   UNL     1       1.856   3.243  19.279  0.00  0.00    +0.000 C 
ATOM     22  C   UNL     1       0.949   3.681  20.424  0.00  0.00    +0.000 C 
ATOM     23  C   UNL     1       1.375   2.749  21.534  0.00  0.00    +0.000 C 
ATOM     24  C   UNL     1       2.864   2.624  21.295  0.00  0.00    +0.000 C 
ATOM     25  O   UNL     1       3.076   2.767  19.881  0.00  0.00    +0.000 OA
ENDBRANCH  20  21
ENDBRANCH  14  20
ENDBRANCH   1  14
TORSDOF 7
ENDMDL
MODEL 7
REMARK VINA RESULT:      -7.3      3.319      6.956
REMARK  Name = 
REMARK  9 active torsions:
REMARK  status: ('A' for Active; 'I' for Inactive)
REMARK    1  A    between atoms: C_1  and  C_2
REMARK    2  A    between atoms: C_5  and  C_6
REMARK    3  A    between atoms: C_8  and  C_9
REMARK    4  A    between atoms: C_9  and  N_10
REMARK    5  A    between atoms: N_10  and  C_11
REMARK    6  A    between atoms: N_10  and  C_16
REMARK    7  A    between atoms: C_11  and  C_12
REMARK    8  A    between atoms: C_16  and  C_17
REMARK    9  A    between atoms: C_22  and  C_23
REMARK                            x       y       z     vdW  Elec       q    Type
REMARK                         _______ _______ _______ _____ _____    ______ ____
ROOT
ATOM      1  C   UNL     1       6.087   6.400  16.779  0.00  0.00    +0.000 C 
ENDROOT
BRANCH   1   4
ATOM      2  C   UNL     1       8.304   8.831  18.138  0.00  0.00    +0.000 A 
ATOM      3  N   UNL     1       7.445   8.450  17.209  0.00  0.00    +0.000 NA
ATOM      4  C   UNL     1       7.164   7.140  17.499  0.00  0.00    +0.000 A 
ATOM      5  C   UNL     1       7.934   6.734  18.566  0.00  0.00    +0.000 A 
ATOM      6  C   UNL     1       8.024   5.494  19.352  0.00  0.00    +0.000 C 
ATOM      7  O   UNL     1       8.680   7.803  18.976  0.00  0.00    +0.000 OA
BRANCH   2  12
ATOM      8  C   UNL     1      10.240  13.424  19.899  0.00  0.00    +0.000 C 
ATOM      9  C   UNL     1       9.553  12.367  19.109  0.00  0.00    +0.000 A 
ATOM     10  C   UNL     1       8.780  12.510  17.976  0.00  0.00    +0.000 A 
ATOM     11  C   UNL     1       8.290  11.257  17.507  0.00  0.00    +0.000 A 
ATOM     12  C   UNL     1       8.685  10.201  18.307  0.00  0.00    +0.000 A 
ATOM     13  S   UNL     1       9.668  10.729  19.598  0.00  0.00    +0.000 S 
ENDBRANCH   2  12
ENDBRANCH   1   4
BRANCH   1  14
ATOM     14  N   UNL     1       6.145   4.971  17.130  0.00  0.00    +0.000 NA
BRANCH  14  15
ATOM     15  C   UNL     1       4.973   4.495  17.908  0.00  0.00    +0.000 C 
BRANCH  15  16
ATOM     16  C   UNL     1       3.592   4.507  17.235  0.00  0.00    +0.000 C 
ATOM     17  C   UNL     1       2.614   3.303  17.318  0.00  0.00    +0.000 C 
ATOM     18  C   UNL     1       1.487   4.294  17.680  0.00  0.00    +0.000 C 
ATOM     19  C   UNL     1       2.566   5.300  18.095  0.00  0.00    +0.000 C 
ENDBRANCH  15  16
ENDBRANCH  14  15
BRANCH  14  20
ATOM     20  C   UNL     1       6.484   4.097  15.995  0.00  0.00    +0.000 C 
BRANCH  20  21
ATOM     21  C   UNL     1       6.513   4.735  14.575  0.00  0.00    +0.000 C 
ATOM     22  C   UNL     1       6.271   3.797  13.397  0.00  0.00    +0.000 C 
ATOM     23  C   UNL     1       6.909   4.556  12.257  0.00  0.00    +0.000 C 
ATOM     24  C   UNL     1       8.105   5.195  12.927  0.00  0.00    +0.000 C 
ATOM     25  O   UNL     1       7.744   5.433  14.297  0.00  0.00    +0.000 OA
ENDBRANCH  20  21
ENDBRANCH  14  20
ENDBRANCH   1  14
TORSDOF 7
ENDMDL
MODEL 8
REMARK VINA RESULT:      -7.2      1.131      1.228
REMARK  Name = 
REMARK  9 active torsions:
REMARK  status: ('A' for Active; 'I' for Inactive)
REMARK    1  A    between atoms: C_1  and  C_2
REMARK    2  A    between atoms: C_5  and  C_6
REMARK    3  A    between atoms: C_8  and  C_9
REMARK    4  A    between atoms: C_9  and  N_10
REMARK    5  A    between atoms: N_10  and  C_11
REMARK    6  A    between atoms: N_10  and  C_16
REMARK    7  A    between atoms: C_11  and  C_12
REMARK    8  A    between atoms: C_16  and  C_17
REMARK    9  A    between atoms: C_22  and  C_23
REMARK                            x       y       z     vdW  Elec       q    Type
REMARK                         _______ _______ _______ _____ _____    ______ ____
ROOT
ATOM      1  C   UNL     1       5.566   5.242  18.988  0.00  0.00    +0.000 C 
ENDROOT
BRANCH   1   4
ATOM      2  C   UNL     1       6.787   5.049  15.650  0.00  0.00    +0.000 A 
ATOM      3  N   UNL     1       6.112   4.528  16.658  0.00  0.00    +0.000 NA
ATOM      4  C   UNL     1       6.317   5.388  17.706  0.00  0.00    +0.000 A 
ATOM      5  C   UNL     1       7.189   6.381  17.318  0.00  0.00    +0.000 A 
ATOM      6  C   UNL     1       7.720   7.590  17.965  0.00  0.00    +0.000 C 
ATOM      7  O   UNL     1       7.511   6.167  16.007  0.00  0.00    +0.000 OA
BRANCH   2  12
ATOM      8  C   UNL     1       5.330   2.497  11.255  0.00  0.00    +0.000 C 
ATOM      9  C   UNL     1       6.022   3.364  12.246  0.00  0.00    +0.000 A 
ATOM     10  C   UNL     1       7.159   4.124  12.072  0.00  0.00    +0.000 A 
ATOM     11  C   UNL     1       7.518   4.821  13.263  0.00  0.00    +0.000 A 
ATOM     12  C   UNL     1       6.658   4.555  14.312  0.00  0.00    +0.000 A 
ATOM     13  S   UNL     1       5.410   3.491  13.841  0.00  0.00    +0.000 S 
ENDBRANCH   2  12
ENDBRANCH   1   4
BRANCH   1  14
ATOM     14  N   UNL     1       4.147   5.567  18.773  0.00  0.00    +0.000 NA
BRANCH  14  15
ATOM     15  C   UNL     1       3.826   7.005  18.950  0.00  0.00    +0.000 C 
BRANCH  15  16
ATOM     16  C   UNL     1       2.382   7.471  18.707  0.00  0.00    +0.000 C 
ATOM     17  C   UNL     1       1.626   8.397  19.699  0.00  0.00    +0.000 C 
ATOM     18  C   UNL     1       1.189   9.262  18.497  0.00  0.00    +0.000 C 
ATOM     19  C   UNL     1       2.346   8.653  17.696  0.00  0.00    +0.000 C 
ENDBRANCH  15  16
ENDBRANCH  14  15
BRANCH  14  20
ATOM     20  C   UNL     1       3.591   4.995  17.535  0.00  0.00    +0.000 C 
BRANCH  20  21
ATOM     21  C   UNL     1       2.589   3.812  17.672  0.00  0.00    +0.000 C 
ATOM     22  C   UNL     1       1.449   3.991  18.669  0.00  0.00    +0.000 C 
ATOM     23  C   UNL     1       1.062   2.559  18.962  0.00  0.00    +0.000 C 
ATOM     24  C   UNL     1       2.400   1.853  18.935  0.00  0.00    +0.000 C 
ATOM     25  O   UNL     1       3.233   2.565  18.004  0.00  0.00    +0.000 OA
ENDBRANCH  20  21
ENDBRANCH  14  20
ENDBRANCH   1  14
TORSDOF 7
ENDMDL
MODEL 9
REMARK VINA RESULT:      -7.1      2.296      7.371
REMARK  Name = 
REMARK  9 active torsions:
REMARK  status: ('A' for Active; 'I' for Inactive)
REMARK    1  A    between atoms: C_1  and  C_2
REMARK    2  A    between atoms: C_5  and  C_6
REMARK    3  A    between atoms: C_8  and  C_9
REMARK    4  A    between atoms: C_9  and  N_10
REMARK    5  A    between atoms: N_10  and  C_11
REMARK    6  A    between atoms: N_10  and  C_16
REMARK    7  A    between atoms: C_11  and  C_12
REMARK    8  A    between atoms: C_16  and  C_17
REMARK    9  A    between atoms: C_22  and  C_23
REMARK                            x       y       z     vdW  Elec       q    Type
REMARK                         _______ _______ _______ _____ _____    ______ ____
ROOT
ATOM      1  C   UNL     1       4.024   4.025  16.759  0.00  0.00    +0.000 C 
ENDROOT
BRANCH   1   4
ATOM      2  C   UNL     1       2.769   6.625  18.841  0.00  0.00    +0.000 A 
ATOM      3  N   UNL     1       3.277   6.217  17.692  0.00  0.00    +0.000 NA
ATOM      4  C   UNL     1       3.589   4.897  17.889  0.00  0.00    +0.000 A 
ATOM      5  C   UNL     1       3.329   4.557  19.199  0.00  0.00    +0.000 A 
ATOM      6  C   UNL     1       3.395   3.304  19.965  0.00  0.00    +0.000 C 
ATOM      7  O   UNL     1       2.817   5.659  19.824  0.00  0.00    +0.000 OA
BRANCH   2  12
ATOM      8  C   UNL     1       0.051  10.827  20.546  0.00  0.00    +0.000 C 
ATOM      9  C   UNL     1       0.846   9.868  19.733  0.00  0.00    +0.000 A 
ATOM     10  C   UNL     1       1.245   9.985  18.418  0.00  0.00    +0.000 A 
ATOM     11  C   UNL     1       1.995   8.852  17.989  0.00  0.00    +0.000 A 
ATOM     12  C   UNL     1       2.128   7.898  18.980  0.00  0.00    +0.000 A 
ATOM     13  S   UNL     1       1.371   8.393  20.427  0.00  0.00    +0.000 S 
ENDBRANCH   2  12
ENDBRANCH   1   4
BRANCH   1  14
ATOM     14  N   UNL     1       5.476   4.160  16.558  0.00  0.00    +0.000 NA
BRANCH  14  15
ATOM     15  C   UNL     1       5.848   4.829  15.286  0.00  0.00    +0.000 C 
BRANCH  15  16
ATOM     16  C   UNL     1       6.504   3.990  14.179  0.00  0.00    +0.000 C 
ATOM     17  C   UNL     1       5.741   3.558  12.897  0.00  0.00    +0.000 C 
ATOM     18  C   UNL     1       6.954   4.026  12.064  0.00  0.00    +0.000 C 
ATOM     19  C   UNL     1       7.386   4.883  13.260  0.00  0.00    +0.000 C 
ENDBRANCH  15  16
ENDBRANCH  14  15
BRANCH  14  20
ATOM     20  C   UNL     1       6.187   4.699  17.729  0.00  0.00    +0.000 C 
BRANCH  20  21
ATOM     21  C   UNL     1       7.170   5.883  17.496  0.00  0.00    +0.000 C 
ATOM     22  C   UNL     1       7.933   6.391  18.715  0.00  0.00    +0.000 C 
ATOM     23  C   UNL     1       8.299   7.795  18.292  0.00  0.00    +0.000 C 
ATOM     24  C   UNL     1       7.082   8.219  17.501  0.00  0.00    +0.000 C 
ATOM     25  O   UNL     1       6.534   7.033  16.902  0.00  0.00    +0.000 OA
ENDBRANCH  20  21
ENDBRANCH  14  20
ENDBRANCH   1  14
TORSDOF 7
ENDMDL
