MODEL 1
REMARK VINA RESULT:      -7.5      0.000      0.000
REMARK  Name = 
REMARK  8 active torsions:
REMARK  status: ('A' for Active; 'I' for Inactive)
REMARK    1  A    between atoms: C_2  and  C_3
REMARK    2  A    between atoms: C_3  and  O_4
REMARK    3  A    between atoms: O_4  and  C_5
REMARK    4  A    between atoms: C_10  and  C_11
REMARK    5  A    between atoms: C_11  and  N_12
REMARK    6  A    between atoms: C_14  and  C_15
REMARK    7  A    between atoms: C_19  and  C_20
REMARK    8  A    between atoms: C_19  and  C_21
REMARK                            x       y       z     vdW  Elec       q    Type
REMARK                         _______ _______ _______ _____ _____    ______ ____
ROOT
ATOM      1  C   UNL     1       5.893   3.603  16.784  0.00  0.00    +0.000 C 
ENDROOT
BRANCH   1   2
ATOM      2  N   UNL     1       4.553   3.918  17.424  0.00  0.00    +0.000 NA
ATOM      3  C   UNL     1       3.954   5.191  16.960  0.00  0.00    +0.000 C 
ATOM      4  C   UNL     1       3.138   5.649  18.184  0.00  0.00    +0.000 C 
ATOM      5  C   UNL     1       2.877   7.153  18.263  0.00  0.00    +0.000 C 
ATOM      6  C   UNL     1       4.166   5.312  19.269  0.00  0.00    +0.000 C 
ATOM      7  C   UNL     1       4.438   3.872  18.922  0.00  0.00    +0.000 C 
ATOM      8  C   UNL     1       3.211   3.156  19.624  0.00  0.00    +0.000 C 
ATOM      9  C   UNL     1       1.768   3.631  19.236  0.00  0.00    +0.000 C 
ATOM     10  C   UNL     1       1.004   2.372  18.748  0.00  0.00    +0.000 C 
ATOM     11  C   UNL     1       0.890   4.142  20.418  0.00  0.00    +0.000 C 
ATOM     12  C   UNL     1       1.818   4.785  18.203  0.00  0.00    +0.000 C 
ENDBRANCH   1   2
BRANCH   1  18
ATOM     13  C   UNL     1       7.190   4.954  14.908  0.00  0.00    +0.000 A 
ATOM     14  C   UNL     1       7.486   5.102  13.544  0.00  0.00    +0.000 A 
ATOM     15  C   UNL     1       6.735   4.465  12.552  0.00  0.00    +0.000 A 
ATOM     16  C   UNL     1       5.687   3.643  12.929  0.00  0.00    +0.000 A 
ATOM     17  C   UNL     1       5.461   3.368  14.279  0.00  0.00    +0.000 A 
ATOM     18  C   UNL     1       6.228   3.968  15.312  0.00  0.00    +0.000 A 
BRANCH  13  19
ATOM     19  O   UNL     1       7.724   5.803  15.854  0.00  0.00    +0.000 OA
BRANCH  19  20
ATOM     20  C   UNL     1       6.863   6.736  16.552  0.00  0.00    +0.000 C 
BRANCH  20  22
ATOM     21  C   UNL     1       8.009   8.616  17.834  0.00  0.00    +0.000 C 
ATOM     22  C   UNL     1       7.481   7.387  17.779  0.00  0.00    +0.000 C 
ENDBRANCH  20  22
ENDBRANCH  19  20
ENDBRANCH  13  19
ENDBRANCH   1  18
TORSDOF 5
ENDMDL
MODEL 2
REMARK VINA RESULT:      -7.5      3.653      7.069
REMARK  Name = 
REMARK  8 active torsions:
REMARK  status: ('A' for Active; 'I' for Inactive)
REMARK    1  A    between atoms: C_2  and  C_3
REMARK    2  A    between atoms: C_3  and  O_4
REMARK    3  A    between atoms: O_4  and  C_5
REMARK    4  A    between atoms: C_10  and  C_11
REMARK    5  A    between atoms: C_11  and  N_12
REMARK    6  A    between atoms: C_14  and  C_15
REMARK    7  A    between atoms: C_19  and  C_20
REMARK    8  A    between atoms: C_19  and  C_21
REMARK                            x       y       z     vdW  Elec       q    Type
REMARK                         _______ _______ _______ _____ _____    ______ ____
ROOT
ATOM      1  C   UNL     1       2.300   6.557  19.642  0.00  0.00    +0.000 C 
ENDROOT
BRANCH   1   2
ATOM      2  N   UNL     1       3.104   5.761  18.631  0.00  0.00    +0.000 NA
ATOM      3  C   UNL     1       2.501   4.452  18.286  0.00  0.00    +0.000 C 
ATOM      4  C   UNL     1       3.731   3.589  17.945  0.00  0.00    +0.000 C 
ATOM      5  C   UNL     1       3.532   2.083  18.111  0.00  0.00    +0.000 C 
ATOM      6  C   UNL     1       4.643   4.051  19.086  0.00  0.00    +0.000 C 
ATOM      7  C   UNL     1       4.570   5.542  18.881  0.00  0.00    +0.000 C 
ATOM      8  C   UNL     1       5.633   5.740  17.723  0.00  0.00    +0.000 C 
ATOM      9  C   UNL     1       5.438   4.917  16.403  0.00  0.00    +0.000 C 
ATOM     10  C   UNL     1       5.390   5.946  15.243  0.00  0.00    +0.000 C 
ATOM     11  C   UNL     1       6.629   3.992  16.007  0.00  0.00    +0.000 C 
ATOM     12  C   UNL     1       4.190   4.002  16.493  0.00  0.00    +0.000 C 
ENDBRANCH   1   2
BRANCH   1  18
ATOM     13  C   UNL     1       1.221   8.864  20.375  0.00  0.00    +0.000 A 
ATOM     14  C   UNL     1       0.992  10.215  20.070  0.00  0.00    +0.000 A 
ATOM     15  C   UNL     1       1.189  10.727  18.784  0.00  0.00    +0.000 A 
ATOM     16  C   UNL     1       1.650   9.881  17.790  0.00  0.00    +0.000 A 
ATOM     17  C   UNL     1       2.019   8.570  18.099  0.00  0.00    +0.000 A 
ATOM     18  C   UNL     1       1.868   8.028  19.402  0.00  0.00    +0.000 A 
BRANCH  13  19
ATOM     19  O   UNL     1       0.746   8.301  21.540  0.00  0.00    +0.000 OA
BRANCH  19  20
ATOM     20  C   UNL     1      -0.547   8.700  22.057  0.00  0.00    +0.000 C 
BRANCH  20  22
ATOM     21  C   UNL     1      -1.196  10.922  23.120  0.00  0.00    +0.000 C 
ATOM     22  C   UNL     1      -0.506   9.776  23.130  0.00  0.00    +0.000 C 
ENDBRANCH  20  22
ENDBRANCH  19  20
ENDBRANCH  13  19
ENDBRANCH   1  18
TORSDOF 5
ENDMDL
MODEL 3
REMARK VINA RESULT:      -7.4      1.008      3.468
REMARK  Name = 
REMARK  8 active torsions:
REMARK  status: ('A' for Active; 'I' for Inactive)
REMARK    1  A    between atoms: C_2  and  C_3
REMARK    2  A    between atoms: C_3  and  O_4
REMARK    3  A    between atoms: O_4  and  C_5
REMARK    4  A    between atoms: C_10  and  C_11
REMARK    5  A    between atoms: C_11  and  N_12
REMARK    6  A    between atoms: C_14  and  C_15
REMARK    7  A    between atoms: C_19  and  C_20
REMARK    8  A    between atoms: C_19  and  C_21
REMARK                            x       y       z     vdW  Elec       q    Type
REMARK                         _______ _______ _______ _____ _____    ______ ____
ROOT
ATOM      1  C   UNL     1       6.109   4.224  17.866  0.00  0.00    +0.000 C 
ENDROOT
BRANCH   1   2
ATOM      2  N   UNL     1       4.623   4.125  18.157  0.00  0.00    +0.000 NA
ATOM      3  C   UNL     1       3.807   5.136  17.445  0.00  0.00    +0.000 C 
ATOM      4  C   UNL     1       2.620   5.353  18.403  0.00  0.00    +0.000 C 
ATOM      5  C   UNL     1       1.917   6.703  18.269  0.00  0.00    +0.000 C 
ATOM      6  C   UNL     1       3.406   5.383  19.718  0.00  0.00    +0.000 C 
ATOM      7  C   UNL     1       4.167   4.088  19.589  0.00  0.00    +0.000 C 
ATOM      8  C   UNL     1       3.072   3.047  20.069  0.00  0.00    +0.000 C 
ATOM      9  C   UNL     1       1.693   3.040  19.324  0.00  0.00    +0.000 C 
ATOM     10  C   UNL     1       1.477   1.593  18.808  0.00  0.00    +0.000 C 
ATOM     11  C   UNL     1       0.444   3.286  20.223  0.00  0.00    +0.000 C 
ATOM     12  C   UNL     1       1.650   4.122  18.216  0.00  0.00    +0.000 C 
ENDBRANCH   1   2
BRANCH   1  18
ATOM     13  C   UNL     1       6.942   6.500  16.792  0.00  0.00    +0.000 A 
ATOM     14  C   UNL     1       7.576   7.737  16.981  0.00  0.00    +0.000 A 
ATOM     15  C   UNL     1       8.324   8.017  18.129  0.00  0.00    +0.000 A 
ATOM     16  C   UNL     1       8.416   7.054  19.120  0.00  0.00    +0.000 A 
ATOM     17  C   UNL     1       7.681   5.871  19.019  0.00  0.00    +0.000 A 
ATOM     18  C   UNL     1       6.882   5.570  17.885  0.00  0.00    +0.000 A 
BRANCH  13  19
ATOM     19  O   UNL     1       6.470   6.118  15.554  0.00  0.00    +0.000 OA
BRANCH  19  20
ATOM     20  C   UNL     1       7.153   5.076  14.814  0.00  0.00    +0.000 C 
BRANCH  20  22
ATOM     21  C   UNL     1       6.081   3.685  12.969  0.00  0.00    +0.000 C 
ATOM     22  C   UNL     1       6.252   3.983  14.262  0.00  0.00    +0.000 C 
ENDBRANCH  20  22
ENDBRANCH  19  20
ENDBRANCH  13  19
ENDBRANCH   1  18
TORSDOF 5
ENDMDL
MODEL 4
REMARK VINA RESULT:      -7.3      1.260      2.274
REMARK  Name = 
REMARK  8 active torsions:
REMARK  status: ('A' for Active; 'I' for Inactive)
REMARK    1  A    between atoms: C_2  and  C_3
REMARK    2  A    between atoms: C_3  and  O_4
REMARK    3  A    between atoms: O_4  and  C_5
REMARK    4  A    between atoms: C_10  and  C_11
REMARK    5  A    between atoms: C_11  and  N_12
REMARK    6  A    between atoms: C_14  and  C_15
REMARK    7  A    between atoms: C_19  and  C_20
REMARK    8  A    between atoms: C_19  and  C_21
REMARK                            x       y       z     vdW  Elec       q    Type
REMARK                         _______ _______ _______ _____ _____    ______ ____
ROOT
ATOM      1  C   UNL     1       4.642   5.769  16.703  0.00  0.00    +0.000 C 
ENDROOT
BRANCH   1   2
ATOM      2  N   UNL     1       4.009   4.897  17.772  0.00  0.00    +0.000 NA
ATOM      3  C   UNL     1       4.729   3.623  18.006  0.00  0.00    +0.000 C 
ATOM      4  C   UNL     1       3.603   2.672  18.454  0.00  0.00    +0.000 C 
ATOM      5  C   UNL     1       3.877   1.187  18.220  0.00  0.00    +0.000 C 
ATOM      6  C   UNL     1       2.541   3.100  17.436  0.00  0.00    +0.000 C 
ATOM      7  C   UNL     1       2.541   4.587  17.677  0.00  0.00    +0.000 C 
ATOM      8  C   UNL     1       1.604   4.685  18.952  0.00  0.00    +0.000 C 
ATOM      9  C   UNL     1       1.998   3.846  20.215  0.00  0.00    +0.000 C 
ATOM     10  C   UNL     1       2.111   4.848  21.395  0.00  0.00    +0.000 C 
ATOM     11  C   UNL     1       0.921   2.834  20.711  0.00  0.00    +0.000 C 
ATOM     12  C   UNL     1       3.284   3.019  19.960  0.00  0.00    +0.000 C 
ENDBRANCH   1   2
BRANCH   1  18
ATOM     13  C   UNL     1       6.872   5.398  15.318  0.00  0.00    +0.000 A 
ATOM     14  C   UNL     1       7.520   4.717  14.276  0.00  0.00    +0.000 A 
ATOM     15  C   UNL     1       6.812   3.999  13.309  0.00  0.00    +0.000 A 
ATOM     16  C   UNL     1       5.432   3.934  13.399  0.00  0.00    +0.000 A 
ATOM     17  C   UNL     1       4.774   4.484  14.502  0.00  0.00    +0.000 A 
ATOM     18  C   UNL     1       5.466   5.188  15.522  0.00  0.00    +0.000 A 
BRANCH  13  19
ATOM     19  O   UNL     1       7.531   6.339  16.080  0.00  0.00    +0.000 OA
BRANCH  19  20
ATOM     20  C   UNL     1       7.504   6.242  17.525  0.00  0.00    +0.000 C 
BRANCH  20  22
ATOM     21  C   UNL     1       8.003   8.724  17.808  0.00  0.00    +0.000 C 
ATOM     22  C   UNL     1       8.026   7.466  18.261  0.00  0.00    +0.000 C 
ENDBRANCH  20  22
ENDBRANCH  19  20
ENDBRANCH  13  19
ENDBRANCH   1  18
TORSDOF 5
ENDMDL
MODEL 5
REMARK VINA RESULT:      -7.2      1.938      6.210
REMARK  Name = 
REMARK  8 active torsions:
REMARK  status: ('A' for Active; 'I' for Inactive)
REMARK    1  A    between atoms: C_2  and  C_3
REMARK    2  A    between atoms: C_3  and  O_4
REMARK    3  A    between atoms: O_4  and  C_5
REMARK    4  A    between atoms: C_10  and  C_11
REMARK    5  A    between atoms: C_11  and  N_12
REMARK    6  A    between atoms: C_14  and  C_15
REMARK    7  A    between atoms: C_19  and  C_20
REMARK    8  A    between atoms: C_19  and  C_21
REMARK                            x       y       z     vdW  Elec       q    Type
REMARK                         _______ _______ _______ _____ _____    ______ ____
ROOT
ATOM      1  C   UNL     1       2.673   4.434  17.486  0.00  0.00    +0.000 C 
ENDROOT
BRANCH   1   2
ATOM      2  N   UNL     1       4.059   4.443  16.869  0.00  0.00    +0.000 NA
ATOM      3  C   UNL     1       5.121   3.957  17.780  0.00  0.00    +0.000 C 
ATOM      4  C   UNL     1       6.362   4.737  17.305  0.00  0.00    +0.000 C 
ATOM      5  C   UNL     1       7.457   4.915  18.355  0.00  0.00    +0.000 C 
ATOM      6  C   UNL     1       5.697   6.103  17.110  0.00  0.00    +0.000 C 
ATOM      7  C   UNL     1       4.552   5.704  16.216  0.00  0.00    +0.000 C 
ATOM      8  C   UNL     1       5.272   5.663  14.805  0.00  0.00    +0.000 C 
ATOM      9  C   UNL     1       6.534   4.745  14.654  0.00  0.00    +0.000 C 
ATOM     10  C   UNL     1       6.241   3.782  13.473  0.00  0.00    +0.000 C 
ATOM     11  C   UNL     1       7.840   5.468  14.207  0.00  0.00    +0.000 C 
ATOM     12  C   UNL     1       6.868   4.030  15.988  0.00  0.00    +0.000 C 
ENDBRANCH   1   2
BRANCH   1  18
ATOM     13  C   UNL     1       2.541   4.971  20.078  0.00  0.00    +0.000 A 
ATOM     14  C   UNL     1       2.162   4.542  21.360  0.00  0.00    +0.000 A 
ATOM     15  C   UNL     1       1.857   3.205  21.632  0.00  0.00    +0.000 A 
ATOM     16  C   UNL     1       1.903   2.284  20.599  0.00  0.00    +0.000 A 
ATOM     17  C   UNL     1       2.139   2.709  19.290  0.00  0.00    +0.000 A 
ATOM     18  C   UNL     1       2.416   4.065  18.972  0.00  0.00    +0.000 A 
BRANCH  13  19
ATOM     19  O   UNL     1       3.126   6.203  19.879  0.00  0.00    +0.000 OA
BRANCH  19  20
ATOM     20  C   UNL     1       2.292   7.369  19.663  0.00  0.00    +0.000 C 
BRANCH  20  22
ATOM     21  C   UNL     1       1.628   8.938  17.769  0.00  0.00    +0.000 C 
ATOM     22  C   UNL     1       2.454   8.032  18.304  0.00  0.00    +0.000 C 
ENDBRANCH  20  22
ENDBRANCH  19  20
ENDBRANCH  13  19
ENDBRANCH   1  18
TORSDOF 5
ENDMDL
MODEL 6
REMARK VINA RESULT:      -7.1      2.132      6.677
REMARK  Name = 
REMARK  8 active torsions:
REMARK  status: ('A' for Active; 'I' for Inactive)
REMARK    1  A    between atoms: C_2  and  C_3
REMARK    2  A    between atoms: C_3  and  O_4
REMARK    3  A    between atoms: O_4  and  C_5
REMARK    4  A    between atoms: C_10  and  C_11
REMARK    5  A    between atoms: C_11  and  N_12
REMARK    6  A    between atoms: C_14  and  C_15
REMARK    7  A    between atoms: C_19  and  C_20
REMARK    8  A    between atoms: C_19  and  C_21
REMARK                            x       y       z     vdW  Elec       q    Type
REMARK                         _______ _______ _______ _____ _____    ______ ____
ROOT
ATOM      1  C   UNL     1       2.944   4.944  17.784  0.00  0.00    +0.000 C 
ENDROOT
BRANCH   1   2
ATOM      2  N   UNL     1       4.285   4.838  17.081  0.00  0.00    +0.000 NA
ATOM      3  C   UNL     1       5.384   4.374  17.959  0.00  0.00    +0.000 C 
ATOM      4  C   UNL     1       6.622   5.052  17.344  0.00  0.00    +0.000 C 
ATOM      5  C   UNL     1       7.793   5.259  18.305  0.00  0.00    +0.000 C 
ATOM      6  C   UNL     1       6.006   6.430  17.081  0.00  0.00    +0.000 C 
ATOM      7  C   UNL     1       4.787   6.018  16.297  0.00  0.00    +0.000 C 
ATOM      8  C   UNL     1       5.408   5.832  14.851  0.00  0.00    +0.000 C 
ATOM      9  C   UNL     1       6.616   4.845  14.696  0.00  0.00    +0.000 C 
ATOM     10  C   UNL     1       6.203   3.808  13.618  0.00  0.00    +0.000 C 
ATOM     11  C   UNL     1       7.919   5.467  14.109  0.00  0.00    +0.000 C 
ATOM     12  C   UNL     1       7.008   4.222  16.059  0.00  0.00    +0.000 C 
ENDBRANCH   1   2
BRANCH   1  18
ATOM     13  C   UNL     1       2.200   6.262  19.959  0.00  0.00    +0.000 A 
ATOM     14  C   UNL     1       1.923   7.501  20.558  0.00  0.00    +0.000 A 
ATOM     15  C   UNL     1       1.730   8.661  19.801  0.00  0.00    +0.000 A 
ATOM     16  C   UNL     1       1.844   8.589  18.423  0.00  0.00    +0.000 A 
ATOM     17  C   UNL     1       2.256   7.402  17.815  0.00  0.00    +0.000 A 
ATOM     18  C   UNL     1       2.497   6.215  18.555  0.00  0.00    +0.000 A 
BRANCH  13  19
ATOM     19  O   UNL     1       2.090   5.084  20.667  0.00  0.00    +0.000 OA
BRANCH  19  20
ATOM     20  C   UNL     1       0.880   4.294  20.564  0.00  0.00    +0.000 C 
BRANCH  20  22
ATOM     21  C   UNL     1       0.792   2.347  18.923  0.00  0.00    +0.000 C 
ATOM     22  C   UNL     1       1.089   2.853  20.125  0.00  0.00    +0.000 C 
ENDBRANCH  20  22
ENDBRANCH  19  20
ENDBRANCH  13  19
ENDBRANCH   1  18
TORSDOF 5
ENDMDL
MODEL 7
REMARK VINA RESULT:      -7.0      2.396      6.461
REMARK  Name = 
REMARK  8 active torsions:
REMARK  status: ('A' for Active; 'I' for Inactive)
REMARK    1  A    between atoms: C_2  and  C_3
REMARK    2  A    between atoms: C_3  and  O_4
REMARK    3  A    between atoms: O_4  and  C_5
REMARK    4  A    between atoms: C_10  and  C_11
REMARK    5  A    between atoms: C_11  and  N_12
REMARK    6  A    between atoms: C_14  and  C_15
REMARK    7  A    between atoms: C_19  and  C_20
REMARK    8  A    between atoms: C_19  and  C_21
REMARK                            x       y       z     vdW  Elec       q    Type
REMARK                         _______ _______ _______ _____ _____    ______ ____
ROOT
ATOM      1  C   UNL     1       2.980   5.694  17.925  0.00  0.00    +0.000 C 
ENDROOT
BRANCH   1   2
ATOM      2  N   UNL     1       4.250   5.350  17.169  0.00  0.00    +0.000 NA
ATOM      3  C   UNL     1       5.301   4.739  18.015  0.00  0.00    +0.000 C 
ATOM      4  C   UNL     1       6.602   5.188  17.322  0.00  0.00    +0.000 C 
ATOM      5  C   UNL     1       7.836   5.230  18.222  0.00  0.00    +0.000 C 
ATOM      6  C   UNL     1       6.204   6.640  17.035  0.00  0.00    +0.000 C 
ATOM      7  C   UNL     1       4.897   6.409  16.321  0.00  0.00    +0.000 C 
ATOM      8  C   UNL     1       5.409   6.081  14.857  0.00  0.00    +0.000 C 
ATOM      9  C   UNL     1       6.432   4.906  14.686  0.00  0.00    +0.000 C 
ATOM     10  C   UNL     1       5.805   3.919  13.666  0.00  0.00    +0.000 C 
ATOM     11  C   UNL     1       7.788   5.289  14.020  0.00  0.00    +0.000 C 
ATOM     12  C   UNL     1       6.785   4.268  16.053  0.00  0.00    +0.000 C 
ENDBRANCH   1   2
BRANCH   1  18
ATOM     13  C   UNL     1       1.562   4.804  19.980  0.00  0.00    +0.000 A 
ATOM     14  C   UNL     1       0.714   3.811  20.493  0.00  0.00    +0.000 A 
ATOM     15  C   UNL     1       0.565   2.570  19.865  0.00  0.00    +0.000 A 
ATOM     16  C   UNL     1       1.251   2.328  18.688  0.00  0.00    +0.000 A 
ATOM     17  C   UNL     1       1.989   3.348  18.083  0.00  0.00    +0.000 A 
ATOM     18  C   UNL     1       2.132   4.631  18.673  0.00  0.00    +0.000 A 
BRANCH  13  19
ATOM     19  O   UNL     1       1.940   5.889  20.742  0.00  0.00    +0.000 OA
BRANCH  19  20
ATOM     20  C   UNL     1       0.955   6.885  21.113  0.00  0.00    +0.000 C 
BRANCH  20  22
ATOM     21  C   UNL     1       1.381   9.163  22.171  0.00  0.00    +0.000 C 
ATOM     22  C   UNL     1       1.468   8.317  21.139  0.00  0.00    +0.000 C 
ENDBRANCH  20  22
ENDBRANCH  19  20
ENDBRANCH  13  19
ENDBRANCH   1  18
TORSDOF 5
ENDMDL
MODEL 8
REMARK VINA RESULT:      -6.9      3.913      7.410
REMARK  Name = 
REMARK  8 active torsions:
REMARK  status: ('A' for Active; 'I' for Inactive)
REMARK    1  A    between atoms: C_2  and  C_3
REMARK    2  A    between atoms: C_3  and  O_4
REMARK    3  A    between atoms: O_4  and  C_5
REMARK    4  A    between atoms: C_10  and  C_11
REMARK    5  A    between atoms: C_11  and  N_12
REMARK    6  A    between atoms: C_14  and  C_15
REMARK    7  A    between atoms: C_19  and  C_20
REMARK    8  A    between atoms: C_19  and  C_21
REMARK                            x       y       z     vdW  Elec       q    Type
REMARK                         _______ _______ _______ _____ _____    ______ ____
ROOT
ATOM      1  C   UNL     1       2.046   7.999  18.938  0.00  0.00    +0.000 C 
ENDROOT
BRANCH   1   2
ATOM      2  N   UNL     1       2.399   6.527  19.043  0.00  0.00    +0.000 NA
ATOM      3  C   UNL     1       3.746   6.275  19.605  0.00  0.00    +0.000 C 
ATOM      4  C   UNL     1       4.156   4.953  18.929  0.00  0.00    +0.000 C 
ATOM      5  C   UNL     1       5.662   4.715  18.831  0.00  0.00    +0.000 C 
ATOM      6  C   UNL     1       3.656   5.268  17.516  0.00  0.00    +0.000 C 
ATOM      7  C   UNL     1       2.234   5.656  17.829  0.00  0.00    +0.000 C 
ATOM      8  C   UNL     1       1.551   4.230  17.936  0.00  0.00    +0.000 C 
ATOM      9  C   UNL     1       2.159   3.202  18.952  0.00  0.00    +0.000 C 
ATOM     10  C   UNL     1       1.003   2.778  19.897  0.00  0.00    +0.000 C 
ATOM     11  C   UNL     1       2.628   1.849  18.338  0.00  0.00    +0.000 C 
ATOM     12  C   UNL     1       3.389   3.798  19.682  0.00  0.00    +0.000 C 
ENDBRANCH   1   2
BRANCH   1  18
ATOM     13  C   UNL     1       0.323   9.831  19.777  0.00  0.00    +0.000 A 
ATOM     14  C   UNL     1      -0.440  10.343  20.838  0.00  0.00    +0.000 A 
ATOM     15  C   UNL     1      -0.201   9.973  22.165  0.00  0.00    +0.000 A 
ATOM     16  C   UNL     1       0.798   9.054  22.436  0.00  0.00    +0.000 A 
ATOM     17  C   UNL     1       1.476   8.426  21.389  0.00  0.00    +0.000 A 
ATOM     18  C   UNL     1       1.233   8.749  20.028  0.00  0.00    +0.000 A 
BRANCH  13  19
ATOM     19  O   UNL     1       0.294  10.412  18.528  0.00  0.00    +0.000 OA
BRANCH  19  20
ATOM     20  C   UNL     1      -0.963  10.885  17.984  0.00  0.00    +0.000 C 
BRANCH  20  22
ATOM     21  C   UNL     1      -2.796  10.095  16.400  0.00  0.00    +0.000 C 
ATOM     22  C   UNL     1      -1.759   9.847  17.208  0.00  0.00    +0.000 C 
ENDBRANCH  20  22
ENDBRANCH  19  20
ENDBRANCH  13  19
ENDBRANCH   1  18
TORSDOF 5
ENDMDL
MODEL 9
REMARK VINA RESULT:      -6.9      2.114      6.488
REMARK  Name = 
REMARK  8 active torsions:
REMARK  status: ('A' for Active; 'I' for Inactive)
REMARK    1  A    between atoms: C_2  and  C_3
REMARK    2  A    between atoms: C_3  and  O_4
REMARK    3  A    between atoms: O_4  and  C_5
REMARK    4  A    between atoms: C_10  and  C_11
REMARK    5  A    between atoms: C_11  and  N_12
REMARK    6  A    between atoms: C_14  and  C_15
REMARK    7  A    between atoms: C_19  and  C_20
REMARK    8  A    between atoms: C_19  and  C_21
REMARK                            x       y       z     vdW  Elec       q    Type
REMARK                         _______ _______ _______ _____ _____    ______ ____
ROOT
ATOM      1  C   UNL     1       3.313   5.831  19.069  0.00  0.00    +0.000 C 
ENDROOT
BRANCH   1   2
ATOM      2  N   UNL     1       4.530   5.578  18.199  0.00  0.00    +0.000 NA
ATOM      3  C   UNL     1       5.800   5.501  18.957  0.00  0.00    +0.000 C 
ATOM      4  C   UNL     1       6.838   6.009  17.938  0.00  0.00    +0.000 C 
ATOM      5  C   UNL     1       8.111   6.595  18.546  0.00  0.00    +0.000 C 
ATOM      6  C   UNL     1       6.028   7.180  17.370  0.00  0.00    +0.000 C 
ATOM      7  C   UNL     1       4.759   6.456  17.001  0.00  0.00    +0.000 C 
ATOM      8  C   UNL     1       5.164   5.835  15.600  0.00  0.00    +0.000 C 
ATOM      9  C   UNL     1       6.441   4.927  15.544  0.00  0.00    +0.000 C 
ATOM     10  C   UNL     1       5.991   3.567  14.950  0.00  0.00    +0.000 C 
ATOM     11  C   UNL     1       7.553   5.395  14.557  0.00  0.00    +0.000 C 
ATOM     12  C   UNL     1       7.113   4.821  16.937  0.00  0.00    +0.000 C 
ENDBRANCH   1   2
BRANCH   1  18
ATOM     13  C   UNL     1       1.810   3.648  19.114  0.00  0.00    +0.000 A 
ATOM     14  C   UNL     1       1.251   2.609  19.874  0.00  0.00    +0.000 A 
ATOM     15  C   UNL     1       1.203   2.659  21.270  0.00  0.00    +0.000 A 
ATOM     16  C   UNL     1       1.749   3.752  21.922  0.00  0.00    +0.000 A 
ATOM     17  C   UNL     1       2.435   4.730  21.198  0.00  0.00    +0.000 A 
ATOM     18  C   UNL     1       2.536   4.692  19.782  0.00  0.00    +0.000 A 
BRANCH  13  19
ATOM     19  O   UNL     1       1.590   3.742  17.756  0.00  0.00    +0.000 OA
BRANCH  19  20
ATOM     20  C   UNL     1       2.446   3.020  16.837  0.00  0.00    +0.000 C 
BRANCH  20  22
ATOM     21  C   UNL     1       3.901   1.278  17.993  0.00  0.00    +0.000 C 
ATOM     22  C   UNL     1       3.734   2.486  17.443  0.00  0.00    +0.000 C 
ENDBRANCH  20  22
ENDBRANCH  19  20
ENDBRANCH  13  19
ENDBRANCH   1  18
TORSDOF 5
ENDMDL
