MODEL 1
REMARK VINA RESULT:      -7.7      0.000      0.000
REMARK  Name = 
REMARK  8 active torsions:
REMARK  status: ('A' for Active; 'I' for Inactive)
REMARK    1  A    between atoms: C_1  and  C_2
REMARK    2  A    between atoms: C_2  and  C_3
REMARK    3  A    between atoms: C_3  and  C_4
REMARK    4  A    between atoms: C_4  and  C_5
REMARK    5  A    between atoms: C_5  and  C_6
REMARK    6  A    between atoms: C_11  and  O_12
REMARK    7  A    between atoms: O_12  and  C_13
REMARK    8  A    between atoms: C_13  and  C_14
REMARK                            x       y       z     vdW  Elec       q    Type
REMARK                         _______ _______ _______ _____ _____    ______ ____
ROOT
ATOM      1  C   UNL     1       6.659   6.067  17.017  0.00  0.00    +0.000 C 
ATOM      2  O   UNL     1       7.751   6.746  16.327  0.00  0.00    +0.000 OA
ATOM      3  C   UNL     1       7.266   7.356  17.512  0.00  0.00    +0.000 C 
ATOM      4  C   UNL     1       8.155   7.075  18.684  0.00  0.00    +0.000 C 
ATOM      5  C   UNL     1       7.667   5.715  19.182  0.00  0.00    +0.000 C 
ATOM      6  C   UNL     1       7.142   4.960  17.935  0.00  0.00    +0.000 C 
ENDROOT
BRANCH   1   7
ATOM      7  C   UNL     1       5.533   5.919  16.029  0.00  0.00    +0.000 C 
BRANCH   7   8
ATOM      8  C   UNL     1       5.429   4.624  15.226  0.00  0.00    +0.000 C 
BRANCH   8   9
ATOM      9  C   UNL     1       6.572   4.367  14.248  0.00  0.00    +0.000 C 
BRANCH   9  11
ATOM     10  C   UNL     1       6.989   3.830  11.819  0.00  0.00    +0.000 C 
ATOM     11  C   UNL     1       6.128   3.545  13.038  0.00  0.00    +0.000 C 
ENDBRANCH   9  11
ENDBRANCH   8   9
ENDBRANCH   7   8
ENDBRANCH   1   7
BRANCH   6  12
ATOM     12  O   UNL     1       6.085   4.092  18.323  0.00  0.00    +0.000 OA
BRANCH  12  13
ATOM     13  C   UNL     1       5.108   4.724  19.149  0.00  0.00    +0.000 C 
BRANCH  13  14
ATOM     14  C   UNL     1       3.747   4.100  18.938  0.00  0.00    +0.000 A 
ATOM     15  C   UNL     1       2.761   4.765  18.185  0.00  0.00    +0.000 A 
ATOM     16  C   UNL     1       1.500   4.199  17.985  0.00  0.00    +0.000 A 
ATOM     17  C   UNL     1       1.190   2.968  18.553  0.00  0.00    +0.000 A 
ATOM     18  C   UNL     1       2.141   2.310  19.333  0.00  0.00    +0.000 A 
ATOM     19  C   UNL     1       3.404   2.875  19.532  0.00  0.00    +0.000 A 
ATOM     20 CL   UNL     1       4.506   2.010  20.548  0.00  0.00    +0.000 Cl
ENDBRANCH  13  14
ENDBRANCH  12  13
ENDBRANCH   6  12
TORSDOF 7
ENDMDL
MODEL 2
REMARK VINA RESULT:      -7.7      1.227      1.616
REMARK  Name = 
REMARK  8 active torsions:
REMARK  status: ('A' for Active; 'I' for Inactive)
REMARK    1  A    between atoms: C_1  and  C_2
REMARK    2  A    between atoms: C_2  and  C_3
REMARK    3  A    between atoms: C_3  and  C_4
REMARK    4  A    between atoms: C_4  and  C_5
REMARK    5  A    between atoms: C_5  and  C_6
REMARK    6  A    between atoms: C_11  and  O_12
REMARK    7  A    between atoms: O_12  and  C_13
REMARK    8  A    between atoms: C_13  and  C_14
REMARK                            x       y       z     vdW  Elec       q    Type
REMARK                         _______ _______ _______ _____ _____    ______ ____
ROOT
ATOM      1  C   UNL     1       6.647   5.948  16.984  0.00  0.00    +0.000 C 
ATOM      2  O   UNL     1       7.703   6.635  16.247  0.00  0.00    +0.000 OA
ATOM      3  C   UNL     1       7.201   7.287  17.402  0.00  0.00    +0.000 C 
ATOM      4  C   UNL     1       8.110   7.109  18.579  0.00  0.00    +0.000 C 
ATOM      5  C   UNL     1       7.686   5.759  19.154  0.00  0.00    +0.000 C 
ATOM      6  C   UNL     1       7.185   4.915  17.956  0.00  0.00    +0.000 C 
ENDROOT
BRANCH   1   7
ATOM      7  C   UNL     1       5.521   5.697  16.016  0.00  0.00    +0.000 C 
BRANCH   7   8
ATOM      8  C   UNL     1       5.341   4.290  15.452  0.00  0.00    +0.000 C 
BRANCH   8   9
ATOM      9  C   UNL     1       6.393   3.851  14.439  0.00  0.00    +0.000 C 
BRANCH   9  11
ATOM     10  C   UNL     1       6.857   3.776  11.961  0.00  0.00    +0.000 C 
ATOM     11  C   UNL     1       5.804   3.631  13.046  0.00  0.00    +0.000 C 
ENDBRANCH   9  11
ENDBRANCH   8   9
ENDBRANCH   7   8
ENDBRANCH   1   7
BRANCH   6  12
ATOM     12  O   UNL     1       6.170   4.024  18.401  0.00  0.00    +0.000 OA
BRANCH  12  13
ATOM     13  C   UNL     1       5.173   4.657  19.203  0.00  0.00    +0.000 C 
BRANCH  13  14
ATOM     14  C   UNL     1       3.816   4.041  18.950  0.00  0.00    +0.000 A 
ATOM     15  C   UNL     1       3.603   2.664  19.151  0.00  0.00    +0.000 A 
ATOM     16  C   UNL     1       2.354   2.084  18.918  0.00  0.00    +0.000 A 
ATOM     17  C   UNL     1       1.298   2.864  18.457  0.00  0.00    +0.000 A 
ATOM     18  C   UNL     1       1.499   4.223  18.217  0.00  0.00    +0.000 A 
ATOM     19  C   UNL     1       2.748   4.804  18.451  0.00  0.00    +0.000 A 
ATOM     20 CL   UNL     1       2.918   6.487  18.085  0.00  0.00    +0.000 Cl
ENDBRANCH  13  14
ENDBRANCH  12  13
ENDBRANCH   6  12
TORSDOF 7
ENDMDL
MODEL 3
REMARK VINA RESULT:      -7.6      1.580      2.067
REMARK  Name = 
REMARK  8 active torsions:
REMARK  status: ('A' for Active; 'I' for Inactive)
REMARK    1  A    between atoms: C_1  and  C_2
REMARK    2  A    between atoms: C_2  and  C_3
REMARK    3  A    between atoms: C_3  and  C_4
REMARK    4  A    between atoms: C_4  and  C_5
REMARK    5  A    between atoms: C_5  and  C_6
REMARK    6  A    between atoms: C_11  and  O_12
REMARK    7  A    between atoms: O_12  and  C_13
REMARK    8  A    between atoms: C_13  and  C_14
REMARK                            x       y       z     vdW  Elec       q    Type
REMARK                         _______ _______ _______ _____ _____    ______ ____
ROOT
ATOM      1  C   UNL     1       6.316   4.512  16.391  0.00  0.00    +0.000 C 
ATOM      2  O   UNL     1       7.694   4.560  16.869  0.00  0.00    +0.000 OA
ATOM      3  C   UNL     1       7.090   5.798  16.532  0.00  0.00    +0.000 C 
ATOM      4  C   UNL     1       6.622   6.536  17.749  0.00  0.00    +0.000 C 
ATOM      5  C   UNL     1       5.243   5.936  18.019  0.00  0.00    +0.000 C 
ATOM      6  C   UNL     1       5.303   4.470  17.521  0.00  0.00    +0.000 C 
ENDROOT
BRANCH   1   7
ATOM      7  C   UNL     1       6.292   3.597  15.197  0.00  0.00    +0.000 C 
BRANCH   7   8
ATOM      8  C   UNL     1       5.644   4.094  13.907  0.00  0.00    +0.000 C 
BRANCH   8   9
ATOM      9  C   UNL     1       6.352   3.684  12.619  0.00  0.00    +0.000 C 
BRANCH   9  11
ATOM     10  C   UNL     1       4.185   3.272  11.396  0.00  0.00    +0.000 C 
ATOM     11  C   UNL     1       5.532   2.692  11.794  0.00  0.00    +0.000 C 
ENDBRANCH   9  11
ENDBRANCH   8   9
ENDBRANCH   7   8
ENDBRANCH   1   7
BRANCH   6  12
ATOM     12  O   UNL     1       4.015   4.076  17.066  0.00  0.00    +0.000 OA
BRANCH  12  13
ATOM     13  C   UNL     1       3.589   2.819  17.592  0.00  0.00    +0.000 C 
BRANCH  13  14
ATOM     14  C   UNL     1       2.812   3.014  18.874  0.00  0.00    +0.000 A 
ATOM     15  C   UNL     1       1.573   3.683  18.868  0.00  0.00    +0.000 A 
ATOM     16  C   UNL     1       0.848   3.870  20.047  0.00  0.00    +0.000 A 
ATOM     17  C   UNL     1       1.356   3.414  21.259  0.00  0.00    +0.000 A 
ATOM     18  C   UNL     1       2.599   2.781  21.291  0.00  0.00    +0.000 A 
ATOM     19  C   UNL     1       3.325   2.592  20.111  0.00  0.00    +0.000 A 
ATOM     20 CL   UNL     1       4.875   1.836  20.249  0.00  0.00    +0.000 Cl
ENDBRANCH  13  14
ENDBRANCH  12  13
ENDBRANCH   6  12
TORSDOF 7
ENDMDL
MODEL 4
REMARK VINA RESULT:      -7.5      1.496      1.975
REMARK  Name = 
REMARK  8 active torsions:
REMARK  status: ('A' for Active; 'I' for Inactive)
REMARK    1  A    between atoms: C_1  and  C_2
REMARK    2  A    between atoms: C_2  and  C_3
REMARK    3  A    between atoms: C_3  and  C_4
REMARK    4  A    between atoms: C_4  and  C_5
REMARK    5  A    between atoms: C_5  and  C_6
REMARK    6  A    between atoms: C_11  and  O_12
REMARK    7  A    between atoms: O_12  and  C_13
REMARK    8  A    between atoms: C_13  and  C_14
REMARK                            x       y       z     vdW  Elec       q    Type
REMARK                         _______ _______ _______ _____ _____    ______ ____
ROOT
ATOM      1  C   UNL     1       6.656   4.971  16.472  0.00  0.00    +0.000 C 
ATOM      2  O   UNL     1       7.663   5.531  15.577  0.00  0.00    +0.000 OA
ATOM      3  C   UNL     1       6.770   6.448  16.188  0.00  0.00    +0.000 C 
ATOM      4  C   UNL     1       7.399   7.138  17.359  0.00  0.00    +0.000 C 
ATOM      5  C   UNL     1       7.180   6.155  18.509  0.00  0.00    +0.000 C 
ATOM      6  C   UNL     1       7.181   4.741  17.877  0.00  0.00    +0.000 C 
ENDROOT
BRANCH   1   7
ATOM      7  C   UNL     1       5.875   3.956  15.681  0.00  0.00    +0.000 C 
BRANCH   7   8
ATOM      8  C   UNL     1       5.423   4.318  14.269  0.00  0.00    +0.000 C 
BRANCH   8   9
ATOM      9  C   UNL     1       6.325   3.817  13.145  0.00  0.00    +0.000 C 
BRANCH   9  11
ATOM     10  C   UNL     1       4.431   3.438  11.524  0.00  0.00    +0.000 C 
ATOM     11  C   UNL     1       5.618   2.812  12.235  0.00  0.00    +0.000 C 
ENDBRANCH   9  11
ENDBRANCH   8   9
ENDBRANCH   7   8
ENDBRANCH   1   7
BRANCH   6  12
ATOM     12  O   UNL     1       6.328   3.889  18.631  0.00  0.00    +0.000 OA
BRANCH  12  13
ATOM     13  C   UNL     1       5.306   4.593  19.337  0.00  0.00    +0.000 C 
BRANCH  13  14
ATOM     14  C   UNL     1       3.938   4.102  18.924  0.00  0.00    +0.000 A 
ATOM     15  C   UNL     1       3.535   2.782  19.200  0.00  0.00    +0.000 A 
ATOM     16  C   UNL     1       2.273   2.316  18.821  0.00  0.00    +0.000 A 
ATOM     17  C   UNL     1       1.398   3.153  18.137  0.00  0.00    +0.000 A 
ATOM     18  C   UNL     1       1.792   4.454  17.822  0.00  0.00    +0.000 A 
ATOM     19  C   UNL     1       3.054   4.921  18.202  0.00  0.00    +0.000 A 
ATOM     20 CL   UNL     1       3.475   6.532  17.733  0.00  0.00    +0.000 Cl
ENDBRANCH  13  14
ENDBRANCH  12  13
ENDBRANCH   6  12
TORSDOF 7
ENDMDL
MODEL 5
REMARK VINA RESULT:      -7.5      1.836      2.202
REMARK  Name = 
REMARK  8 active torsions:
REMARK  status: ('A' for Active; 'I' for Inactive)
REMARK    1  A    between atoms: C_1  and  C_2
REMARK    2  A    between atoms: C_2  and  C_3
REMARK    3  A    between atoms: C_3  and  C_4
REMARK    4  A    between atoms: C_4  and  C_5
REMARK    5  A    between atoms: C_5  and  C_6
REMARK    6  A    between atoms: C_11  and  O_12
REMARK    7  A    between atoms: O_12  and  C_13
REMARK    8  A    between atoms: C_13  and  C_14
REMARK                            x       y       z     vdW  Elec       q    Type
REMARK                         _______ _______ _______ _____ _____    ______ ____
ROOT
ATOM      1  C   UNL     1       6.342   5.240  16.197  0.00  0.00    +0.000 C 
ATOM      2  O   UNL     1       7.695   4.729  16.389  0.00  0.00    +0.000 OA
ATOM      3  C   UNL     1       7.417   6.018  16.914  0.00  0.00    +0.000 C 
ATOM      4  C   UNL     1       7.170   5.974  18.390  0.00  0.00    +0.000 C 
ATOM      5  C   UNL     1       5.689   5.611  18.491  0.00  0.00    +0.000 C 
ATOM      6  C   UNL     1       5.370   4.741  17.250  0.00  0.00    +0.000 C 
ENDROOT
BRANCH   1   7
ATOM      7  C   UNL     1       6.069   5.227  14.717  0.00  0.00    +0.000 C 
BRANCH   7   8
ATOM      8  C   UNL     1       5.796   3.889  14.034  0.00  0.00    +0.000 C 
BRANCH   8   9
ATOM      9  C   UNL     1       6.446   3.708  12.665  0.00  0.00    +0.000 C 
BRANCH   9  11
ATOM     10  C   UNL     1       4.296   3.224  11.439  0.00  0.00    +0.000 C 
ATOM     11  C   UNL     1       5.685   2.716  11.786  0.00  0.00    +0.000 C 
ENDBRANCH   9  11
ENDBRANCH   8   9
ENDBRANCH   7   8
ENDBRANCH   1   7
BRANCH   6  12
ATOM     12  O   UNL     1       4.017   4.948  16.866  0.00  0.00    +0.000 OA
BRANCH  12  13
ATOM     13  C   UNL     1       3.236   5.591  17.873  0.00  0.00    +0.000 C 
BRANCH  13  14
ATOM     14  C   UNL     1       2.343   4.592  18.573  0.00  0.00    +0.000 A 
ATOM     15  C   UNL     1       2.025   3.363  17.965  0.00  0.00    +0.000 A 
ATOM     16  C   UNL     1       1.199   2.433  18.602  0.00  0.00    +0.000 A 
ATOM     17  C   UNL     1       0.655   2.723  19.848  0.00  0.00    +0.000 A 
ATOM     18  C   UNL     1       0.929   3.950  20.452  0.00  0.00    +0.000 A 
ATOM     19  C   UNL     1       1.756   4.880  19.816  0.00  0.00    +0.000 A 
ATOM     20 CL   UNL     1       2.007   6.393  20.617  0.00  0.00    +0.000 Cl
ENDBRANCH  13  14
ENDBRANCH  12  13
ENDBRANCH   6  12
TORSDOF 7
ENDMDL
MODEL 6
REMARK VINA RESULT:      -7.5      1.635      2.076
REMARK  Name = 
REMARK  8 active torsions:
REMARK  status: ('A' for Active; 'I' for Inactive)
REMARK    1  A    between atoms: C_1  and  C_2
REMARK    2  A    between atoms: C_2  and  C_3
REMARK    3  A    between atoms: C_3  and  C_4
REMARK    4  A    between atoms: C_4  and  C_5
REMARK    5  A    between atoms: C_5  and  C_6
REMARK    6  A    between atoms: C_11  and  O_12
REMARK    7  A    between atoms: O_12  and  C_13
REMARK    8  A    between atoms: C_13  and  C_14
REMARK                            x       y       z     vdW  Elec       q    Type
REMARK                         _______ _______ _______ _____ _____    ______ ____
ROOT
ATOM      1  C   UNL     1       6.272   5.766  16.601  0.00  0.00    +0.000 C 
ATOM      2  O   UNL     1       7.676   5.712  16.206  0.00  0.00    +0.000 OA
ATOM      3  C   UNL     1       7.302   6.749  17.098  0.00  0.00    +0.000 C 
ATOM      4  C   UNL     1       7.668   6.423  18.513  0.00  0.00    +0.000 C 
ATOM      5  C   UNL     1       6.490   5.579  18.998  0.00  0.00    +0.000 C 
ATOM      6  C   UNL     1       5.950   4.832  17.753  0.00  0.00    +0.000 C 
ENDROOT
BRANCH   1   7
ATOM      7  C   UNL     1       5.459   5.868  15.339  0.00  0.00    +0.000 C 
BRANCH   7   8
ATOM      8  C   UNL     1       5.263   4.614  14.491  0.00  0.00    +0.000 C 
BRANCH   8   9
ATOM      9  C   UNL     1       6.529   4.054  13.848  0.00  0.00    +0.000 C 
BRANCH   9  11
ATOM     10  C   UNL     1       4.785   3.454  12.128  0.00  0.00    +0.000 C 
ATOM     11  C   UNL     1       6.268   3.469  12.460  0.00  0.00    +0.000 C 
ENDBRANCH   9  11
ENDBRANCH   8   9
ENDBRANCH   7   8
ENDBRANCH   1   7
BRANCH   6  12
ATOM     12  O   UNL     1       4.550   4.630  17.898  0.00  0.00    +0.000 OA
BRANCH  12  13
ATOM     13  C   UNL     1       4.197   3.269  18.143  0.00  0.00    +0.000 C 
BRANCH  13  14
ATOM     14  C   UNL     1       3.178   3.175  19.257  0.00  0.00    +0.000 A 
ATOM     15  C   UNL     1       3.525   2.617  20.502  0.00  0.00    +0.000 A 
ATOM     16  C   UNL     1       2.591   2.524  21.537  0.00  0.00    +0.000 A 
ATOM     17  C   UNL     1       1.286   2.964  21.341  0.00  0.00    +0.000 A 
ATOM     18  C   UNL     1       0.914   3.486  20.102  0.00  0.00    +0.000 A 
ATOM     19  C   UNL     1       1.848   3.582  19.067  0.00  0.00    +0.000 A 
ATOM     20 CL   UNL     1       1.288   4.202  17.552  0.00  0.00    +0.000 Cl
ENDBRANCH  13  14
ENDBRANCH  12  13
ENDBRANCH   6  12
TORSDOF 7
ENDMDL
MODEL 7
REMARK VINA RESULT:      -7.5      1.484      1.845
REMARK  Name = 
REMARK  8 active torsions:
REMARK  status: ('A' for Active; 'I' for Inactive)
REMARK    1  A    between atoms: C_1  and  C_2
REMARK    2  A    between atoms: C_2  and  C_3
REMARK    3  A    between atoms: C_3  and  C_4
REMARK    4  A    between atoms: C_4  and  C_5
REMARK    5  A    between atoms: C_5  and  C_6
REMARK    6  A    between atoms: C_11  and  O_12
REMARK    7  A    between atoms: O_12  and  C_13
REMARK    8  A    between atoms: C_13  and  C_14
REMARK                            x       y       z     vdW  Elec       q    Type
REMARK                         _______ _______ _______ _____ _____    ______ ____
ROOT
ATOM      1  C   UNL     1       6.651   5.027  16.996  0.00  0.00    +0.000 C 
ATOM      2  O   UNL     1       7.895   4.377  17.395  0.00  0.00    +0.000 OA
ATOM      3  C   UNL     1       7.653   5.671  17.922  0.00  0.00    +0.000 C 
ATOM      4  C   UNL     1       7.147   5.612  19.330  0.00  0.00    +0.000 C 
ATOM      5  C   UNL     1       5.643   5.399  19.157  0.00  0.00    +0.000 C 
ATOM      6  C   UNL     1       5.467   4.600  17.842  0.00  0.00    +0.000 C 
ENDROOT
BRANCH   1   7
ATOM      7  C   UNL     1       6.643   5.084  15.492  0.00  0.00    +0.000 C 
BRANCH   7   8
ATOM      8  C   UNL     1       6.294   3.817  14.713  0.00  0.00    +0.000 C 
BRANCH   8   9
ATOM      9  C   UNL     1       5.595   4.043  13.376  0.00  0.00    +0.000 C 
BRANCH   9  11
ATOM     10  C   UNL     1       5.668   2.288  11.567  0.00  0.00    +0.000 C 
ATOM     11  C   UNL     1       6.385   3.467  12.201  0.00  0.00    +0.000 C 
ENDBRANCH   9  11
ENDBRANCH   8   9
ENDBRANCH   7   8
ENDBRANCH   1   7
BRANCH   6  12
ATOM     12  O   UNL     1       4.228   4.955  17.240  0.00  0.00    +0.000 OA
BRANCH  12  13
ATOM     13  C   UNL     1       3.301   3.871  17.172  0.00  0.00    +0.000 C 
BRANCH  13  14
ATOM     14  C   UNL     1       2.610   3.677  18.502  0.00  0.00    +0.000 A 
ATOM     15  C   UNL     1       1.899   4.733  19.103  0.00  0.00    +0.000 A 
ATOM     16  C   UNL     1       1.258   4.565  20.333  0.00  0.00    +0.000 A 
ATOM     17  C   UNL     1       1.335   3.346  20.999  0.00  0.00    +0.000 A 
ATOM     18  C   UNL     1       2.066   2.299  20.437  0.00  0.00    +0.000 A 
ATOM     19  C   UNL     1       2.706   2.466  19.206  0.00  0.00    +0.000 A 
ATOM     20 CL   UNL     1       3.625   1.128  18.605  0.00  0.00    +0.000 Cl
ENDBRANCH  13  14
ENDBRANCH  12  13
ENDBRANCH   6  12
TORSDOF 7
ENDMDL
MODEL 8
REMARK VINA RESULT:      -7.4      1.962      4.339
REMARK  Name = 
REMARK  8 active torsions:
REMARK  status: ('A' for Active; 'I' for Inactive)
REMARK    1  A    between atoms: C_1  and  C_2
REMARK    2  A    between atoms: C_2  and  C_3
REMARK    3  A    between atoms: C_3  and  C_4
REMARK    4  A    between atoms: C_4  and  C_5
REMARK    5  A    between atoms: C_5  and  C_6
REMARK    6  A    between atoms: C_11  and  O_12
REMARK    7  A    between atoms: O_12  and  C_13
REMARK    8  A    between atoms: C_13  and  C_14
REMARK                            x       y       z     vdW  Elec       q    Type
REMARK                         _______ _______ _______ _____ _____    ______ ____
ROOT
ATOM      1  C   UNL     1       6.548   5.702  16.870  0.00  0.00    +0.000 C 
ATOM      2  O   UNL     1       7.291   5.947  15.638  0.00  0.00    +0.000 OA
ATOM      3  C   UNL     1       7.217   4.602  16.084  0.00  0.00    +0.000 C 
ATOM      4  C   UNL     1       6.184   3.823  15.330  0.00  0.00    +0.000 C 
ATOM      5  C   UNL     1       4.888   4.142  16.073  0.00  0.00    +0.000 C 
ATOM      6  C   UNL     1       5.054   5.574  16.640  0.00  0.00    +0.000 C 
ENDROOT
BRANCH   1   7
ATOM      7  C   UNL     1       7.172   6.557  17.941  0.00  0.00    +0.000 C 
BRANCH   7   8
ATOM      8  C   UNL     1       7.629   7.968  17.578  0.00  0.00    +0.000 C 
BRANCH   8   9
ATOM      9  C   UNL     1       8.609   8.609  18.555  0.00  0.00    +0.000 C 
BRANCH   9  11
ATOM     10  C   UNL     1       9.673  10.752  19.353  0.00  0.00    +0.000 C 
ATOM     11  C   UNL     1       8.794  10.105  18.297  0.00  0.00    +0.000 C 
ENDBRANCH   9  11
ENDBRANCH   8   9
ENDBRANCH   7   8
ENDBRANCH   1   7
BRANCH   6  12
ATOM     12  O   UNL     1       4.319   5.687  17.852  0.00  0.00    +0.000 OA
BRANCH  12  13
ATOM     13  C   UNL     1       2.970   5.234  17.739  0.00  0.00    +0.000 C 
BRANCH  13  14
ATOM     14  C   UNL     1       2.553   4.487  18.986  0.00  0.00    +0.000 A 
ATOM     15  C   UNL     1       2.483   5.146  20.228  0.00  0.00    +0.000 A 
ATOM     16  C   UNL     1       2.101   4.466  21.387  0.00  0.00    +0.000 A 
ATOM     17  C   UNL     1       1.804   3.108  21.332  0.00  0.00    +0.000 A 
ATOM     18  C   UNL     1       1.902   2.429  20.118  0.00  0.00    +0.000 A 
ATOM     19  C   UNL     1       2.282   3.110  18.958  0.00  0.00    +0.000 A 
ATOM     20 CL   UNL     1       2.419   2.180  17.505  0.00  0.00    +0.000 Cl
ENDBRANCH  13  14
ENDBRANCH  12  13
ENDBRANCH   6  12
TORSDOF 7
ENDMDL
MODEL 9
REMARK VINA RESULT:      -7.3      1.504      1.718
REMARK  Name = 
REMARK  8 active torsions:
REMARK  status: ('A' for Active; 'I' for Inactive)
REMARK    1  A    between atoms: C_1  and  C_2
REMARK    2  A    between atoms: C_2  and  C_3
REMARK    3  A    between atoms: C_3  and  C_4
REMARK    4  A    between atoms: C_4  and  C_5
REMARK    5  A    between atoms: C_5  and  C_6
REMARK    6  A    between atoms: C_11  and  O_12
REMARK    7  A    between atoms: O_12  and  C_13
REMARK    8  A    between atoms: C_13  and  C_14
REMARK                            x       y       z     vdW  Elec       q    Type
REMARK                         _______ _______ _______ _____ _____    ______ ____
ROOT
ATOM      1  C   UNL     1       6.299   5.533  16.349  0.00  0.00    +0.000 C 
ATOM      2  O   UNL     1       7.637   5.928  15.920  0.00  0.00    +0.000 OA
ATOM      3  C   UNL     1       6.998   6.764  16.871  0.00  0.00    +0.000 C 
ATOM      4  C   UNL     1       7.497   6.508  18.260  0.00  0.00    +0.000 C 
ATOM      5  C   UNL     1       6.650   5.325  18.728  0.00  0.00    +0.000 C 
ATOM      6  C   UNL     1       6.319   4.500  17.460  0.00  0.00    +0.000 C 
ENDROOT
BRANCH   1   7
ATOM      7  C   UNL     1       5.448   5.433  15.111  0.00  0.00    +0.000 C 
BRANCH   7   8
ATOM      8  C   UNL     1       5.471   4.133  14.311  0.00  0.00    +0.000 C 
BRANCH   8   9
ATOM      9  C   UNL     1       6.553   4.043  13.240  0.00  0.00    +0.000 C 
BRANCH   9  11
ATOM     10  C   UNL     1       4.666   3.267  11.758  0.00  0.00    +0.000 C 
ATOM     11  C   UNL     1       6.146   3.140  12.075  0.00  0.00    +0.000 C 
ENDBRANCH   9  11
ENDBRANCH   8   9
ENDBRANCH   7   8
ENDBRANCH   1   7
BRANCH   6  12
ATOM     12  O   UNL     1       5.053   3.873  17.625  0.00  0.00    +0.000 OA
BRANCH  12  13
ATOM     13  C   UNL     1       4.006   4.788  17.947  0.00  0.00    +0.000 C 
BRANCH  13  14
ATOM     14  C   UNL     1       3.108   4.215  19.019  0.00  0.00    +0.000 A 
ATOM     15  C   UNL     1       2.999   4.841  20.275  0.00  0.00    +0.000 A 
ATOM     16  C   UNL     1       2.174   4.319  21.274  0.00  0.00    +0.000 A 
ATOM     17  C   UNL     1       1.460   3.148  21.047  0.00  0.00    +0.000 A 
ATOM     18  C   UNL     1       1.582   2.492  19.822  0.00  0.00    +0.000 A 
ATOM     19  C   UNL     1       2.406   3.015  18.821  0.00  0.00    +0.000 A 
ATOM     20 CL   UNL     1       2.532   2.114  17.349  0.00  0.00    +0.000 Cl
ENDBRANCH  13  14
ENDBRANCH  12  13
ENDBRANCH   6  12
TORSDOF 7
ENDMDL
