MODEL 1
REMARK VINA RESULT:      -7.1      0.000      0.000
REMARK  Name = 
REMARK  7 active torsions:
REMARK  status: ('A' for Active; 'I' for Inactive)
REMARK    1  A    between atoms: C_1  and  C_2
REMARK    2  A    between atoms: C_5  and  C_6
REMARK    3  A    between atoms: C_7  and  N_8
REMARK    4  A    between atoms: N_8  and  C_9
REMARK    5  A    between atoms: N_8  and  S_13
REMARK    6  A    between atoms: C_9  and  C_10
REMARK    7  A    between atoms: S_13  and  C_14
REMARK                            x       y       z     vdW  Elec       q    Type
REMARK                         _______ _______ _______ _____ _____    ______ ____
ROOT
ATOM      1  N   UNL     1       5.962   4.945  17.038  0.00  0.00    +0.000 N 
ENDROOT
BRANCH   1   8
ATOM      2  C   UNL     1       2.313   8.069  18.427  0.00  0.00    +0.000 C 
ATOM      3  C   UNL     1       2.739   6.654  18.160  0.00  0.00    +0.000 A 
ATOM      4  C   UNL     1       1.808   5.632  18.110  0.00  0.00    +0.000 A 
ATOM      5  C   UNL     1       2.259   4.333  17.919  0.00  0.00    +0.000 A 
ATOM      6  C   UNL     1       3.639   4.017  17.727  0.00  0.00    +0.000 A 
ATOM      7  C   UNL     1       3.869   2.526  17.682  0.00  0.00    +0.000 C 
ATOM      8  C   UNL     1       4.590   5.072  17.598  0.00  0.00    +0.000 A 
ATOM      9  C   UNL     1       4.104   6.366  17.907  0.00  0.00    +0.000 A 
ENDBRANCH   1   8
BRANCH   1  10
ATOM     10  S   UNL     1       6.268   5.360  15.391  0.00  0.00    +0.000 S 
ATOM     11  C   UNL     1       5.915   3.805  14.572  0.00  0.00    +0.000 C 
ATOM     12  O   UNL     1       5.351   6.345  14.936  0.00  0.00    +0.000 OA
ATOM     13  O   UNL     1       7.719   5.573  15.231  0.00  0.00    +0.000 OA
ENDBRANCH   1  10
BRANCH   1  14
ATOM     14  C   UNL     1       7.190   4.719  17.859  0.00  0.00    +0.000 C 
BRANCH  14  15
ATOM     15  C   UNL     1       7.713   5.851  18.730  0.00  0.00    +0.000 C 
ATOM     16  N   UNL     1       8.068   5.490  19.993  0.00  0.00    +0.000 N 
ATOM     17  O   UNL     1       7.866   6.998  18.327  0.00  0.00    +0.000 OA
ATOM     18  H   UNL     1       7.634   4.658  20.363  0.00  0.00    +0.000 HD
ATOM     19  H   UNL     1       8.170   6.258  20.646  0.00  0.00    +0.000 HD
ENDBRANCH  14  15
ENDBRANCH   1  14
TORSDOF 4
ENDMDL
MODEL 2
REMARK VINA RESULT:      -7.1      1.075      2.410
REMARK  Name = 
REMARK  7 active torsions:
REMARK  status: ('A' for Active; 'I' for Inactive)
REMARK    1  A    between atoms: C_1  and  C_2
REMARK    2  A    between atoms: C_5  and  C_6
REMARK    3  A    between atoms: C_7  and  N_8
REMARK    4  A    between atoms: N_8  and  C_9
REMARK    5  A    between atoms: N_8  and  S_13
REMARK    6  A    between atoms: C_9  and  C_10
REMARK    7  A    between atoms: S_13  and  C_14
REMARK                            x       y       z     vdW  Elec       q    Type
REMARK                         _______ _______ _______ _____ _____    ______ ____
ROOT
ATOM      1  N   UNL     1       5.856   4.765  16.851  0.00  0.00    +0.000 N 
ENDROOT
BRANCH   1   8
ATOM      2  C   UNL     1       1.933   1.976  18.208  0.00  0.00    +0.000 C 
ATOM      3  C   UNL     1       2.534   3.347  18.085  0.00  0.00    +0.000 A 
ATOM      4  C   UNL     1       1.921   4.444  18.664  0.00  0.00    +0.000 A 
ATOM      5  C   UNL     1       2.485   5.697  18.473  0.00  0.00    +0.000 A 
ATOM      6  C   UNL     1       3.695   5.894  17.738  0.00  0.00    +0.000 A 
ATOM      7  C   UNL     1       4.009   7.359  17.563  0.00  0.00    +0.000 C 
ATOM      8  C   UNL     1       4.434   4.761  17.287  0.00  0.00    +0.000 A 
ATOM      9  C   UNL     1       3.769   3.516  17.410  0.00  0.00    +0.000 A 
ENDBRANCH   1   8
BRANCH   1  10
ATOM     10  S   UNL     1       6.277   5.333  15.277  0.00  0.00    +0.000 S 
ATOM     11  C   UNL     1       6.093   3.837  14.308  0.00  0.00    +0.000 C 
ATOM     12  O   UNL     1       5.346   6.303  14.820  0.00  0.00    +0.000 OA
ATOM     13  O   UNL     1       7.721   5.637  15.268  0.00  0.00    +0.000 OA
ENDBRANCH   1  10
BRANCH   1  14
ATOM     14  C   UNL     1       7.019   4.547  17.764  0.00  0.00    +0.000 C 
BRANCH  14  15
ATOM     15  C   UNL     1       7.355   5.613  18.795  0.00  0.00    +0.000 C 
ATOM     16  N   UNL     1       7.754   6.808  18.280  0.00  0.00    +0.000 N 
ATOM     17  O   UNL     1       7.230   5.448  20.002  0.00  0.00    +0.000 OA
ATOM     18  H   UNL     1       8.144   6.791  17.350  0.00  0.00    +0.000 HD
ATOM     19  H   UNL     1       8.217   7.425  18.937  0.00  0.00    +0.000 HD
ENDBRANCH  14  15
ENDBRANCH   1  14
TORSDOF 4
ENDMDL
MODEL 3
REMARK VINA RESULT:      -7.1      1.807      3.766
REMARK  Name = 
REMARK  7 active torsions:
REMARK  status: ('A' for Active; 'I' for Inactive)
REMARK    1  A    between atoms: C_1  and  C_2
REMARK    2  A    between atoms: C_5  and  C_6
REMARK    3  A    between atoms: C_7  and  N_8
REMARK    4  A    between atoms: N_8  and  C_9
REMARK    5  A    between atoms: N_8  and  S_13
REMARK    6  A    between atoms: C_9  and  C_10
REMARK    7  A    between atoms: S_13  and  C_14
REMARK                            x       y       z     vdW  Elec       q    Type
REMARK                         _______ _______ _______ _____ _____    ______ ____
ROOT
ATOM      1  N   UNL     1       5.804   4.444  16.934  0.00  0.00    +0.000 N 
ENDROOT
BRANCH   1   8
ATOM      2  C   UNL     1       1.633   2.195  18.531  0.00  0.00    +0.000 C 
ATOM      3  C   UNL     1       2.345   3.482  18.232  0.00  0.00    +0.000 A 
ATOM      4  C   UNL     1       1.807   4.696  18.620  0.00  0.00    +0.000 A 
ATOM      5  C   UNL     1       2.476   5.861  18.268  0.00  0.00    +0.000 A 
ATOM      6  C   UNL     1       3.717   5.853  17.561  0.00  0.00    +0.000 A 
ATOM      7  C   UNL     1       4.154   7.247  17.184  0.00  0.00    +0.000 C 
ATOM      8  C   UNL     1       4.374   4.612  17.310  0.00  0.00    +0.000 A 
ATOM      9  C   UNL     1       3.609   3.454  17.588  0.00  0.00    +0.000 A 
ENDBRANCH   1   8
BRANCH   1  10
ATOM     10  S   UNL     1       7.049   4.904  18.036  0.00  0.00    +0.000 S 
ATOM     11  C   UNL     1       7.391   6.578  17.493  0.00  0.00    +0.000 C 
ATOM     12  O   UNL     1       6.561   4.938  19.370  0.00  0.00    +0.000 OA
ATOM     13  O   UNL     1       8.261   4.127  17.714  0.00  0.00    +0.000 OA
ENDBRANCH   1  10
BRANCH   1  14
ATOM     14  C   UNL     1       6.279   3.660  15.754  0.00  0.00    +0.000 C 
BRANCH  14  15
ATOM     15  C   UNL     1       6.489   4.377  14.429  0.00  0.00    +0.000 C 
ATOM     16  N   UNL     1       6.281   3.613  13.321  0.00  0.00    +0.000 N 
ATOM     17  O   UNL     1       6.769   5.566  14.341  0.00  0.00    +0.000 OA
ATOM     18  H   UNL     1       6.379   2.616  13.436  0.00  0.00    +0.000 HD
ATOM     19  H   UNL     1       6.659   3.994  12.462  0.00  0.00    +0.000 HD
ENDBRANCH  14  15
ENDBRANCH   1  14
TORSDOF 4
ENDMDL
MODEL 4
REMARK VINA RESULT:      -7.0      2.100      3.796
REMARK  Name = 
REMARK  7 active torsions:
REMARK  status: ('A' for Active; 'I' for Inactive)
REMARK    1  A    between atoms: C_1  and  C_2
REMARK    2  A    between atoms: C_5  and  C_6
REMARK    3  A    between atoms: C_7  and  N_8
REMARK    4  A    between atoms: N_8  and  C_9
REMARK    5  A    between atoms: N_8  and  S_13
REMARK    6  A    between atoms: C_9  and  C_10
REMARK    7  A    between atoms: S_13  and  C_14
REMARK                            x       y       z     vdW  Elec       q    Type
REMARK                         _______ _______ _______ _____ _____    ______ ____
ROOT
ATOM      1  N   UNL     1       5.351   4.750  17.820  0.00  0.00    +0.000 N 
ENDROOT
BRANCH   1   8
ATOM      2  C   UNL     1       2.223   3.187  21.395  0.00  0.00    +0.000 C 
ATOM      3  C   UNL     1       2.623   4.282  20.450  0.00  0.00    +0.000 A 
ATOM      4  C   UNL     1       2.065   5.544  20.550  0.00  0.00    +0.000 A 
ATOM      5  C   UNL     1       2.424   6.505  19.615  0.00  0.00    +0.000 A 
ATOM      6  C   UNL     1       3.379   6.256  18.581  0.00  0.00    +0.000 A 
ATOM      7  C   UNL     1       3.481   7.417  17.623  0.00  0.00    +0.000 C 
ATOM      8  C   UNL     1       4.095   5.022  18.570  0.00  0.00    +0.000 A 
ATOM      9  C   UNL     1       3.621   4.038  19.471  0.00  0.00    +0.000 A 
ENDBRANCH   1   8
BRANCH   1  10
ATOM     10  S   UNL     1       6.874   5.212  18.486  0.00  0.00    +0.000 S 
ATOM     11  C   UNL     1       7.130   6.800  17.695  0.00  0.00    +0.000 C 
ATOM     12  O   UNL     1       6.780   5.401  19.891  0.00  0.00    +0.000 OA
ATOM     13  O   UNL     1       7.910   4.320  17.931  0.00  0.00    +0.000 OA
ENDBRANCH   1  10
BRANCH   1  14
ATOM     14  C   UNL     1       5.441   3.866  16.619  0.00  0.00    +0.000 C 
BRANCH  14  15
ATOM     15  C   UNL     1       5.698   4.494  15.259  0.00  0.00    +0.000 C 
ATOM     16  N   UNL     1       6.298   3.677  14.350  0.00  0.00    +0.000 N 
ATOM     17  O   UNL     1       5.349   5.630  14.962  0.00  0.00    +0.000 OA
ATOM     18  H   UNL     1       6.840   2.912  14.721  0.00  0.00    +0.000 HD
ATOM     19  H   UNL     1       6.699   4.149  13.548  0.00  0.00    +0.000 HD
ENDBRANCH  14  15
ENDBRANCH   1  14
TORSDOF 4
ENDMDL
MODEL 5
REMARK VINA RESULT:      -7.0      1.583      3.005
REMARK  Name = 
REMARK  7 active torsions:
REMARK  status: ('A' for Active; 'I' for Inactive)
REMARK    1  A    between atoms: C_1  and  C_2
REMARK    2  A    between atoms: C_5  and  C_6
REMARK    3  A    between atoms: C_7  and  N_8
REMARK    4  A    between atoms: N_8  and  C_9
REMARK    5  A    between atoms: N_8  and  S_13
REMARK    6  A    between atoms: C_9  and  C_10
REMARK    7  A    between atoms: S_13  and  C_14
REMARK                            x       y       z     vdW  Elec       q    Type
REMARK                         _______ _______ _______ _____ _____    ______ ____
ROOT
ATOM      1  N   UNL     1       5.887   4.595  17.229  0.00  0.00    +0.000 N 
ENDROOT
BRANCH   1   8
ATOM      2  C   UNL     1       2.338   8.015  18.074  0.00  0.00    +0.000 C 
ATOM      3  C   UNL     1       2.699   6.562  17.965  0.00  0.00    +0.000 A 
ATOM      4  C   UNL     1       1.718   5.587  17.942  0.00  0.00    +0.000 A 
ATOM      5  C   UNL     1       2.106   4.256  17.900  0.00  0.00    +0.000 A 
ATOM      6  C   UNL     1       3.476   3.854  17.834  0.00  0.00    +0.000 A 
ATOM      7  C   UNL     1       3.623   2.356  17.940  0.00  0.00    +0.000 C 
ATOM      8  C   UNL     1       4.490   4.843  17.678  0.00  0.00    +0.000 A 
ATOM      9  C   UNL     1       4.060   6.183  17.835  0.00  0.00    +0.000 A 
ENDBRANCH   1   8
BRANCH   1  10
ATOM     10  S   UNL     1       7.211   4.993  18.263  0.00  0.00    +0.000 S 
ATOM     11  C   UNL     1       7.566   6.671  17.740  0.00  0.00    +0.000 C 
ATOM     12  O   UNL     1       6.808   5.005  19.625  0.00  0.00    +0.000 OA
ATOM     13  O   UNL     1       8.378   4.192  17.846  0.00  0.00    +0.000 OA
ENDBRANCH   1  10
BRANCH   1  14
ATOM     14  C   UNL     1       6.257   3.782  16.032  0.00  0.00    +0.000 C 
BRANCH  14  15
ATOM     15  C   UNL     1       6.595   4.495  14.732  0.00  0.00    +0.000 C 
ATOM     16  N   UNL     1       5.808   4.163  13.672  0.00  0.00    +0.000 N 
ATOM     17  O   UNL     1       7.466   5.350  14.637  0.00  0.00    +0.000 OA
ATOM     18  H   UNL     1       5.355   3.263  13.711  0.00  0.00    +0.000 HD
ATOM     19  H   UNL     1       6.177   4.427  12.766  0.00  0.00    +0.000 HD
ENDBRANCH  14  15
ENDBRANCH   1  14
TORSDOF 4
ENDMDL
MODEL 6
REMARK VINA RESULT:      -6.9      1.593      3.038
REMARK  Name = 
REMARK  7 active torsions:
REMARK  status: ('A' for Active; 'I' for Inactive)
REMARK    1  A    between atoms: C_1  and  C_2
REMARK    2  A    between atoms: C_5  and  C_6
REMARK    3  A    between atoms: C_7  and  N_8
REMARK    4  A    between atoms: N_8  and  C_9
REMARK    5  A    between atoms: N_8  and  S_13
REMARK    6  A    between atoms: C_9  and  C_10
REMARK    7  A    between atoms: S_13  and  C_14
REMARK                            x       y       z     vdW  Elec       q    Type
REMARK                         _______ _______ _______ _____ _____    ______ ____
ROOT
ATOM      1  N   UNL     1       5.844   4.771  16.882  0.00  0.00    +0.000 N 
ENDROOT
BRANCH   1   8
ATOM      2  C   UNL     1       2.531   8.395  17.831  0.00  0.00    +0.000 C 
ATOM      3  C   UNL     1       2.862   6.932  17.888  0.00  0.00    +0.000 A 
ATOM      4  C   UNL     1       1.892   5.998  18.208  0.00  0.00    +0.000 A 
ATOM      5  C   UNL     1       2.262   4.664  18.306  0.00  0.00    +0.000 A 
ATOM      6  C   UNL     1       3.593   4.212  18.046  0.00  0.00    +0.000 A 
ATOM      7  C   UNL     1       3.755   2.745  18.359  0.00  0.00    +0.000 C 
ATOM      8  C   UNL     1       4.560   5.131  17.543  0.00  0.00    +0.000 A 
ATOM      9  C   UNL     1       4.171   6.493  17.563  0.00  0.00    +0.000 A 
ENDBRANCH   1   8
BRANCH   1  10
ATOM     10  S   UNL     1       7.345   5.225  17.602  0.00  0.00    +0.000 S 
ATOM     11  C   UNL     1       6.869   5.389  19.322  0.00  0.00    +0.000 C 
ATOM     12  O   UNL     1       8.304   4.184  17.481  0.00  0.00    +0.000 OA
ATOM     13  O   UNL     1       7.678   6.589  17.149  0.00  0.00    +0.000 OA
ENDBRANCH   1  10
BRANCH   1  14
ATOM     14  C   UNL     1       5.966   3.809  15.746  0.00  0.00    +0.000 C 
BRANCH  14  15
ATOM     15  C   UNL     1       6.467   4.315  14.402  0.00  0.00    +0.000 C 
ATOM     16  N   UNL     1       7.458   5.246  14.470  0.00  0.00    +0.000 N 
ATOM     17  O   UNL     1       6.063   3.890  13.327  0.00  0.00    +0.000 OA
ATOM     18  H   UNL     1       7.517   5.781  15.322  0.00  0.00    +0.000 HD
ATOM     19  H   UNL     1       7.615   5.767  13.615  0.00  0.00    +0.000 HD
ENDBRANCH  14  15
ENDBRANCH   1  14
TORSDOF 4
ENDMDL
MODEL 7
REMARK VINA RESULT:      -6.9      1.843      3.851
REMARK  Name = 
REMARK  7 active torsions:
REMARK  status: ('A' for Active; 'I' for Inactive)
REMARK    1  A    between atoms: C_1  and  C_2
REMARK    2  A    between atoms: C_5  and  C_6
REMARK    3  A    between atoms: C_7  and  N_8
REMARK    4  A    between atoms: N_8  and  C_9
REMARK    5  A    between atoms: N_8  and  S_13
REMARK    6  A    between atoms: C_9  and  C_10
REMARK    7  A    between atoms: S_13  and  C_14
REMARK                            x       y       z     vdW  Elec       q    Type
REMARK                         _______ _______ _______ _____ _____    ______ ____
ROOT
ATOM      1  N   UNL     1       5.616   5.633  17.383  0.00  0.00    +0.000 N 
ENDROOT
BRANCH   1   8
ATOM      2  C   UNL     1       3.147   1.446  18.558  0.00  0.00    +0.000 C 
ATOM      3  C   UNL     1       3.144   2.947  18.499  0.00  0.00    +0.000 A 
ATOM      4  C   UNL     1       2.140   3.678  19.107  0.00  0.00    +0.000 A 
ATOM      5  C   UNL     1       2.151   5.059  18.973  0.00  0.00    +0.000 A 
ATOM      6  C   UNL     1       3.181   5.758  18.271  0.00  0.00    +0.000 A 
ATOM      7  C   UNL     1       2.879   7.231  18.157  0.00  0.00    +0.000 C 
ATOM      8  C   UNL     1       4.315   5.038  17.791  0.00  0.00    +0.000 A 
ATOM      9  C   UNL     1       4.208   3.627  17.854  0.00  0.00    +0.000 A 
ENDBRANCH   1   8
BRANCH   1  10
ATOM     10  S   UNL     1       7.007   5.443  18.387  0.00  0.00    +0.000 S 
ATOM     11  C   UNL     1       7.816   7.027  18.160  0.00  0.00    +0.000 C 
ATOM     12  O   UNL     1       6.635   5.300  19.750  0.00  0.00    +0.000 OA
ATOM     13  O   UNL     1       7.897   4.449  17.758  0.00  0.00    +0.000 OA
ENDBRANCH   1  10
BRANCH   1  14
ATOM     14  C   UNL     1       5.902   6.187  16.025  0.00  0.00    +0.000 C 
BRANCH  14  15
ATOM     15  C   UNL     1       6.274   5.231  14.903  0.00  0.00    +0.000 C 
ATOM     16  N   UNL     1       7.596   5.208  14.580  0.00  0.00    +0.000 N 
ATOM     17  O   UNL     1       5.470   4.488  14.354  0.00  0.00    +0.000 OA
ATOM     18  H   UNL     1       8.131   6.030  14.810  0.00  0.00    +0.000 HD
ATOM     19  H   UNL     1       7.812   4.781  13.687  0.00  0.00    +0.000 HD
ENDBRANCH  14  15
ENDBRANCH   1  14
TORSDOF 4
ENDMDL
MODEL 8
REMARK VINA RESULT:      -6.8      1.709      3.812
REMARK  Name = 
REMARK  7 active torsions:
REMARK  status: ('A' for Active; 'I' for Inactive)
REMARK    1  A    between atoms: C_1  and  C_2
REMARK    2  A    between atoms: C_5  and  C_6
REMARK    3  A    between atoms: C_7  and  N_8
REMARK    4  A    between atoms: N_8  and  C_9
REMARK    5  A    between atoms: N_8  and  S_13
REMARK    6  A    between atoms: C_9  and  C_10
REMARK    7  A    between atoms: S_13  and  C_14
REMARK                            x       y       z     vdW  Elec       q    Type
REMARK                         _______ _______ _______ _____ _____    ______ ____
ROOT
ATOM      1  N   UNL     1       5.851   4.507  16.679  0.00  0.00    +0.000 N 
ENDROOT
BRANCH   1   8
ATOM      2  C   UNL     1       1.752   2.259  18.456  0.00  0.00    +0.000 C 
ATOM      3  C   UNL     1       2.460   3.546  18.145  0.00  0.00    +0.000 A 
ATOM      4  C   UNL     1       1.955   4.756  18.586  0.00  0.00    +0.000 A 
ATOM      5  C   UNL     1       2.614   5.922  18.223  0.00  0.00    +0.000 A 
ATOM      6  C   UNL     1       3.815   5.920  17.449  0.00  0.00    +0.000 A 
ATOM      7  C   UNL     1       4.244   7.318  17.078  0.00  0.00    +0.000 C 
ATOM      8  C   UNL     1       4.446   4.679  17.136  0.00  0.00    +0.000 A 
ATOM      9  C   UNL     1       3.686   3.521  17.432  0.00  0.00    +0.000 A 
ENDBRANCH   1   8
BRANCH   1  10
ATOM     10  S   UNL     1       7.154   5.086  17.651  0.00  0.00    +0.000 S 
ATOM     11  C   UNL     1       6.372   5.177  19.261  0.00  0.00    +0.000 C 
ATOM     12  O   UNL     1       8.213   4.140  17.700  0.00  0.00    +0.000 OA
ATOM     13  O   UNL     1       7.432   6.482  17.264  0.00  0.00    +0.000 OA
ENDBRANCH   1  10
BRANCH   1  14
ATOM     14  C   UNL     1       6.267   3.633  15.541  0.00  0.00    +0.000 C 
BRANCH  14  15
ATOM     15  C   UNL     1       6.598   4.274  14.202  0.00  0.00    +0.000 C 
ATOM     16  N   UNL     1       6.256   3.537  13.110  0.00  0.00    +0.000 N 
ATOM     17  O   UNL     1       7.082   5.393  14.091  0.00  0.00    +0.000 OA
ATOM     18  H   UNL     1       6.177   2.541  13.245  0.00  0.00    +0.000 HD
ATOM     19  H   UNL     1       6.694   3.828  12.243  0.00  0.00    +0.000 HD
ENDBRANCH  14  15
ENDBRANCH   1  14
TORSDOF 4
ENDMDL
MODEL 9
REMARK VINA RESULT:      -6.8      3.214      5.082
REMARK  Name = 
REMARK  7 active torsions:
REMARK  status: ('A' for Active; 'I' for Inactive)
REMARK    1  A    between atoms: C_1  and  C_2
REMARK    2  A    between atoms: C_5  and  C_6
REMARK    3  A    between atoms: C_7  and  N_8
REMARK    4  A    between atoms: N_8  and  C_9
REMARK    5  A    between atoms: N_8  and  S_13
REMARK    6  A    between atoms: C_9  and  C_10
REMARK    7  A    between atoms: S_13  and  C_14
REMARK                            x       y       z     vdW  Elec       q    Type
REMARK                         _______ _______ _______ _____ _____    ______ ____
ROOT
ATOM      1  N   UNL     1       3.450   4.055  17.872  0.00  0.00    +0.000 N 
ENDROOT
BRANCH   1   8
ATOM      2  C   UNL     1       6.105   3.880  13.637  0.00  0.00    +0.000 C 
ATOM      3  C   UNL     1       6.050   4.275  15.085  0.00  0.00    +0.000 A 
ATOM      4  C   UNL     1       7.043   5.059  15.644  0.00  0.00    +0.000 A 
ATOM      5  C   UNL     1       6.977   5.347  17.000  0.00  0.00    +0.000 A 
ATOM      6  C   UNL     1       5.903   4.902  17.831  0.00  0.00    +0.000 A 
ATOM      7  C   UNL     1       6.147   5.231  19.283  0.00  0.00    +0.000 C 
ATOM      8  C   UNL     1       4.783   4.245  17.239  0.00  0.00    +0.000 A 
ATOM      9  C   UNL     1       4.944   3.880  15.881  0.00  0.00    +0.000 A 
ENDBRANCH   1   8
BRANCH   1  10
ATOM     10  S   UNL     1       3.137   2.651  18.825  0.00  0.00    +0.000 S 
ATOM     11  C   UNL     1       1.346   2.604  18.795  0.00  0.00    +0.000 C 
ATOM     12  O   UNL     1       3.644   1.483  18.193  0.00  0.00    +0.000 OA
ATOM     13  O   UNL     1       3.504   2.950  20.222  0.00  0.00    +0.000 OA
ENDBRANCH   1  10
BRANCH   1  14
ATOM     14  C   UNL     1       2.403   5.116  17.967  0.00  0.00    +0.000 C 
BRANCH  14  15
ATOM     15  C   UNL     1       2.640   6.306  18.883  0.00  0.00    +0.000 C 
ATOM     16  N   UNL     1       2.705   6.009  20.210  0.00  0.00    +0.000 N 
ATOM     17  O   UNL     1       2.819   7.447  18.475  0.00  0.00    +0.000 OA
ATOM     18  H   UNL     1       2.243   5.163  20.506  0.00  0.00    +0.000 HD
ATOM     19  H   UNL     1       2.606   6.802  20.832  0.00  0.00    +0.000 HD
ENDBRANCH  14  15
ENDBRANCH   1  14
TORSDOF 4
ENDMDL
