MODEL 1
REMARK VINA RESULT:      -8.0      0.000      0.000
REMARK  Name = 
REMARK  3 active torsions:
REMARK  status: ('A' for Active; 'I' for Inactive)
REMARK    1  A    between atoms: C_2  and  C_3
REMARK    2  A    between atoms: C_16  and  C_17
REMARK    3  A    between atoms: C_17  and  C_18
REMARK                            x       y       z     vdW  Elec       q    Type
REMARK                         _______ _______ _______ _____ _____    ______ ____
ROOT
ATOM      1  O   UNL     1       2.236   5.125  21.297  0.00  0.00    +0.000 OA
ATOM      2  C   UNL     1       2.091   5.376  20.100  0.00  0.00    +0.000 C 
ATOM      3  N   UNL     1       1.869   4.314  19.211  0.00  0.00    +0.000 N 
ATOM      4  C   UNL     1       1.585   2.972  19.741  0.00  0.00    +0.000 C 
ATOM      5  C   UNL     1       2.562   1.922  19.201  0.00  0.00    +0.000 C 
ATOM      6  O   UNL     1       2.696   1.985  17.775  0.00  0.00    +0.000 OA
ATOM      7  C   UNL     1       3.053   3.293  17.291  0.00  0.00    +0.000 C 
ATOM      8  C   UNL     1       2.017   4.334  17.755  0.00  0.00    +0.000 C 
ENDROOT
BRANCH   2   9
ATOM      9  C   UNL     1       2.138   6.753  19.617  0.00  0.00    +0.000 A 
ATOM     10  S   UNL     1       2.847   7.155  18.092  0.00  0.00    +0.000 S 
ATOM     11  C   UNL     1       2.437   8.809  18.237  0.00  0.00    +0.000 A 
ATOM     12  C   UNL     1       1.663   9.028  19.345  0.00  0.00    +0.000 A 
ATOM     13  C   UNL     1       1.488   7.861  20.133  0.00  0.00    +0.000 A 
ATOM     14  O   UNL     1       0.764   7.840  21.281  0.00  0.00    +0.000 OA
ATOM     15  C   UNL     1      -0.121   8.973  21.342  0.00  0.00    +0.000 C 
ATOM     16  C   UNL     1       0.574  10.280  20.941  0.00  0.00    +0.000 C 
ATOM     17  O   UNL     1       1.122  10.239  19.614  0.00  0.00    +0.000 OA
ENDBRANCH   2   9
BRANCH   7  18
ATOM     18  C   UNL     1       4.482   3.726  17.689  0.00  0.00    +0.000 C 
BRANCH  18  19
ATOM     19  C   UNL     1       5.359   4.116  16.520  0.00  0.00    +0.000 A 
ATOM     20  C   UNL     1       4.945   3.865  15.202  0.00  0.00    +0.000 A 
ATOM     21  C   UNL     1       5.751   4.242  14.126  0.00  0.00    +0.000 A 
ATOM     22  C   UNL     1       6.962   4.878  14.367  0.00  0.00    +0.000 A 
ATOM     23  F   UNL     1       7.732   5.243  13.335  0.00  0.00    +0.000 F 
ATOM     24  C   UNL     1       7.382   5.148  15.664  0.00  0.00    +0.000 A 
ATOM     25  C   UNL     1       6.583   4.765  16.741  0.00  0.00    +0.000 A 
ENDBRANCH  18  19
ENDBRANCH   7  18
TORSDOF 3
ENDMDL
MODEL 2
REMARK VINA RESULT:      -7.8      3.063      6.926
REMARK  Name = 
REMARK  3 active torsions:
REMARK  status: ('A' for Active; 'I' for Inactive)
REMARK    1  A    between atoms: C_2  and  C_3
REMARK    2  A    between atoms: C_16  and  C_17
REMARK    3  A    between atoms: C_17  and  C_18
REMARK                            x       y       z     vdW  Elec       q    Type
REMARK                         _______ _______ _______ _____ _____    ______ ____
ROOT
ATOM      1  O   UNL     1       3.447   2.816  17.208  0.00  0.00    +0.000 OA
ATOM      2  C   UNL     1       3.999   3.667  17.908  0.00  0.00    +0.000 C 
ATOM      3  N   UNL     1       3.403   4.025  19.127  0.00  0.00    +0.000 N 
ATOM      4  C   UNL     1       2.281   3.229  19.646  0.00  0.00    +0.000 C 
ATOM      5  C   UNL     1       1.042   4.090  19.919  0.00  0.00    +0.000 C 
ATOM      6  O   UNL     1       1.351   5.261  20.688  0.00  0.00    +0.000 OA
ATOM      7  C   UNL     1       2.400   6.063  20.112  0.00  0.00    +0.000 C 
ATOM      8  C   UNL     1       3.675   5.220  19.926  0.00  0.00    +0.000 C 
ENDROOT
BRANCH   2   9
ATOM      9  C   UNL     1       5.253   4.282  17.485  0.00  0.00    +0.000 A 
ATOM     10  S   UNL     1       6.472   4.733  18.624  0.00  0.00    +0.000 S 
ATOM     11  C   UNL     1       7.552   5.244  17.400  0.00  0.00    +0.000 A 
ATOM     12  C   UNL     1       7.059   4.951  16.157  0.00  0.00    +0.000 A 
ATOM     13  C   UNL     1       5.752   4.402  16.198  0.00  0.00    +0.000 A 
ATOM     14  O   UNL     1       5.060   4.043  15.087  0.00  0.00    +0.000 OA
ATOM     15  C   UNL     1       5.950   3.877  13.969  0.00  0.00    +0.000 C 
ATOM     16  C   UNL     1       6.968   5.018  13.857  0.00  0.00    +0.000 C 
ATOM     17  O   UNL     1       7.783   5.159  15.032  0.00  0.00    +0.000 OA
ENDBRANCH   2   9
BRANCH   7  18
ATOM     18  C   UNL     1       1.994   6.743  18.785  0.00  0.00    +0.000 C 
BRANCH  18  19
ATOM     19  C   UNL     1       1.742   8.229  18.904  0.00  0.00    +0.000 A 
ATOM     20  C   UNL     1       2.072   9.098  17.851  0.00  0.00    +0.000 A 
ATOM     21  C   UNL     1       1.822  10.467  17.960  0.00  0.00    +0.000 A 
ATOM     22  C   UNL     1       1.233  10.965  19.115  0.00  0.00    +0.000 A 
ATOM     23  F   UNL     1       0.990  12.277  19.217  0.00  0.00    +0.000 F 
ATOM     24  C   UNL     1       0.885  10.120  20.161  0.00  0.00    +0.000 A 
ATOM     25  C   UNL     1       1.141   8.753  20.059  0.00  0.00    +0.000 A 
ENDBRANCH  18  19
ENDBRANCH   7  18
TORSDOF 3
ENDMDL
MODEL 3
REMARK VINA RESULT:      -7.6      3.229      7.254
REMARK  Name = 
REMARK  3 active torsions:
REMARK  status: ('A' for Active; 'I' for Inactive)
REMARK    1  A    between atoms: C_2  and  C_3
REMARK    2  A    between atoms: C_16  and  C_17
REMARK    3  A    between atoms: C_17  and  C_18
REMARK                            x       y       z     vdW  Elec       q    Type
REMARK                         _______ _______ _______ _____ _____    ______ ____
ROOT
ATOM      1  O   UNL     1       3.092   3.204  16.747  0.00  0.00    +0.000 OA
ATOM      2  C   UNL     1       3.754   3.790  17.605  0.00  0.00    +0.000 C 
ATOM      3  N   UNL     1       3.245   3.871  18.909  0.00  0.00    +0.000 N 
ATOM      4  C   UNL     1       2.067   3.072  19.278  0.00  0.00    +0.000 C 
ATOM      5  C   UNL     1       0.935   3.942  19.840  0.00  0.00    +0.000 C 
ATOM      6  O   UNL     1       1.392   4.840  20.860  0.00  0.00    +0.000 OA
ATOM      7  C   UNL     1       2.496   5.665  20.443  0.00  0.00    +0.000 C 
ATOM      8  C   UNL     1       3.669   4.788  19.968  0.00  0.00    +0.000 C 
ENDROOT
BRANCH   2   9
ATOM      9  C   UNL     1       5.048   4.378  17.274  0.00  0.00    +0.000 A 
ATOM     10  S   UNL     1       6.175   4.839  18.501  0.00  0.00    +0.000 S 
ATOM     11  C   UNL     1       7.362   5.307  17.361  0.00  0.00    +0.000 A 
ATOM     12  C   UNL     1       6.969   4.993  16.087  0.00  0.00    +0.000 A 
ATOM     13  C   UNL     1       5.654   4.462  16.031  0.00  0.00    +0.000 A 
ATOM     14  O   UNL     1       5.052   4.087  14.874  0.00  0.00    +0.000 OA
ATOM     15  C   UNL     1       6.029   3.884  13.838  0.00  0.00    +0.000 C 
ATOM     16  C   UNL     1       7.070   5.008  13.787  0.00  0.00    +0.000 C 
ATOM     17  O   UNL     1       7.787   5.165  15.022  0.00  0.00    +0.000 OA
ENDBRANCH   2   9
BRANCH   7  18
ATOM     18  C   UNL     1       2.113   6.701  19.361  0.00  0.00    +0.000 C 
BRANCH  18  19
ATOM     19  C   UNL     1       1.597   8.010  19.915  0.00  0.00    +0.000 A 
ATOM     20  C   UNL     1       1.374   8.166  21.292  0.00  0.00    +0.000 A 
ATOM     21  C   UNL     1       0.913   9.383  21.799  0.00  0.00    +0.000 A 
ATOM     22  C   UNL     1       0.686  10.444  20.932  0.00  0.00    +0.000 A 
ATOM     23  F   UNL     1       0.248  11.611  21.420  0.00  0.00    +0.000 F 
ATOM     24  C   UNL     1       0.915  10.314  19.568  0.00  0.00    +0.000 A 
ATOM     25  C   UNL     1       1.367   9.097  19.057  0.00  0.00    +0.000 A 
ENDBRANCH  18  19
ENDBRANCH   7  18
TORSDOF 3
ENDMDL
MODEL 4
REMARK VINA RESULT:      -7.5      3.073      4.976
REMARK  Name = 
REMARK  3 active torsions:
REMARK  status: ('A' for Active; 'I' for Inactive)
REMARK    1  A    between atoms: C_2  and  C_3
REMARK    2  A    between atoms: C_16  and  C_17
REMARK    3  A    between atoms: C_17  and  C_18
REMARK                            x       y       z     vdW  Elec       q    Type
REMARK                         _______ _______ _______ _____ _____    ______ ____
ROOT
ATOM      1  O   UNL     1       3.555   6.917  18.346  0.00  0.00    +0.000 OA
ATOM      2  C   UNL     1       4.056   5.803  18.184  0.00  0.00    +0.000 C 
ATOM      3  N   UNL     1       5.427   5.716  17.898  0.00  0.00    +0.000 N 
ATOM      4  C   UNL     1       6.271   6.914  18.025  0.00  0.00    +0.000 C 
ATOM      5  C   UNL     1       7.026   7.226  16.727  0.00  0.00    +0.000 C 
ATOM      6  O   UNL     1       7.696   6.075  16.197  0.00  0.00    +0.000 OA
ATOM      7  C   UNL     1       6.827   4.942  16.008  0.00  0.00    +0.000 C 
ATOM      8  C   UNL     1       6.141   4.569  17.336  0.00  0.00    +0.000 C 
ENDROOT
BRANCH   2   9
ATOM      9  C   UNL     1       3.243   4.597  18.299  0.00  0.00    +0.000 A 
ATOM     10  S   UNL     1       3.091   3.478  16.991  0.00  0.00    +0.000 S 
ATOM     11  C   UNL     1       2.131   2.399  17.907  0.00  0.00    +0.000 A 
ATOM     12  C   UNL     1       2.042   2.807  19.211  0.00  0.00    +0.000 A 
ATOM     13  C   UNL     1       2.675   4.056  19.441  0.00  0.00    +0.000 A 
ATOM     14  O   UNL     1       2.708   4.661  20.655  0.00  0.00    +0.000 OA
ATOM     15  C   UNL     1       2.434   3.712  21.701  0.00  0.00    +0.000 C 
ATOM     16  C   UNL     1       1.243   2.805  21.370  0.00  0.00    +0.000 C 
ATOM     17  O   UNL     1       1.427   2.059  20.156  0.00  0.00    +0.000 OA
ENDBRANCH   2   9
BRANCH   7  18
ATOM     18  C   UNL     1       5.781   5.151  14.890  0.00  0.00    +0.000 C 
BRANCH  18  19
ATOM     19  C   UNL     1       5.985   4.266  13.681  0.00  0.00    +0.000 A 
ATOM     20  C   UNL     1       7.249   4.156  13.080  0.00  0.00    +0.000 A 
ATOM     21  C   UNL     1       7.435   3.326  11.973  0.00  0.00    +0.000 A 
ATOM     22  C   UNL     1       6.362   2.597  11.476  0.00  0.00    +0.000 A 
ATOM     23  F   UNL     1       6.541   1.798  10.417  0.00  0.00    +0.000 F 
ATOM     24  C   UNL     1       5.107   2.681  12.066  0.00  0.00    +0.000 A 
ATOM     25  C   UNL     1       4.916   3.517  13.166  0.00  0.00    +0.000 A 
ENDBRANCH  18  19
ENDBRANCH   7  18
TORSDOF 3
ENDMDL
MODEL 5
REMARK VINA RESULT:      -7.3      0.628      1.159
REMARK  Name = 
REMARK  3 active torsions:
REMARK  status: ('A' for Active; 'I' for Inactive)
REMARK    1  A    between atoms: C_2  and  C_3
REMARK    2  A    between atoms: C_16  and  C_17
REMARK    3  A    between atoms: C_17  and  C_18
REMARK                            x       y       z     vdW  Elec       q    Type
REMARK                         _______ _______ _______ _____ _____    ______ ____
ROOT
ATOM      1  O   UNL     1       3.114   5.238  21.157  0.00  0.00    +0.000 OA
ATOM      2  C   UNL     1       2.742   5.433  19.998  0.00  0.00    +0.000 C 
ATOM      3  N   UNL     1       2.525   4.326  19.165  0.00  0.00    +0.000 N 
ATOM      4  C   UNL     1       2.519   2.974  19.743  0.00  0.00    +0.000 C 
ATOM      5  C   UNL     1       3.530   2.049  19.054  0.00  0.00    +0.000 C 
ATOM      6  O   UNL     1       3.420   2.089  17.625  0.00  0.00    +0.000 OA
ATOM      7  C   UNL     1       3.510   3.419  17.081  0.00  0.00    +0.000 C 
ATOM      8  C   UNL     1       2.430   4.324  17.704  0.00  0.00    +0.000 C 
ENDROOT
BRANCH   2   9
ATOM      9  C   UNL     1       2.520   6.789  19.506  0.00  0.00    +0.000 A 
ATOM     10  S   UNL     1       3.007   7.268  17.918  0.00  0.00    +0.000 S 
ATOM     11  C   UNL     1       2.351   8.838  18.094  0.00  0.00    +0.000 A 
ATOM     12  C   UNL     1       1.659   8.952  19.270  0.00  0.00    +0.000 A 
ATOM     13  C   UNL     1       1.750   7.788  20.077  0.00  0.00    +0.000 A 
ATOM     14  O   UNL     1       1.151   7.675  21.289  0.00  0.00    +0.000 OA
ATOM     15  C   UNL     1       0.104   8.652  21.429  0.00  0.00    +0.000 C 
ATOM     16  C   UNL     1       0.536  10.045  20.957  0.00  0.00    +0.000 C 
ATOM     17  O   UNL     1       0.956  10.066  19.583  0.00  0.00    +0.000 OA
ENDBRANCH   2   9
BRANCH   7  18
ATOM     18  C   UNL     1       4.911   4.052  17.235  0.00  0.00    +0.000 C 
BRANCH  18  19
ATOM     19  C   UNL     1       5.635   4.276  15.926  0.00  0.00    +0.000 A 
ATOM     20  C   UNL     1       6.841   4.994  15.889  0.00  0.00    +0.000 A 
ATOM     21  C   UNL     1       7.512   5.184  14.680  0.00  0.00    +0.000 A 
ATOM     22  C   UNL     1       6.986   4.647  13.512  0.00  0.00    +0.000 A 
ATOM     23  F   UNL     1       7.633   4.826  12.354  0.00  0.00    +0.000 F 
ATOM     24  C   UNL     1       5.802   3.920  13.531  0.00  0.00    +0.000 A 
ATOM     25  C   UNL     1       5.124   3.736  14.736  0.00  0.00    +0.000 A 
ENDBRANCH  18  19
ENDBRANCH   7  18
TORSDOF 3
ENDMDL
MODEL 6
REMARK VINA RESULT:      -7.2      8.031     10.784
REMARK  Name = 
REMARK  3 active torsions:
REMARK  status: ('A' for Active; 'I' for Inactive)
REMARK    1  A    between atoms: C_2  and  C_3
REMARK    2  A    between atoms: C_16  and  C_17
REMARK    3  A    between atoms: C_17  and  C_18
REMARK                            x       y       z     vdW  Elec       q    Type
REMARK                         _______ _______ _______ _____ _____    ______ ____
ROOT
ATOM      1  O   UNL     1      -5.195  15.071  20.150  0.00  0.00    +0.000 OA
ATOM      2  C   UNL     1      -5.134  13.925  20.598  0.00  0.00    +0.000 C 
ATOM      3  N   UNL     1      -4.888  13.751  21.968  0.00  0.00    +0.000 N 
ATOM      4  C   UNL     1      -4.941  14.913  22.868  0.00  0.00    +0.000 C 
ATOM      5  C   UNL     1      -3.641  15.084  23.663  0.00  0.00    +0.000 C 
ATOM      6  O   UNL     1      -3.219  13.864  24.287  0.00  0.00    +0.000 OA
ATOM      7  C   UNL     1      -3.100  12.762  23.367  0.00  0.00    +0.000 C 
ATOM      8  C   UNL     1      -4.436  12.530  22.637  0.00  0.00    +0.000 C 
ENDROOT
BRANCH   2   9
ATOM      9  C   UNL     1      -5.323  12.772  19.724  0.00  0.00    +0.000 A 
ATOM     10  S   UNL     1      -6.889  12.315  19.152  0.00  0.00    +0.000 S 
ATOM     11  C   UNL     1      -6.267  11.039  18.198  0.00  0.00    +0.000 A 
ATOM     12  C   UNL     1      -4.897  11.046  18.202  0.00  0.00    +0.000 A 
ATOM     13  C   UNL     1      -4.355  12.031  19.067  0.00  0.00    +0.000 A 
ATOM     14  O   UNL     1      -3.021  12.216  19.239  0.00  0.00    +0.000 OA
ATOM     15  C   UNL     1      -2.285  11.629  18.152  0.00  0.00    +0.000 C 
ATOM     16  C   UNL     1      -2.785  10.224  17.797  0.00  0.00    +0.000 C 
ATOM     17  O   UNL     1      -4.175  10.200  17.431  0.00  0.00    +0.000 OA
ENDBRANCH   2   9
BRANCH   7  18
ATOM     18  C   UNL     1      -1.944  12.931  22.356  0.00  0.00    +0.000 C 
BRANCH  18  19
ATOM     19  C   UNL     1      -1.019  11.737  22.270  0.00  0.00    +0.000 A 
ATOM     20  C   UNL     1      -1.123  10.684  23.193  0.00  0.00    +0.000 A 
ATOM     21  C   UNL     1      -0.278   9.577  23.098  0.00  0.00    +0.000 A 
ATOM     22  C   UNL     1       0.661   9.517  22.076  0.00  0.00    +0.000 A 
ATOM     23  F   UNL     1       1.468   8.453  21.984  0.00  0.00    +0.000 F 
ATOM     24  C   UNL     1       0.769  10.541  21.144  0.00  0.00    +0.000 A 
ATOM     25  C   UNL     1      -0.069  11.653  21.241  0.00  0.00    +0.000 A 
ENDBRANCH  18  19
ENDBRANCH   7  18
TORSDOF 3
ENDMDL
MODEL 7
REMARK VINA RESULT:      -7.0      4.483      7.410
REMARK  Name = 
REMARK  3 active torsions:
REMARK  status: ('A' for Active; 'I' for Inactive)
REMARK    1  A    between atoms: C_2  and  C_3
REMARK    2  A    between atoms: C_16  and  C_17
REMARK    3  A    between atoms: C_17  and  C_18
REMARK                            x       y       z     vdW  Elec       q    Type
REMARK                         _______ _______ _______ _____ _____    ______ ____
ROOT
ATOM      1  O   UNL     1      -0.815  13.479  18.152  0.00  0.00    +0.000 OA
ATOM      2  C   UNL     1      -1.250  12.462  18.697  0.00  0.00    +0.000 C 
ATOM      3  N   UNL     1      -0.633  12.012  19.873  0.00  0.00    +0.000 N 
ATOM      4  C   UNL     1       0.351  12.871  20.550  0.00  0.00    +0.000 C 
ATOM      5  C   UNL     1       1.697  12.162  20.744  0.00  0.00    +0.000 C 
ATOM      6  O   UNL     1       1.547  10.857  21.319  0.00  0.00    +0.000 OA
ATOM      7  C   UNL     1       0.639  10.011  20.589  0.00  0.00    +0.000 C 
ATOM      8  C   UNL     1      -0.743  10.684  20.477  0.00  0.00    +0.000 C 
ENDROOT
BRANCH   2   9
ATOM      9  C   UNL     1      -2.392  11.747  18.136  0.00  0.00    +0.000 A 
ATOM     10  S   UNL     1      -2.189  10.481  16.977  0.00  0.00    +0.000 S 
ATOM     11  C   UNL     1      -3.864  10.143  16.919  0.00  0.00    +0.000 A 
ATOM     12  C   UNL     1      -4.545  10.875  17.855  0.00  0.00    +0.000 A 
ATOM     13  C   UNL     1      -3.713  11.788  18.552  0.00  0.00    +0.000 A 
ATOM     14  O   UNL     1      -4.170  12.623  19.519  0.00  0.00    +0.000 OA
ATOM     15  C   UNL     1      -5.435  12.163  20.028  0.00  0.00    +0.000 C 
ATOM     16  C   UNL     1      -6.398  11.745  18.910  0.00  0.00    +0.000 C 
ATOM     17  O   UNL     1      -5.869  10.701  18.077  0.00  0.00    +0.000 OA
ENDBRANCH   2   9
BRANCH   7  18
ATOM     18  C   UNL     1       1.166   9.605  19.194  0.00  0.00    +0.000 C 
BRANCH  18  19
ATOM     19  C   UNL     1       1.876   8.270  19.167  0.00  0.00    +0.000 A 
ATOM     20  C   UNL     1       1.755   7.373  20.241  0.00  0.00    +0.000 A 
ATOM     21  C   UNL     1       2.400   6.136  20.203  0.00  0.00    +0.000 A 
ATOM     22  C   UNL     1       3.153   5.790  19.089  0.00  0.00    +0.000 A 
ATOM     23  F   UNL     1       3.768   4.601  19.052  0.00  0.00    +0.000 F 
ATOM     24  C   UNL     1       3.273   6.656  18.010  0.00  0.00    +0.000 A 
ATOM     25  C   UNL     1       2.637   7.898  18.048  0.00  0.00    +0.000 A 
ENDBRANCH  18  19
ENDBRANCH   7  18
TORSDOF 3
ENDMDL
MODEL 8
REMARK VINA RESULT:      -7.0      3.156      5.090
REMARK  Name = 
REMARK  3 active torsions:
REMARK  status: ('A' for Active; 'I' for Inactive)
REMARK    1  A    between atoms: C_2  and  C_3
REMARK    2  A    between atoms: C_16  and  C_17
REMARK    3  A    between atoms: C_17  and  C_18
REMARK                            x       y       z     vdW  Elec       q    Type
REMARK                         _______ _______ _______ _____ _____    ______ ____
ROOT
ATOM      1  O   UNL     1       3.199   7.763  16.376  0.00  0.00    +0.000 OA
ATOM      2  C   UNL     1       3.479   7.372  17.511  0.00  0.00    +0.000 C 
ATOM      3  N   UNL     1       4.672   6.658  17.701  0.00  0.00    +0.000 N 
ATOM      4  C   UNL     1       5.659   6.594  16.613  0.00  0.00    +0.000 C 
ATOM      5  C   UNL     1       6.011   5.148  16.240  0.00  0.00    +0.000 C 
ATOM      6  O   UNL     1       6.333   4.352  17.388  0.00  0.00    +0.000 OA
ATOM      7  C   UNL     1       5.311   4.371  18.403  0.00  0.00    +0.000 C 
ATOM      8  C   UNL     1       5.027   5.819  18.846  0.00  0.00    +0.000 C 
ENDROOT
BRANCH   2   9
ATOM      9  C   UNL     1       2.594   7.654  18.636  0.00  0.00    +0.000 A 
ATOM     10  S   UNL     1       2.512   6.608  20.009  0.00  0.00    +0.000 S 
ATOM     11  C   UNL     1       1.408   7.625  20.830  0.00  0.00    +0.000 A 
ATOM     12  C   UNL     1       1.214   8.794  20.143  0.00  0.00    +0.000 A 
ATOM     13  C   UNL     1       1.888   8.817  18.895  0.00  0.00    +0.000 A 
ATOM     14  O   UNL     1       1.834   9.869  18.040  0.00  0.00    +0.000 OA
ATOM     15  C   UNL     1       1.407  11.059  18.728  0.00  0.00    +0.000 C 
ATOM     16  C   UNL     1       0.207  10.804  19.648  0.00  0.00    +0.000 C 
ATOM     17  O   UNL     1       0.469   9.805  20.647  0.00  0.00    +0.000 OA
ENDBRANCH   2   9
BRANCH   7  18
ATOM     18  C   UNL     1       4.007   3.662  17.973  0.00  0.00    +0.000 C 
BRANCH  18  19
ATOM     19  C   UNL     1       3.098   3.291  19.123  0.00  0.00    +0.000 A 
ATOM     20  C   UNL     1       3.633   2.897  20.360  0.00  0.00    +0.000 A 
ATOM     21  C   UNL     1       2.789   2.571  21.423  0.00  0.00    +0.000 A 
ATOM     22  C   UNL     1       1.413   2.651  21.254  0.00  0.00    +0.000 A 
ATOM     23  F   UNL     1       0.604   2.343  22.275  0.00  0.00    +0.000 F 
ATOM     24  C   UNL     1       0.864   3.054  20.043  0.00  0.00    +0.000 A 
ATOM     25  C   UNL     1       1.704   3.372  18.976  0.00  0.00    +0.000 A 
ENDBRANCH  18  19
ENDBRANCH   7  18
TORSDOF 3
ENDMDL
MODEL 9
REMARK VINA RESULT:      -6.9      1.866      2.154
REMARK  Name = 
REMARK  3 active torsions:
REMARK  status: ('A' for Active; 'I' for Inactive)
REMARK    1  A    between atoms: C_2  and  C_3
REMARK    2  A    between atoms: C_16  and  C_17
REMARK    3  A    between atoms: C_17  and  C_18
REMARK                            x       y       z     vdW  Elec       q    Type
REMARK                         _______ _______ _______ _____ _____    ______ ____
ROOT
ATOM      1  O   UNL     1       1.394   5.130  21.034  0.00  0.00    +0.000 OA
ATOM      2  C   UNL     1       1.834   5.450  19.929  0.00  0.00    +0.000 C 
ATOM      3  N   UNL     1       2.245   4.438  19.049  0.00  0.00    +0.000 N 
ATOM      4  C   UNL     1       1.933   3.036  19.361  0.00  0.00    +0.000 C 
ATOM      5  C   UNL     1       3.191   2.159  19.390  0.00  0.00    +0.000 C 
ATOM      6  O   UNL     1       4.011   2.345  18.229  0.00  0.00    +0.000 OA
ATOM      7  C   UNL     1       4.367   3.720  17.994  0.00  0.00    +0.000 C 
ATOM      8  C   UNL     1       3.099   4.585  17.869  0.00  0.00    +0.000 C 
ENDROOT
BRANCH   2   9
ATOM      9  C   UNL     1       1.916   6.854  19.538  0.00  0.00    +0.000 A 
ATOM     10  S   UNL     1       2.441   7.327  17.960  0.00  0.00    +0.000 S 
ATOM     11  C   UNL     1       2.175   8.987  18.271  0.00  0.00    +0.000 A 
ATOM     12  C   UNL     1       1.573   9.168  19.488  0.00  0.00    +0.000 A 
ATOM     13  C   UNL     1       1.422   7.958  20.212  0.00  0.00    +0.000 A 
ATOM     14  O   UNL     1       0.859   7.895  21.446  0.00  0.00    +0.000 OA
ATOM     15  C   UNL     1       0.074   9.072  21.705  0.00  0.00    +0.000 C 
ATOM     16  C   UNL     1       0.801  10.360  21.300  0.00  0.00    +0.000 C 
ATOM     17  O   UNL     1       1.162  10.387  19.910  0.00  0.00    +0.000 OA
ENDBRANCH   2   9
BRANCH   7  18
ATOM     18  C   UNL     1       5.323   4.298  19.062  0.00  0.00    +0.000 C 
BRANCH  18  19
ATOM     19  C   UNL     1       6.173   5.449  18.573  0.00  0.00    +0.000 A 
ATOM     20  C   UNL     1       5.738   6.259  17.511  0.00  0.00    +0.000 A 
ATOM     21  C   UNL     1       6.519   7.330  17.075  0.00  0.00    +0.000 A 
ATOM     22  C   UNL     1       7.727   7.598  17.705  0.00  0.00    +0.000 A 
ATOM     23  F   UNL     1       8.474   8.628  17.289  0.00  0.00    +0.000 F 
ATOM     24  C   UNL     1       8.168   6.818  18.767  0.00  0.00    +0.000 A 
ATOM     25  C   UNL     1       7.394   5.741  19.200  0.00  0.00    +0.000 A 
ENDBRANCH  18  19
ENDBRANCH   7  18
TORSDOF 3
ENDMDL
