MODEL 1
REMARK VINA RESULT:      -7.0      0.000      0.000
REMARK  Name = 
REMARK  5 active torsions:
REMARK  status: ('A' for Active; 'I' for Inactive)
REMARK    1  A    between atoms: C_1  and  C_2
REMARK    2  A    between atoms: C_6  and  N_7
REMARK    3  A    between atoms: N_7  and  C_8
REMARK    4  A    between atoms: C_8  and  C_9
REMARK    5  A    between atoms: C_15  and  O_16
REMARK                            x       y       z     vdW  Elec       q    Type
REMARK                         _______ _______ _______ _____ _____    ______ ____
ROOT
ATOM      1  C   UNL     1       4.610   5.373  16.770  0.00  0.00    +0.000 C 
ENDROOT
BRANCH   1   2
ATOM      2  C   UNL     1       5.864   5.827  17.478  0.00  0.00    +0.000 A 
ATOM      3  C   UNL     1       6.398   7.098  17.197  0.00  0.00    +0.000 A 
ATOM      4  C   UNL     1       7.534   7.556  17.863  0.00  0.00    +0.000 A 
ATOM      5 CL   UNL     1       8.159   9.120  17.513  0.00  0.00    +0.000 Cl
ATOM      6  C   UNL     1       8.160   6.761  18.819  0.00  0.00    +0.000 A 
ATOM      7  C   UNL     1       7.643   5.498  19.114  0.00  0.00    +0.000 A 
ATOM      8  C   UNL     1       6.502   5.042  18.448  0.00  0.00    +0.000 A 
BRANCH   8   9
ATOM      9  O   UNL     1       5.991   3.813  18.757  0.00  0.00    +0.000 OA
ATOM     10  H   UNL     1       5.425   3.514  18.026  0.00  0.00    +0.000 HD
ENDBRANCH   8   9
ENDBRANCH   1   2
BRANCH   1  11
ATOM     11  N   UNL     1       3.418   5.891  17.401  0.00  0.00    +0.000 N 
ATOM     12  H   UNL     1       2.969   6.715  17.027  0.00  0.00    +0.000 HD
BRANCH  11  18
ATOM     13  C   UNL     1       0.662   2.308  18.779  0.00  0.00    +0.000 C 
ATOM     14  C   UNL     1       1.369   3.579  19.143  0.00  0.00    +0.000 A 
ATOM     15  C   UNL     1       1.266   4.098  20.428  0.00  0.00    +0.000 A 
ATOM     16  C   UNL     1       1.934   5.278  20.715  0.00  0.00    +0.000 A 
ATOM     17  C   UNL     1       2.677   5.899  19.717  0.00  0.00    +0.000 A 
ATOM     18  C   UNL     1       2.739   5.333  18.450  0.00  0.00    +0.000 A 
ATOM     19  N   UNL     1       2.094   4.182  18.167  0.00  0.00    +0.000 NA
ENDBRANCH  11  18
ENDBRANCH   1  11
TORSDOF 4
ENDMDL
MODEL 2
REMARK VINA RESULT:      -7.0      2.134      2.663
REMARK  Name = 
REMARK  5 active torsions:
REMARK  status: ('A' for Active; 'I' for Inactive)
REMARK    1  A    between atoms: C_1  and  C_2
REMARK    2  A    between atoms: C_6  and  N_7
REMARK    3  A    between atoms: N_7  and  C_8
REMARK    4  A    between atoms: C_8  and  C_9
REMARK    5  A    between atoms: C_15  and  O_16
REMARK                            x       y       z     vdW  Elec       q    Type
REMARK                         _______ _______ _______ _____ _____    ______ ____
ROOT
ATOM      1  C   UNL     1       3.976   6.671  17.885  0.00  0.00    +0.000 C 
ENDROOT
BRANCH   1   2
ATOM      2  C   UNL     1       5.140   5.844  17.395  0.00  0.00    +0.000 A 
ATOM      3  C   UNL     1       5.250   5.545  16.024  0.00  0.00    +0.000 A 
ATOM      4  C   UNL     1       6.335   4.814  15.540  0.00  0.00    +0.000 A 
ATOM      5 CL   UNL     1       6.455   4.474  13.859  0.00  0.00    +0.000 Cl
ATOM      6  C   UNL     1       7.328   4.367  16.408  0.00  0.00    +0.000 A 
ATOM      7  C   UNL     1       7.238   4.656  17.770  0.00  0.00    +0.000 A 
ATOM      8  C   UNL     1       6.152   5.393  18.253  0.00  0.00    +0.000 A 
BRANCH   8   9
ATOM      9  O   UNL     1       6.082   5.690  19.585  0.00  0.00    +0.000 OA
ATOM     10  H   UNL     1       6.978   5.858  19.919  0.00  0.00    +0.000 HD
ENDBRANCH   8   9
ENDBRANCH   1   2
BRANCH   1  11
ATOM     11  N   UNL     1       3.360   6.091  19.056  0.00  0.00    +0.000 N 
ATOM     12  H   UNL     1       3.458   6.545  19.953  0.00  0.00    +0.000 HD
BRANCH  11  18
ATOM     13  C   UNL     1       1.634   2.632  21.775  0.00  0.00    +0.000 C 
ATOM     14  C   UNL     1       1.701   3.267  20.417  0.00  0.00    +0.000 A 
ATOM     15  C   UNL     1       1.016   2.710  19.345  0.00  0.00    +0.000 A 
ATOM     16  C   UNL     1       1.112   3.331  18.110  0.00  0.00    +0.000 A 
ATOM     17  C   UNL     1       1.887   4.479  17.985  0.00  0.00    +0.000 A 
ATOM     18  C   UNL     1       2.552   4.986  19.093  0.00  0.00    +0.000 A 
ATOM     19  N   UNL     1       2.457   4.388  20.300  0.00  0.00    +0.000 NA
ENDBRANCH  11  18
ENDBRANCH   1  11
TORSDOF 4
ENDMDL
MODEL 3
REMARK VINA RESULT:      -6.9      0.968      1.710
REMARK  Name = 
REMARK  5 active torsions:
REMARK  status: ('A' for Active; 'I' for Inactive)
REMARK    1  A    between atoms: C_1  and  C_2
REMARK    2  A    between atoms: C_6  and  N_7
REMARK    3  A    between atoms: N_7  and  C_8
REMARK    4  A    between atoms: C_8  and  C_9
REMARK    5  A    between atoms: C_15  and  O_16
REMARK                            x       y       z     vdW  Elec       q    Type
REMARK                         _______ _______ _______ _____ _____    ______ ____
ROOT
ATOM      1  C   UNL     1       4.823   5.602  16.588  0.00  0.00    +0.000 C 
ENDROOT
BRANCH   1   2
ATOM      2  C   UNL     1       6.054   6.008  17.363  0.00  0.00    +0.000 A 
ATOM      3  C   UNL     1       6.559   7.314  17.230  0.00  0.00    +0.000 A 
ATOM      4  C   UNL     1       7.673   7.725  17.962  0.00  0.00    +0.000 A 
ATOM      5 CL   UNL     1       8.263   9.332  17.793  0.00  0.00    +0.000 Cl
ATOM      6  C   UNL     1       8.304   6.846  18.838  0.00  0.00    +0.000 A 
ATOM      7  C   UNL     1       7.816   5.547  18.986  0.00  0.00    +0.000 A 
ATOM      8  C   UNL     1       6.697   5.138  18.255  0.00  0.00    +0.000 A 
BRANCH   8   9
ATOM      9  O   UNL     1       6.213   3.871  18.420  0.00  0.00    +0.000 OA
ATOM     10  H   UNL     1       6.416   3.571  19.321  0.00  0.00    +0.000 HD
ENDBRANCH   8   9
ENDBRANCH   1   2
BRANCH   1  11
ATOM     11  N   UNL     1       3.652   5.541  17.430  0.00  0.00    +0.000 N 
ATOM     12  H   UNL     1       3.175   6.393  17.691  0.00  0.00    +0.000 HD
BRANCH  11  18
ATOM     13  C   UNL     1       1.260   3.595  21.011  0.00  0.00    +0.000 C 
ATOM     14  C   UNL     1       1.856   3.432  19.645  0.00  0.00    +0.000 A 
ATOM     15  C   UNL     1       1.776   2.213  18.983  0.00  0.00    +0.000 A 
ATOM     16  C   UNL     1       2.345   2.111  17.724  0.00  0.00    +0.000 A 
ATOM     17  C   UNL     1       2.975   3.220  17.170  0.00  0.00    +0.000 A 
ATOM     18  C   UNL     1       3.027   4.411  17.883  0.00  0.00    +0.000 A 
ATOM     19  N   UNL     1       2.469   4.517  19.108  0.00  0.00    +0.000 NA
ENDBRANCH  11  18
ENDBRANCH   1  11
TORSDOF 4
ENDMDL
MODEL 4
REMARK VINA RESULT:      -6.9      1.255      1.636
REMARK  Name = 
REMARK  5 active torsions:
REMARK  status: ('A' for Active; 'I' for Inactive)
REMARK    1  A    between atoms: C_1  and  C_2
REMARK    2  A    between atoms: C_6  and  N_7
REMARK    3  A    between atoms: N_7  and  C_8
REMARK    4  A    between atoms: C_8  and  C_9
REMARK    5  A    between atoms: C_15  and  O_16
REMARK                            x       y       z     vdW  Elec       q    Type
REMARK                         _______ _______ _______ _____ _____    ______ ____
ROOT
ATOM      1  C   UNL     1       5.001   5.500  16.540  0.00  0.00    +0.000 C 
ENDROOT
BRANCH   1   2
ATOM      2  C   UNL     1       6.183   5.997  17.338  0.00  0.00    +0.000 A 
ATOM      3  C   UNL     1       6.630   7.320  17.165  0.00  0.00    +0.000 A 
ATOM      4  C   UNL     1       7.696   7.815  17.916  0.00  0.00    +0.000 A 
ATOM      5 CL   UNL     1       8.214   9.441  17.696  0.00  0.00    +0.000 Cl
ATOM      6  C   UNL     1       8.336   7.006  18.850  0.00  0.00    +0.000 A 
ATOM      7  C   UNL     1       7.905   5.692  19.039  0.00  0.00    +0.000 A 
ATOM      8  C   UNL     1       6.834   5.199  18.288  0.00  0.00    +0.000 A 
BRANCH   8   9
ATOM      9  O   UNL     1       6.404   3.918  18.493  0.00  0.00    +0.000 OA
ATOM     10  H   UNL     1       6.960   3.504  19.174  0.00  0.00    +0.000 HD
ENDBRANCH   8   9
ENDBRANCH   1   2
BRANCH   1  11
ATOM     11  N   UNL     1       3.773   5.574  17.295  0.00  0.00    +0.000 N 
ATOM     12  H   UNL     1       3.353   6.472  17.486  0.00  0.00    +0.000 HD
BRANCH  11  18
ATOM     13  C   UNL     1       3.842   1.029  18.589  0.00  0.00    +0.000 C 
ATOM     14  C   UNL     1       3.037   2.276  18.373  0.00  0.00    +0.000 A 
ATOM     15  C   UNL     1       1.665   2.274  18.591  0.00  0.00    +0.000 A 
ATOM     16  C   UNL     1       0.964   3.450  18.375  0.00  0.00    +0.000 A 
ATOM     17  C   UNL     1       1.651   4.582  17.948  0.00  0.00    +0.000 A 
ATOM     18  C   UNL     1       3.023   4.520  17.744  0.00  0.00    +0.000 A 
ATOM     19  N   UNL     1       3.711   3.378  17.958  0.00  0.00    +0.000 NA
ENDBRANCH  11  18
ENDBRANCH   1  11
TORSDOF 4
ENDMDL
MODEL 5
REMARK VINA RESULT:      -6.8      2.644      5.747
REMARK  Name = 
REMARK  5 active torsions:
REMARK  status: ('A' for Active; 'I' for Inactive)
REMARK    1  A    between atoms: C_1  and  C_2
REMARK    2  A    between atoms: C_6  and  N_7
REMARK    3  A    between atoms: N_7  and  C_8
REMARK    4  A    between atoms: C_8  and  C_9
REMARK    5  A    between atoms: C_15  and  O_16
REMARK                            x       y       z     vdW  Elec       q    Type
REMARK                         _______ _______ _______ _____ _____    ______ ____
ROOT
ATOM      1  C   UNL     1       3.268   3.433  17.073  0.00  0.00    +0.000 C 
ENDROOT
BRANCH   1   2
ATOM      2  C   UNL     1       2.558   3.642  18.389  0.00  0.00    +0.000 A 
ATOM      3  C   UNL     1       2.422   4.943  18.906  0.00  0.00    +0.000 A 
ATOM      4  C   UNL     1       1.739   5.166  20.102  0.00  0.00    +0.000 A 
ATOM      5 CL   UNL     1       1.573   6.768  20.705  0.00  0.00    +0.000 Cl
ATOM      6  C   UNL     1       1.182   4.102  20.804  0.00  0.00    +0.000 A 
ATOM      7  C   UNL     1       1.304   2.804  20.306  0.00  0.00    +0.000 A 
ATOM      8  C   UNL     1       1.984   2.582  19.106  0.00  0.00    +0.000 A 
BRANCH   8   9
ATOM      9  O   UNL     1       2.082   1.311  18.614  0.00  0.00    +0.000 OA
ATOM     10  H   UNL     1       1.371   1.167  17.968  0.00  0.00    +0.000 HD
ENDBRANCH   8   9
ENDBRANCH   1   2
BRANCH   1  11
ATOM     11  N   UNL     1       4.701   3.369  17.238  0.00  0.00    +0.000 N 
ATOM     12  H   UNL     1       5.161   2.471  17.291  0.00  0.00    +0.000 HD
BRANCH  11  18
ATOM     13  C   UNL     1       8.050   5.597  19.718  0.00  0.00    +0.000 C 
ATOM     14  C   UNL     1       7.217   5.543  18.473  0.00  0.00    +0.000 A 
ATOM     15  C   UNL     1       7.344   6.524  17.498  0.00  0.00    +0.000 A 
ATOM     16  C   UNL     1       6.549   6.433  16.366  0.00  0.00    +0.000 A 
ATOM     17  C   UNL     1       5.656   5.373  16.246  0.00  0.00    +0.000 A 
ATOM     18  C   UNL     1       5.571   4.425  17.257  0.00  0.00    +0.000 A 
ATOM     19  N   UNL     1       6.348   4.507  18.359  0.00  0.00    +0.000 NA
ENDBRANCH  11  18
ENDBRANCH   1  11
TORSDOF 4
ENDMDL
MODEL 6
REMARK VINA RESULT:      -6.7      2.553      3.268
REMARK  Name = 
REMARK  5 active torsions:
REMARK  status: ('A' for Active; 'I' for Inactive)
REMARK    1  A    between atoms: C_1  and  C_2
REMARK    2  A    between atoms: C_6  and  N_7
REMARK    3  A    between atoms: N_7  and  C_8
REMARK    4  A    between atoms: C_8  and  C_9
REMARK    5  A    between atoms: C_15  and  O_16
REMARK                            x       y       z     vdW  Elec       q    Type
REMARK                         _______ _______ _______ _____ _____    ______ ____
ROOT
ATOM      1  C   UNL     1       6.004   4.355  19.296  0.00  0.00    +0.000 C 
ENDROOT
BRANCH   1   2
ATOM      2  C   UNL     1       5.548   5.200  18.130  0.00  0.00    +0.000 A 
ATOM      3  C   UNL     1       4.564   6.186  18.329  0.00  0.00    +0.000 A 
ATOM      4  C   UNL     1       4.152   7.003  17.277  0.00  0.00    +0.000 A 
ATOM      5 CL   UNL     1       2.959   8.211  17.550  0.00  0.00    +0.000 Cl
ATOM      6  C   UNL     1       4.709   6.855  16.010  0.00  0.00    +0.000 A 
ATOM      7  C   UNL     1       5.688   5.885  15.793  0.00  0.00    +0.000 A 
ATOM      8  C   UNL     1       6.103   5.069  16.849  0.00  0.00    +0.000 A 
BRANCH   8   9
ATOM      9  O   UNL     1       7.077   4.135  16.634  0.00  0.00    +0.000 OA
ATOM     10  H   UNL     1       7.160   3.577  17.425  0.00  0.00    +0.000 HD
ENDBRANCH   8   9
ENDBRANCH   1   2
BRANCH   1  11
ATOM     11  N   UNL     1       5.390   3.048  19.285  0.00  0.00    +0.000 N 
ATOM     12  H   UNL     1       5.958   2.225  19.427  0.00  0.00    +0.000 HD
BRANCH  11  18
ATOM     13  C   UNL     1       1.293   2.724  21.617  0.00  0.00    +0.000 C 
ATOM     14  C   UNL     1       2.027   2.595  20.316  0.00  0.00    +0.000 A 
ATOM     15  C   UNL     1       1.357   2.192  19.167  0.00  0.00    +0.000 A 
ATOM     16  C   UNL     1       2.080   2.084  17.990  0.00  0.00    +0.000 A 
ATOM     17  C   UNL     1       3.440   2.377  17.997  0.00  0.00    +0.000 A 
ATOM     18  C   UNL     1       4.054   2.771  19.179  0.00  0.00    +0.000 A 
ATOM     19  N   UNL     1       3.353   2.883  20.327  0.00  0.00    +0.000 NA
ENDBRANCH  11  18
ENDBRANCH   1  11
TORSDOF 4
ENDMDL
MODEL 7
REMARK VINA RESULT:      -6.7      2.761      3.811
REMARK  Name = 
REMARK  5 active torsions:
REMARK  status: ('A' for Active; 'I' for Inactive)
REMARK    1  A    between atoms: C_1  and  C_2
REMARK    2  A    between atoms: C_6  and  N_7
REMARK    3  A    between atoms: N_7  and  C_8
REMARK    4  A    between atoms: C_8  and  C_9
REMARK    5  A    between atoms: C_15  and  O_16
REMARK                            x       y       z     vdW  Elec       q    Type
REMARK                         _______ _______ _______ _____ _____    ______ ____
ROOT
ATOM      1  C   UNL     1       3.593   4.306  18.380  0.00  0.00    +0.000 C 
ENDROOT
BRANCH   1   2
ATOM      2  C   UNL     1       4.856   4.332  17.554  0.00  0.00    +0.000 A 
ATOM      3  C   UNL     1       4.777   4.164  16.159  0.00  0.00    +0.000 A 
ATOM      4  C   UNL     1       5.925   4.220  15.369  0.00  0.00    +0.000 A 
ATOM      5 CL   UNL     1       5.800   4.026  13.664  0.00  0.00    +0.000 Cl
ATOM      6  C   UNL     1       7.170   4.442  15.949  0.00  0.00    +0.000 A 
ATOM      7  C   UNL     1       7.269   4.614  17.331  0.00  0.00    +0.000 A 
ATOM      8  C   UNL     1       6.117   4.563  18.121  0.00  0.00    +0.000 A 
BRANCH   8   9
ATOM      9  O   UNL     1       6.219   4.752  19.470  0.00  0.00    +0.000 OA
ATOM     10  H   UNL     1       6.753   4.035  19.850  0.00  0.00    +0.000 HD
ENDBRANCH   8   9
ENDBRANCH   1   2
BRANCH   1  11
ATOM     11  N   UNL     1       3.526   5.421  19.296  0.00  0.00    +0.000 N 
ATOM     12  H   UNL     1       4.012   5.375  20.180  0.00  0.00    +0.000 HD
BRANCH  11  18
ATOM     13  C   UNL     1       0.681   8.730  21.109  0.00  0.00    +0.000 C 
ATOM     14  C   UNL     1       1.508   8.264  19.948  0.00  0.00    +0.000 A 
ATOM     15  C   UNL     1       1.573   9.017  18.783  0.00  0.00    +0.000 A 
ATOM     16  C   UNL     1       2.348   8.543  17.736  0.00  0.00    +0.000 A 
ATOM     17  C   UNL     1       3.027   7.338  17.885  0.00  0.00    +0.000 A 
ATOM     18  C   UNL     1       2.920   6.628  19.074  0.00  0.00    +0.000 A 
ATOM     19  N   UNL     1       2.170   7.089  20.098  0.00  0.00    +0.000 NA
ENDBRANCH  11  18
ENDBRANCH   1  11
TORSDOF 4
ENDMDL
MODEL 8
REMARK VINA RESULT:      -6.7      3.115      5.810
REMARK  Name = 
REMARK  5 active torsions:
REMARK  status: ('A' for Active; 'I' for Inactive)
REMARK    1  A    between atoms: C_1  and  C_2
REMARK    2  A    between atoms: C_6  and  N_7
REMARK    3  A    between atoms: N_7  and  C_8
REMARK    4  A    between atoms: C_8  and  C_9
REMARK    5  A    between atoms: C_15  and  O_16
REMARK                            x       y       z     vdW  Elec       q    Type
REMARK                         _______ _______ _______ _____ _____    ______ ____
ROOT
ATOM      1  C   UNL     1       2.890   6.794  17.598  0.00  0.00    +0.000 C 
ENDROOT
BRANCH   1   2
ATOM      2  C   UNL     1       2.279   5.831  18.588  0.00  0.00    +0.000 A 
ATOM      3  C   UNL     1       1.898   4.546  18.161  0.00  0.00    +0.000 A 
ATOM      4  C   UNL     1       1.366   3.625  19.063  0.00  0.00    +0.000 A 
ATOM      5 CL   UNL     1       0.922   2.054  18.520  0.00  0.00    +0.000 Cl
ATOM      6  C   UNL     1       1.201   3.965  20.403  0.00  0.00    +0.000 A 
ATOM      7  C   UNL     1       1.575   5.234  20.846  0.00  0.00    +0.000 A 
ATOM      8  C   UNL     1       2.113   6.154  19.942  0.00  0.00    +0.000 A 
BRANCH   8   9
ATOM      9  O   UNL     1       2.496   7.388  20.387  0.00  0.00    +0.000 OA
ATOM     10  H   UNL     1       3.202   7.281  21.046  0.00  0.00    +0.000 HD
ENDBRANCH   8   9
ENDBRANCH   1   2
BRANCH   1  11
ATOM     11  N   UNL     1       4.303   6.978  17.829  0.00  0.00    +0.000 N 
ATOM     12  H   UNL     1       4.624   7.744  18.404  0.00  0.00    +0.000 HD
BRANCH  11  18
ATOM     13  C   UNL     1       5.852   4.204  14.330  0.00  0.00    +0.000 C 
ATOM     14  C   UNL     1       6.088   4.777  15.696  0.00  0.00    +0.000 A 
ATOM     15  C   UNL     1       7.225   4.433  16.416  0.00  0.00    +0.000 A 
ATOM     16  C   UNL     1       7.397   4.986  17.676  0.00  0.00    +0.000 A 
ATOM     17  C   UNL     1       6.433   5.857  18.173  0.00  0.00    +0.000 A 
ATOM     18  C   UNL     1       5.315   6.159  17.407  0.00  0.00    +0.000 A 
ATOM     19  N   UNL     1       5.146   5.627  16.178  0.00  0.00    +0.000 NA
ENDBRANCH  11  18
ENDBRANCH   1  11
TORSDOF 4
ENDMDL
MODEL 9
REMARK VINA RESULT:      -6.7      2.952      5.616
REMARK  Name = 
REMARK  5 active torsions:
REMARK  status: ('A' for Active; 'I' for Inactive)
REMARK    1  A    between atoms: C_1  and  C_2
REMARK    2  A    between atoms: C_6  and  N_7
REMARK    3  A    between atoms: N_7  and  C_8
REMARK    4  A    between atoms: C_8  and  C_9
REMARK    5  A    between atoms: C_15  and  O_16
REMARK                            x       y       z     vdW  Elec       q    Type
REMARK                         _______ _______ _______ _____ _____    ______ ____
ROOT
ATOM      1  C   UNL     1       4.793   2.860  19.338  0.00  0.00    +0.000 C 
ENDROOT
BRANCH   1   2
ATOM      2  C   UNL     1       3.359   3.259  19.593  0.00  0.00    +0.000 A 
ATOM      3  C   UNL     1       3.079   4.516  20.160  0.00  0.00    +0.000 A 
ATOM      4  C   UNL     1       1.762   4.923  20.372  0.00  0.00    +0.000 A 
ATOM      5 CL   UNL     1       1.445   6.471  21.053  0.00  0.00    +0.000 Cl
ATOM      6  C   UNL     1       0.702   4.090  20.028  0.00  0.00    +0.000 A 
ATOM      7  C   UNL     1       0.959   2.841  19.462  0.00  0.00    +0.000 A 
ATOM      8  C   UNL     1       2.280   2.436  19.245  0.00  0.00    +0.000 A 
BRANCH   8   9
ATOM      9  O   UNL     1       2.523   1.219  18.672  0.00  0.00    +0.000 OA
ATOM     10  H   UNL     1       3.439   0.958  18.862  0.00  0.00    +0.000 HD
ENDBRANCH   8   9
ENDBRANCH   1   2
BRANCH   1  11
ATOM     11  N   UNL     1       5.598   3.984  18.920  0.00  0.00    +0.000 N 
ATOM     12  H   UNL     1       6.380   4.280  19.486  0.00  0.00    +0.000 HD
BRANCH  11  18
ATOM     13  C   UNL     1       6.152   3.857  14.228  0.00  0.00    +0.000 C 
ATOM     14  C   UNL     1       5.755   4.648  15.440  0.00  0.00    +0.000 A 
ATOM     15  C   UNL     1       5.353   5.972  15.315  0.00  0.00    +0.000 A 
ATOM     16  C   UNL     1       5.000   6.662  16.464  0.00  0.00    +0.000 A 
ATOM     17  C   UNL     1       5.062   6.014  17.693  0.00  0.00    +0.000 A 
ATOM     18  C   UNL     1       5.477   4.690  17.754  0.00  0.00    +0.000 A 
ATOM     19  N   UNL     1       5.816   4.012  16.636  0.00  0.00    +0.000 NA
ENDBRANCH  11  18
ENDBRANCH   1  11
TORSDOF 4
ENDMDL
