MODEL 1
REMARK VINA RESULT:      -9.9      0.000      0.000
REMARK  Name = 
REMARK  3 active torsions:
REMARK  status: ('A' for Active; 'I' for Inactive)
REMARK    1  A    between atoms: C_2  and  C_13
REMARK    2  A    between atoms: N_3  and  N_4
REMARK    3  A    between atoms: C_24  and  C_25
REMARK                            x       y       z     vdW  Elec       q    Type
REMARK                         _______ _______ _______ _____ _____    ______ ____
ROOT
ATOM      1  C   UNL     1       7.002   5.763  17.744  0.00  0.00    +0.000 A 
ATOM      2  C   UNL     1       7.447   5.654  16.432  0.00  0.00    +0.000 A 
ATOM      3  C   UNL     1       6.619   4.961  15.539  0.00  0.00    +0.000 A 
ATOM      4  C   UNL     1       5.423   4.428  16.024  0.00  0.00    +0.000 A 
ATOM      5  N   UNL     1       4.827   3.799  14.950  0.00  0.00    +0.000 N 
ATOM      6  C   UNL     1       5.558   3.947  13.800  0.00  0.00    +0.000 A 
ATOM      7  C   UNL     1       5.287   3.498  12.504  0.00  0.00    +0.000 A 
ATOM      8  C   UNL     1       6.251   3.743  11.524  0.00  0.00    +0.000 A 
ATOM      9  C   UNL     1       7.431   4.417  11.835  0.00  0.00    +0.000 A 
ATOM     10  C   UNL     1       7.670   4.881  13.136  0.00  0.00    +0.000 A 
ATOM     11  C   UNL     1       6.712   4.644  14.144  0.00  0.00    +0.000 A 
ATOM     12  C   UNL     1       5.016   4.548  17.369  0.00  0.00    +0.000 A 
ATOM     13  N   UNL     1       5.837   5.241  18.212  0.00  0.00    +0.000 NA
ATOM     14  H   UNL     1       3.957   3.289  14.987  0.00  0.00    +0.000 HD
ENDROOT
BRANCH  12  15
ATOM     15  C   UNL     1       3.763   3.964  17.897  0.00  0.00    +0.000 A 
ATOM     16  C   UNL     1       3.664   2.562  18.080  0.00  0.00    +0.000 A 
ATOM     17  C   UNL     1       2.562   1.961  18.697  0.00  0.00    +0.000 A 
ATOM     18  C   UNL     1       1.485   2.738  19.090  0.00  0.00    +0.000 A 
ATOM     19  C   UNL     1       1.512   4.111  18.858  0.00  0.00    +0.000 A 
ATOM     20  C   UNL     1       2.636   4.722  18.276  0.00  0.00    +0.000 A 
ATOM     21 CL   UNL     1       2.545   6.446  18.102  0.00  0.00    +0.000 Cl
ENDBRANCH  12  15
BRANCH   1  23
ATOM     22  O   UNL     1       8.207   6.052  19.777  0.00  0.00    +0.000 OA
ATOM     23  C   UNL     1       7.841   6.543  18.711  0.00  0.00    +0.000 C 
ATOM     24  N   UNL     1       8.183   7.830  18.328  0.00  0.00    +0.000 N 
ATOM     25  H   UNL     1       7.745   8.297  17.536  0.00  0.00    +0.000 HD
BRANCH  24  26
ATOM     26  N   UNL     1       8.862   8.617  19.286  0.00  0.00    +0.000 N 
ATOM     27  C   UNL     1       9.158   9.925  18.874  0.00  0.00    +0.000 A 
ATOM     28  N   UNL     1       8.291  10.583  18.113  0.00  0.00    +0.000 NA
ATOM     29  C   UNL     1       8.627  11.841  17.854  0.00  0.00    +0.000 A 
ATOM     30 CL   UNL     1       7.510  12.736  16.925  0.00  0.00    +0.000 Cl
ATOM     31  N   UNL     1       9.708  12.492  18.246  0.00  0.00    +0.000 NA
ATOM     32  C   UNL     1      10.488  11.720  18.977  0.00  0.00    +0.000 A 
ATOM     33 CL   UNL     1      11.912  12.446  19.579  0.00  0.00    +0.000 Cl
ATOM     34  N   UNL     1      10.284  10.452  19.328  0.00  0.00    +0.000 NA
ATOM     35  H   UNL     1       9.724   8.170  19.616  0.00  0.00    +0.000 HD
ENDBRANCH  24  26
ENDBRANCH   1  23
TORSDOF 3
ENDMDL
MODEL 2
REMARK VINA RESULT:      -9.4      0.964      1.203
REMARK  Name = 
REMARK  3 active torsions:
REMARK  status: ('A' for Active; 'I' for Inactive)
REMARK    1  A    between atoms: C_2  and  C_13
REMARK    2  A    between atoms: N_3  and  N_4
REMARK    3  A    between atoms: C_24  and  C_25
REMARK                            x       y       z     vdW  Elec       q    Type
REMARK                         _______ _______ _______ _____ _____    ______ ____
ROOT
ATOM      1  C   UNL     1       7.001   5.850  17.839  0.00  0.00    +0.000 A 
ATOM      2  C   UNL     1       7.429   5.679  16.528  0.00  0.00    +0.000 A 
ATOM      3  C   UNL     1       6.566   4.986  15.668  0.00  0.00    +0.000 A 
ATOM      4  C   UNL     1       5.357   4.515  16.181  0.00  0.00    +0.000 A 
ATOM      5  N   UNL     1       4.726   3.872  15.135  0.00  0.00    +0.000 N 
ATOM      6  C   UNL     1       5.451   3.952  13.975  0.00  0.00    +0.000 A 
ATOM      7  C   UNL     1       5.151   3.469  12.697  0.00  0.00    +0.000 A 
ATOM      8  C   UNL     1       6.114   3.643  11.701  0.00  0.00    +0.000 A 
ATOM      9  C   UNL     1       7.320   4.284  11.978  0.00  0.00    +0.000 A 
ATOM     10  C   UNL     1       7.589   4.784  13.260  0.00  0.00    +0.000 A 
ATOM     11  C   UNL     1       6.633   4.618  14.283  0.00  0.00    +0.000 A 
ATOM     12  C   UNL     1       4.968   4.697  17.525  0.00  0.00    +0.000 A 
ATOM     13  N   UNL     1       5.822   5.388  18.335  0.00  0.00    +0.000 NA
ATOM     14  H   UNL     1       3.839   3.397  15.198  0.00  0.00    +0.000 HD
ENDROOT
BRANCH  12  15
ATOM     15  C   UNL     1       3.700   4.179  18.084  0.00  0.00    +0.000 A 
ATOM     16  C   UNL     1       2.463   4.675  17.600  0.00  0.00    +0.000 A 
ATOM     17  C   UNL     1       1.233   4.136  17.988  0.00  0.00    +0.000 A 
ATOM     18  C   UNL     1       1.193   3.122  18.932  0.00  0.00    +0.000 A 
ATOM     19  C   UNL     1       2.383   2.659  19.488  0.00  0.00    +0.000 A 
ATOM     20  C   UNL     1       3.623   3.172  19.068  0.00  0.00    +0.000 A 
ATOM     21 CL   UNL     1       5.018   2.456  19.811  0.00  0.00    +0.000 Cl
ENDBRANCH  12  15
BRANCH   1  23
ATOM     22  O   UNL     1       8.279   6.145  19.826  0.00  0.00    +0.000 OA
ATOM     23  C   UNL     1       7.878   6.632  18.771  0.00  0.00    +0.000 C 
ATOM     24  N   UNL     1       8.212   7.914  18.369  0.00  0.00    +0.000 N 
ATOM     25  H   UNL     1       7.748   8.378  17.589  0.00  0.00    +0.000 HD
BRANCH  24  26
ATOM     26  N   UNL     1       8.929   8.703  19.296  0.00  0.00    +0.000 N 
ATOM     27  C   UNL     1       9.214  10.008  18.867  0.00  0.00    +0.000 A 
ATOM     28  N   UNL     1       8.322  10.665  18.135  0.00  0.00    +0.000 NA
ATOM     29  C   UNL     1       8.653  11.921  17.857  0.00  0.00    +0.000 A 
ATOM     30 CL   UNL     1       7.506  12.816  16.965  0.00  0.00    +0.000 Cl
ATOM     31  N   UNL     1       9.750  12.570  18.205  0.00  0.00    +0.000 NA
ATOM     32  C   UNL     1      10.553  11.799  18.911  0.00  0.00    +0.000 A 
ATOM     33 CL   UNL     1      12.001  12.522  19.457  0.00  0.00    +0.000 Cl
ATOM     34  N   UNL     1      10.358  10.533  19.277  0.00  0.00    +0.000 NA
ATOM     35  H   UNL     1       9.800   8.255  19.597  0.00  0.00    +0.000 HD
ENDBRANCH  24  26
ENDBRANCH   1  23
TORSDOF 3
ENDMDL
MODEL 3
REMARK VINA RESULT:      -9.2      5.122      8.094
REMARK  Name = 
REMARK  3 active torsions:
REMARK  status: ('A' for Active; 'I' for Inactive)
REMARK    1  A    between atoms: C_2  and  C_13
REMARK    2  A    between atoms: N_3  and  N_4
REMARK    3  A    between atoms: C_24  and  C_25
REMARK                            x       y       z     vdW  Elec       q    Type
REMARK                         _______ _______ _______ _____ _____    ______ ____
ROOT
ATOM      1  C   UNL     1       2.778   7.578  18.023  0.00  0.00    +0.000 A 
ATOM      2  C   UNL     1       2.293   6.802  19.068  0.00  0.00    +0.000 A 
ATOM      3  C   UNL     1       2.843   5.520  19.211  0.00  0.00    +0.000 A 
ATOM      4  C   UNL     1       3.820   5.114  18.301  0.00  0.00    +0.000 A 
ATOM      5  N   UNL     1       4.166   3.829  18.665  0.00  0.00    +0.000 N 
ATOM      6  C   UNL     1       3.493   3.417  19.786  0.00  0.00    +0.000 A 
ATOM      7  C   UNL     1       3.581   2.212  20.491  0.00  0.00    +0.000 A 
ATOM      8  C   UNL     1       2.722   2.038  21.577  0.00  0.00    +0.000 A 
ATOM      9  C   UNL     1       1.821   3.037  21.943  0.00  0.00    +0.000 A 
ATOM     10  C   UNL     1       1.768   4.248  21.238  0.00  0.00    +0.000 A 
ATOM     11  C   UNL     1       2.624   4.446  20.136  0.00  0.00    +0.000 A 
ATOM     12  C   UNL     1       4.273   5.929  17.243  0.00  0.00    +0.000 A 
ATOM     13  N   UNL     1       3.730   7.178  17.138  0.00  0.00    +0.000 NA
ATOM     14  H   UNL     1       4.832   3.248  18.179  0.00  0.00    +0.000 HD
ENDROOT
BRANCH  12  15
ATOM     15  C   UNL     1       5.290   5.497  16.259  0.00  0.00    +0.000 A 
ATOM     16  C   UNL     1       4.912   4.667  15.175  0.00  0.00    +0.000 A 
ATOM     17  C   UNL     1       5.791   4.333  14.140  0.00  0.00    +0.000 A 
ATOM     18  C   UNL     1       7.107   4.763  14.191  0.00  0.00    +0.000 A 
ATOM     19  C   UNL     1       7.538   5.518  15.278  0.00  0.00    +0.000 A 
ATOM     20  C   UNL     1       6.645   5.889  16.299  0.00  0.00    +0.000 A 
ATOM     21 CL   UNL     1       7.315   6.877  17.557  0.00  0.00    +0.000 Cl
ENDBRANCH  12  15
BRANCH   1  23
ATOM     22  O   UNL     1       2.961   9.885  17.460  0.00  0.00    +0.000 OA
ATOM     23  C   UNL     1       2.248   8.973  17.874  0.00  0.00    +0.000 C 
ATOM     24  N   UNL     1       0.919   9.164  18.217  0.00  0.00    +0.000 N 
ATOM     25  H   UNL     1       0.380   8.460  18.718  0.00  0.00    +0.000 HD
BRANCH  24  26
ATOM     26  N   UNL     1       0.447  10.496  18.204  0.00  0.00    +0.000 N 
ATOM     27  C   UNL     1      -0.316  10.864  19.323  0.00  0.00    +0.000 A 
ATOM     28  N   UNL     1       0.010  10.391  20.520  0.00  0.00    +0.000 NA
ATOM     29  C   UNL     1      -0.720  10.869  21.521  0.00  0.00    +0.000 A 
ATOM     30 CL   UNL     1      -0.295  10.327  23.082  0.00  0.00    +0.000 Cl
ATOM     31  N   UNL     1      -1.719  11.732  21.459  0.00  0.00    +0.000 NA
ATOM     32  C   UNL     1      -1.947  12.106  20.216  0.00  0.00    +0.000 A 
ATOM     33 CL   UNL     1      -3.197  13.248  19.992  0.00  0.00    +0.000 Cl
ATOM     34  N   UNL     1      -1.300  11.725  19.116  0.00  0.00    +0.000 NA
ATOM     35  H   UNL     1      -0.085  10.712  17.355  0.00  0.00    +0.000 HD
ENDBRANCH  24  26
ENDBRANCH   1  23
TORSDOF 3
ENDMDL
MODEL 4
REMARK VINA RESULT:      -9.2      7.290     10.499
REMARK  Name = 
REMARK  3 active torsions:
REMARK  status: ('A' for Active; 'I' for Inactive)
REMARK    1  A    between atoms: C_2  and  C_13
REMARK    2  A    between atoms: N_3  and  N_4
REMARK    3  A    between atoms: C_24  and  C_25
REMARK                            x       y       z     vdW  Elec       q    Type
REMARK                         _______ _______ _______ _____ _____    ______ ____
ROOT
ATOM      1  C   UNL     1       0.209  10.318  19.935  0.00  0.00    +0.000 A 
ATOM      2  C   UNL     1       1.093  11.390  19.952  0.00  0.00    +0.000 A 
ATOM      3  C   UNL     1       0.602  12.622  19.500  0.00  0.00    +0.000 A 
ATOM      4  C   UNL     1      -0.721  12.686  19.061  0.00  0.00    +0.000 A 
ATOM      5  N   UNL     1      -0.927  13.993  18.667  0.00  0.00    +0.000 N 
ATOM      6  C   UNL     1       0.182  14.770  18.878  0.00  0.00    +0.000 A 
ATOM      7  C   UNL     1       0.372  16.137  18.651  0.00  0.00    +0.000 A 
ATOM      8  C   UNL     1       1.642  16.660  18.904  0.00  0.00    +0.000 A 
ATOM      9  C   UNL     1       2.670  15.844  19.373  0.00  0.00    +0.000 A 
ATOM     10  C   UNL     1       2.450  14.482  19.619  0.00  0.00    +0.000 A 
ATOM     11  C   UNL     1       1.176  13.930  19.369  0.00  0.00    +0.000 A 
ATOM     12  C   UNL     1      -1.582  11.568  19.045  0.00  0.00    +0.000 A 
ATOM     13  N   UNL     1      -1.080  10.385  19.505  0.00  0.00    +0.000 NA
ATOM     14  H   UNL     1      -1.783  14.351  18.272  0.00  0.00    +0.000 HD
ENDROOT
BRANCH  12  15
ATOM     15  C   UNL     1      -2.978  11.622  18.557  0.00  0.00    +0.000 A 
ATOM     16  C   UNL     1      -3.987  12.188  19.375  0.00  0.00    +0.000 A 
ATOM     17  C   UNL     1      -5.295  12.390  18.924  0.00  0.00    +0.000 A 
ATOM     18  C   UNL     1      -5.659  11.965  17.657  0.00  0.00    +0.000 A 
ATOM     19  C   UNL     1      -4.716  11.334  16.850  0.00  0.00    +0.000 A 
ATOM     20  C   UNL     1      -3.389  11.168  17.287  0.00  0.00    +0.000 A 
ATOM     21 CL   UNL     1      -2.317  10.415  16.150  0.00  0.00    +0.000 Cl
ENDBRANCH  12  15
BRANCH   1  23
ATOM     22  O   UNL     1       0.194   8.497  21.469  0.00  0.00    +0.000 OA
ATOM     23  C   UNL     1       0.688   8.999  20.461  0.00  0.00    +0.000 C 
ATOM     24  N   UNL     1       1.700   8.383  19.743  0.00  0.00    +0.000 N 
ATOM     25  H   UNL     1       2.225   8.868  19.017  0.00  0.00    +0.000 HD
BRANCH  24  26
ATOM     26  N   UNL     1       2.247   7.205  20.300  0.00  0.00    +0.000 N 
ATOM     27  C   UNL     1       2.797   6.310  19.370  0.00  0.00    +0.000 A 
ATOM     28  N   UNL     1       3.438   6.784  18.308  0.00  0.00    +0.000 NA
ATOM     29  C   UNL     1       3.994   5.855  17.540  0.00  0.00    +0.000 A 
ATOM     30 CL   UNL     1       4.874   6.427  16.194  0.00  0.00    +0.000 Cl
ATOM     31  N   UNL     1       3.970   4.544  17.701  0.00  0.00    +0.000 NA
ATOM     32  C   UNL     1       3.291   4.210  18.780  0.00  0.00    +0.000 A 
ATOM     33 CL   UNL     1       3.205   2.541  19.129  0.00  0.00    +0.000 Cl
ATOM     34  N   UNL     1       2.688   5.020  19.648  0.00  0.00    +0.000 NA
ATOM     35  H   UNL     1       1.572   6.702  20.886  0.00  0.00    +0.000 HD
ENDBRANCH  24  26
ENDBRANCH   1  23
TORSDOF 3
ENDMDL
MODEL 5
REMARK VINA RESULT:      -9.1      7.215     10.469
REMARK  Name = 
REMARK  3 active torsions:
REMARK  status: ('A' for Active; 'I' for Inactive)
REMARK    1  A    between atoms: C_2  and  C_13
REMARK    2  A    between atoms: N_3  and  N_4
REMARK    3  A    between atoms: C_24  and  C_25
REMARK                            x       y       z     vdW  Elec       q    Type
REMARK                         _______ _______ _______ _____ _____    ______ ____
ROOT
ATOM      1  C   UNL     1       0.341  10.267  19.949  0.00  0.00    +0.000 A 
ATOM      2  C   UNL     1       1.224  11.336  20.041  0.00  0.00    +0.000 A 
ATOM      3  C   UNL     1       0.778  12.568  19.543  0.00  0.00    +0.000 A 
ATOM      4  C   UNL     1      -0.501  12.635  18.988  0.00  0.00    +0.000 A 
ATOM      5  N   UNL     1      -0.666  13.940  18.574  0.00  0.00    +0.000 N 
ATOM      6  C   UNL     1       0.422  14.716  18.879  0.00  0.00    +0.000 A 
ATOM      7  C   UNL     1       0.637  16.081  18.665  0.00  0.00    +0.000 A 
ATOM      8  C   UNL     1       1.881  16.601  19.027  0.00  0.00    +0.000 A 
ATOM      9  C   UNL     1       2.861  15.783  19.589  0.00  0.00    +0.000 A 
ATOM     10  C   UNL     1       2.615  14.423  19.819  0.00  0.00    +0.000 A 
ATOM     11  C   UNL     1       1.366  13.874  19.459  0.00  0.00    +0.000 A 
ATOM     12  C   UNL     1      -1.360  11.520  18.900  0.00  0.00    +0.000 A 
ATOM     13  N   UNL     1      -0.905  10.337  19.407  0.00  0.00    +0.000 NA
ATOM     14  H   UNL     1      -1.483  14.300  18.103  0.00  0.00    +0.000 HD
ENDROOT
BRANCH  12  15
ATOM     15  C   UNL     1      -2.708  11.575  18.291  0.00  0.00    +0.000 A 
ATOM     16  C   UNL     1      -2.896  11.131  16.959  0.00  0.00    +0.000 A 
ATOM     17  C   UNL     1      -4.161  11.032  16.371  0.00  0.00    +0.000 A 
ATOM     18  C   UNL     1      -5.281  11.443  17.075  0.00  0.00    +0.000 A 
ATOM     19  C   UNL     1      -5.130  11.958  18.360  0.00  0.00    +0.000 A 
ATOM     20  C   UNL     1      -3.863  12.019  18.968  0.00  0.00    +0.000 A 
ATOM     21 CL   UNL     1      -3.841  12.631  20.591  0.00  0.00    +0.000 Cl
ENDBRANCH  12  15
BRANCH   1  23
ATOM     22  O   UNL     1       0.296   8.528  21.575  0.00  0.00    +0.000 OA
ATOM     23  C   UNL     1       0.767   8.948  20.520  0.00  0.00    +0.000 C 
ATOM     24  N   UNL     1       1.704   8.237  19.788  0.00  0.00    +0.000 N 
ATOM     25  H   UNL     1       2.219   8.653  19.013  0.00  0.00    +0.000 HD
BRANCH  24  26
ATOM     26  N   UNL     1       2.207   7.056  20.379  0.00  0.00    +0.000 N 
ATOM     27  C   UNL     1       2.733   6.120  19.476  0.00  0.00    +0.000 A 
ATOM     28  N   UNL     1       3.396   6.544  18.407  0.00  0.00    +0.000 NA
ATOM     29  C   UNL     1       3.927   5.578  17.667  0.00  0.00    +0.000 A 
ATOM     30 CL   UNL     1       4.834   6.086  16.313  0.00  0.00    +0.000 Cl
ATOM     31  N   UNL     1       3.859   4.273  17.861  0.00  0.00    +0.000 NA
ATOM     32  C   UNL     1       3.161   3.991  18.944  0.00  0.00    +0.000 A 
ATOM     33 CL   UNL     1       3.018   2.334  19.335  0.00  0.00    +0.000 Cl
ATOM     34  N   UNL     1       2.580   4.842  19.786  0.00  0.00    +0.000 NA
ATOM     35  H   UNL     1       1.513   6.591  20.972  0.00  0.00    +0.000 HD
ENDBRANCH  24  26
ENDBRANCH   1  23
TORSDOF 3
ENDMDL
MODEL 6
REMARK VINA RESULT:      -9.0      7.321     10.647
REMARK  Name = 
REMARK  3 active torsions:
REMARK  status: ('A' for Active; 'I' for Inactive)
REMARK    1  A    between atoms: C_2  and  C_13
REMARK    2  A    between atoms: N_3  and  N_4
REMARK    3  A    between atoms: C_24  and  C_25
REMARK                            x       y       z     vdW  Elec       q    Type
REMARK                         _______ _______ _______ _____ _____    ______ ____
ROOT
ATOM      1  C   UNL     1       0.529  10.699  20.397  0.00  0.00    +0.000 A 
ATOM      2  C   UNL     1       1.143  11.930  20.597  0.00  0.00    +0.000 A 
ATOM      3  C   UNL     1       0.622  13.019  19.885  0.00  0.00    +0.000 A 
ATOM      4  C   UNL     1      -0.458  12.794  19.030  0.00  0.00    +0.000 A 
ATOM      5  N   UNL     1      -0.750  14.017  18.460  0.00  0.00    +0.000 N 
ATOM      6  C   UNL     1       0.057  15.012  18.944  0.00  0.00    +0.000 A 
ATOM      7  C   UNL     1       0.062  16.381  18.655  0.00  0.00    +0.000 A 
ATOM      8  C   UNL     1       1.050  17.162  19.258  0.00  0.00    +0.000 A 
ATOM      9  C   UNL     1       1.985  16.591  20.121  0.00  0.00    +0.000 A 
ATOM     10  C   UNL     1       1.944  15.222  20.418  0.00  0.00    +0.000 A 
ATOM     11  C   UNL     1       0.958  14.411  19.819  0.00  0.00    +0.000 A 
ATOM     12  C   UNL     1      -1.043  11.524  18.844  0.00  0.00    +0.000 A 
ATOM     13  N   UNL     1      -0.523  10.485  19.562  0.00  0.00    +0.000 NA
ATOM     14  H   UNL     1      -1.468  14.177  17.770  0.00  0.00    +0.000 HD
ENDROOT
BRANCH  12  15
ATOM     15  C   UNL     1      -2.171  11.272  17.921  0.00  0.00    +0.000 A 
ATOM     16  C   UNL     1      -1.937  10.617  16.686  0.00  0.00    +0.000 A 
ATOM     17  C   UNL     1      -2.973  10.231  15.831  0.00  0.00    +0.000 A 
ATOM     18  C   UNL     1      -4.283  10.552  16.149  0.00  0.00    +0.000 A 
ATOM     19  C   UNL     1      -4.548  11.262  17.317  0.00  0.00    +0.000 A 
ATOM     20  C   UNL     1      -3.511  11.615  18.198  0.00  0.00    +0.000 A 
ATOM     21 CL   UNL     1      -4.003  12.448  19.638  0.00  0.00    +0.000 Cl
ENDBRANCH  12  15
BRANCH   1  23
ATOM     22  O   UNL     1       1.330   9.634  22.371  0.00  0.00    +0.000 OA
ATOM     23  C   UNL     1       1.030   9.525  21.183  0.00  0.00    +0.000 C 
ATOM     24  N   UNL     1       1.121   8.323  20.501  0.00  0.00    +0.000 N 
ATOM     25  H   UNL     1       1.039   8.266  19.486  0.00  0.00    +0.000 HD
BRANCH  24  26
ATOM     26  N   UNL     1       1.712   7.243  21.194  0.00  0.00    +0.000 N 
ATOM     27  C   UNL     1       2.236   6.231  20.376  0.00  0.00    +0.000 A 
ATOM     28  N   UNL     1       2.822   6.556  19.229  0.00  0.00    +0.000 NA
ATOM     29  C   UNL     1       3.361   5.533  18.576  0.00  0.00    +0.000 A 
ATOM     30 CL   UNL     1       4.171   5.918  17.123  0.00  0.00    +0.000 Cl
ATOM     31  N   UNL     1       3.368   4.258  18.922  0.00  0.00    +0.000 NA
ATOM     32  C   UNL     1       2.742   4.074  20.067  0.00  0.00    +0.000 A 
ATOM     33 CL   UNL     1       2.701   2.471  20.653  0.00  0.00    +0.000 Cl
ATOM     34  N   UNL     1       2.163   4.993  20.838  0.00  0.00    +0.000 NA
ATOM     35  H   UNL     1       1.072   6.821  21.875  0.00  0.00    +0.000 HD
ENDBRANCH  24  26
ENDBRANCH   1  23
TORSDOF 3
ENDMDL
MODEL 7
REMARK VINA RESULT:      -8.6      5.006      7.870
REMARK  Name = 
REMARK  3 active torsions:
REMARK  status: ('A' for Active; 'I' for Inactive)
REMARK    1  A    between atoms: C_2  and  C_13
REMARK    2  A    between atoms: N_3  and  N_4
REMARK    3  A    between atoms: C_24  and  C_25
REMARK                            x       y       z     vdW  Elec       q    Type
REMARK                         _______ _______ _______ _____ _____    ______ ____
ROOT
ATOM      1  C   UNL     1       4.505   6.327  17.091  0.00  0.00    +0.000 A 
ATOM      2  C   UNL     1       3.996   7.619  17.143  0.00  0.00    +0.000 A 
ATOM      3  C   UNL     1       2.990   7.864  18.088  0.00  0.00    +0.000 A 
ATOM      4  C   UNL     1       2.569   6.807  18.896  0.00  0.00    +0.000 A 
ATOM      5  N   UNL     1       1.580   7.323  19.708  0.00  0.00    +0.000 N 
ATOM      6  C   UNL     1       1.386   8.662  19.490  0.00  0.00    +0.000 A 
ATOM      7  C   UNL     1       0.513   9.554  20.122  0.00  0.00    +0.000 A 
ATOM      8  C   UNL     1       0.483  10.867  19.648  0.00  0.00    +0.000 A 
ATOM      9  C   UNL     1       1.301  11.265  18.592  0.00  0.00    +0.000 A 
ATOM     10  C   UNL     1       2.187  10.361  17.990  0.00  0.00    +0.000 A 
ATOM     11  C   UNL     1       2.234   9.028  18.449  0.00  0.00    +0.000 A 
ATOM     12  C   UNL     1       3.102   5.505  18.799  0.00  0.00    +0.000 A 
ATOM     13  N   UNL     1       4.090   5.299  17.880  0.00  0.00    +0.000 NA
ATOM     14  H   UNL     1       1.054   6.794  20.387  0.00  0.00    +0.000 HD
ENDROOT
BRANCH  12  15
ATOM     15  C   UNL     1       2.643   4.372  19.634  0.00  0.00    +0.000 A 
ATOM     16  C   UNL     1       2.599   4.510  21.044  0.00  0.00    +0.000 A 
ATOM     17  C   UNL     1       2.053   3.531  21.879  0.00  0.00    +0.000 A 
ATOM     18  C   UNL     1       1.593   2.343  21.336  0.00  0.00    +0.000 A 
ATOM     19  C   UNL     1       1.688   2.137  19.962  0.00  0.00    +0.000 A 
ATOM     20  C   UNL     1       2.199   3.138  19.116  0.00  0.00    +0.000 A 
ATOM     21 CL   UNL     1       2.202   2.757  17.424  0.00  0.00    +0.000 Cl
ENDBRANCH  12  15
BRANCH   1  23
ATOM     22  O   UNL     1       6.676   6.667  16.175  0.00  0.00    +0.000 OA
ATOM     23  C   UNL     1       5.617   6.044  16.126  0.00  0.00    +0.000 C 
ATOM     24  N   UNL     1       5.385   5.043  15.198  0.00  0.00    +0.000 N 
ATOM     25  H   UNL     1       4.458   4.648  15.044  0.00  0.00    +0.000 HD
BRANCH  24  26
ATOM     26  N   UNL     1       6.373   4.857  14.205  0.00  0.00    +0.000 N 
ATOM     27  C   UNL     1       6.016   3.977  13.173  0.00  0.00    +0.000 A 
ATOM     28  N   UNL     1       4.763   3.958  12.734  0.00  0.00    +0.000 NA
ATOM     29  C   UNL     1       4.553   3.154  11.698  0.00  0.00    +0.000 A 
ATOM     30 CL   UNL     1       2.966   3.143  11.071  0.00  0.00    +0.000 Cl
ATOM     31  N   UNL     1       5.426   2.379  11.079  0.00  0.00    +0.000 NA
ATOM     32  C   UNL     1       6.622   2.482  11.623  0.00  0.00    +0.000 A 
ATOM     33 CL   UNL     1       7.860   1.555  10.899  0.00  0.00    +0.000 Cl
ATOM     34  N   UNL     1       6.989   3.245  12.651  0.00  0.00    +0.000 NA
ATOM     35  H   UNL     1       7.271   4.559  14.600  0.00  0.00    +0.000 HD
ENDBRANCH  24  26
ENDBRANCH   1  23
TORSDOF 3
ENDMDL
MODEL 8
REMARK VINA RESULT:      -8.6      7.763     10.901
REMARK  Name = 
REMARK  3 active torsions:
REMARK  status: ('A' for Active; 'I' for Inactive)
REMARK    1  A    between atoms: C_2  and  C_13
REMARK    2  A    between atoms: N_3  and  N_4
REMARK    3  A    between atoms: C_24  and  C_25
REMARK                            x       y       z     vdW  Elec       q    Type
REMARK                         _______ _______ _______ _____ _____    ______ ____
ROOT
ATOM      1  C   UNL     1       0.313  11.113  20.718  0.00  0.00    +0.000 A 
ATOM      2  C   UNL     1       1.196  12.117  20.342  0.00  0.00    +0.000 A 
ATOM      3  C   UNL     1       0.635  13.276  19.788  0.00  0.00    +0.000 A 
ATOM      4  C   UNL     1      -0.752  13.338  19.646  0.00  0.00    +0.000 A 
ATOM      5  N   UNL     1      -1.019  14.564  19.072  0.00  0.00    +0.000 N 
ATOM      6  C   UNL     1       0.121  15.301  18.886  0.00  0.00    +0.000 A 
ATOM      7  C   UNL     1       0.278  16.593  18.372  0.00  0.00    +0.000 A 
ATOM      8  C   UNL     1       1.581  17.077  18.239  0.00  0.00    +0.000 A 
ATOM      9  C   UNL     1       2.675  16.299  18.614  0.00  0.00    +0.000 A 
ATOM     10  C   UNL     1       2.493  15.017  19.151  0.00  0.00    +0.000 A 
ATOM     11  C   UNL     1       1.186  14.505  19.294  0.00  0.00    +0.000 A 
ATOM     12  C   UNL     1      -1.613  12.287  20.027  0.00  0.00    +0.000 A 
ATOM     13  N   UNL     1      -1.039  11.177  20.578  0.00  0.00    +0.000 NA
ATOM     14  H   UNL     1      -1.937  14.896  18.815  0.00  0.00    +0.000 HD
ENDROOT
BRANCH  12  15
ATOM     15  C   UNL     1      -3.081  12.334  19.857  0.00  0.00    +0.000 A 
ATOM     16  C   UNL     1      -3.895  12.833  20.905  0.00  0.00    +0.000 A 
ATOM     17  C   UNL     1      -5.272  13.028  20.761  0.00  0.00    +0.000 A 
ATOM     18  C   UNL     1      -5.898  12.663  19.580  0.00  0.00    +0.000 A 
ATOM     19  C   UNL     1      -5.145  12.099  18.553  0.00  0.00    +0.000 A 
ATOM     20  C   UNL     1      -3.754  11.940  18.682  0.00  0.00    +0.000 A 
ATOM     21 CL   UNL     1      -2.946  11.276  17.298  0.00  0.00    +0.000 Cl
ENDBRANCH  12  15
BRANCH   1  23
ATOM     22  O   UNL     1       1.202   9.874  22.547  0.00  0.00    +0.000 OA
ATOM     23  C   UNL     1       0.877   9.882  21.362  0.00  0.00    +0.000 C 
ATOM     24  N   UNL     1       0.995   8.765  20.551  0.00  0.00    +0.000 N 
ATOM     25  H   UNL     1       0.891   8.814  19.539  0.00  0.00    +0.000 HD
BRANCH  24  26
ATOM     26  N   UNL     1       1.643   7.641  21.111  0.00  0.00    +0.000 N 
ATOM     27  C   UNL     1       2.204   6.756  20.178  0.00  0.00    +0.000 A 
ATOM     28  N   UNL     1       2.761   7.238  19.073  0.00  0.00    +0.000 NA
ATOM     29  C   UNL     1       3.338   6.324  18.302  0.00  0.00    +0.000 A 
ATOM     30 CL   UNL     1       4.113   6.912  16.899  0.00  0.00    +0.000 Cl
ATOM     31  N   UNL     1       3.408   5.020  18.498  0.00  0.00    +0.000 NA
ATOM     32  C   UNL     1       2.804   4.676  19.618  0.00  0.00    +0.000 A 
ATOM     33 CL   UNL     1       2.844   3.015  20.014  0.00  0.00    +0.000 Cl
ATOM     34  N   UNL     1       2.193   5.471  20.494  0.00  0.00    +0.000 NA
ATOM     35  H   UNL     1       1.032   7.113  21.742  0.00  0.00    +0.000 HD
ENDBRANCH  24  26
ENDBRANCH   1  23
TORSDOF 3
ENDMDL
MODEL 9
REMARK VINA RESULT:      -8.5      7.791     11.091
REMARK  Name = 
REMARK  3 active torsions:
REMARK  status: ('A' for Active; 'I' for Inactive)
REMARK    1  A    between atoms: C_2  and  C_13
REMARK    2  A    between atoms: N_3  and  N_4
REMARK    3  A    between atoms: C_24  and  C_25
REMARK                            x       y       z     vdW  Elec       q    Type
REMARK                         _______ _______ _______ _____ _____    ______ ____
ROOT
ATOM      1  C   UNL     1      -0.255  10.331  20.631  0.00  0.00    +0.000 A 
ATOM      2  C   UNL     1       0.183  11.513  21.216  0.00  0.00    +0.000 A 
ATOM      3  C   UNL     1      -0.312  12.707  20.675  0.00  0.00    +0.000 A 
ATOM      4  C   UNL     1      -1.192  12.629  19.594  0.00  0.00    +0.000 A 
ATOM      5  N   UNL     1      -1.501  13.933  19.264  0.00  0.00    +0.000 N 
ATOM      6  C   UNL     1      -0.902  14.830  20.108  0.00  0.00    +0.000 A 
ATOM      7  C   UNL     1      -0.986  16.226  20.136  0.00  0.00    +0.000 A 
ATOM      8  C   UNL     1      -0.208  16.898  21.082  0.00  0.00    +0.000 A 
ATOM      9  C   UNL     1       0.610  16.194  21.965  0.00  0.00    +0.000 A 
ATOM     10  C   UNL     1       0.659  14.794  21.935  0.00  0.00    +0.000 A 
ATOM     11  C   UNL     1      -0.116  14.092  20.988  0.00  0.00    +0.000 A 
ATOM     12  C   UNL     1      -1.599  11.407  19.019  0.00  0.00    +0.000 A 
ATOM     13  N   UNL     1      -1.112  10.260  19.577  0.00  0.00    +0.000 NA
ATOM     14  H   UNL     1      -2.097  14.210  18.498  0.00  0.00    +0.000 HD
ENDROOT
BRANCH  12  15
ATOM     15  C   UNL     1      -2.511  11.317  17.857  0.00  0.00    +0.000 A 
ATOM     16  C   UNL     1      -2.010  10.891  16.602  0.00  0.00    +0.000 A 
ATOM     17  C   UNL     1      -2.840  10.656  15.502  0.00  0.00    +0.000 A 
ATOM     18  C   UNL     1      -4.199  10.909  15.599  0.00  0.00    +0.000 A 
ATOM     19  C   UNL     1      -4.719  11.401  16.793  0.00  0.00    +0.000 A 
ATOM     20  C   UNL     1      -3.892  11.598  17.913  0.00  0.00    +0.000 A 
ATOM     21 CL   UNL     1      -4.693  12.161  19.345  0.00  0.00    +0.000 Cl
ENDBRANCH  12  15
BRANCH   1  23
ATOM     22  O   UNL     1      -0.270   8.595  22.260  0.00  0.00    +0.000 OA
ATOM     23  C   UNL     1       0.215   9.035  21.220  0.00  0.00    +0.000 C 
ATOM     24  N   UNL     1       1.208   8.367  20.521  0.00  0.00    +0.000 N 
ATOM     25  H   UNL     1       1.728   8.806  19.763  0.00  0.00    +0.000 HD
BRANCH  24  26
ATOM     26  N   UNL     1       1.748   7.214  21.133  0.00  0.00    +0.000 N 
ATOM     27  C   UNL     1       2.271   6.263  20.244  0.00  0.00    +0.000 A 
ATOM     28  N   UNL     1       2.902   6.670  19.149  0.00  0.00    +0.000 NA
ATOM     29  C   UNL     1       3.434   5.693  18.423  0.00  0.00    +0.000 A 
ATOM     30 CL   UNL     1       4.300   6.180  17.035  0.00  0.00    +0.000 Cl
ATOM     31  N   UNL     1       3.396   4.393  18.655  0.00  0.00    +0.000 NA
ATOM     32  C   UNL     1       2.729   4.128  19.761  0.00  0.00    +0.000 A 
ATOM     33 CL   UNL     1       2.627   2.481  20.200  0.00  0.00    +0.000 Cl
ATOM     34  N   UNL     1       2.150   4.992  20.593  0.00  0.00    +0.000 NA
ATOM     35  H   UNL     1       1.076   6.752  21.755  0.00  0.00    +0.000 HD
ENDBRANCH  24  26
ENDBRANCH   1  23
TORSDOF 3
ENDMDL
