MODEL 1
REMARK VINA RESULT:      -8.5      0.000      0.000
REMARK  Name = 
REMARK  7 active torsions:
REMARK  status: ('A' for Active; 'I' for Inactive)
REMARK    1  A    between atoms: C_1  and  N_2
REMARK    2  A    between atoms: C_6  and  S_7
REMARK    3  A    between atoms: S_7  and  C_8
REMARK    4  A    between atoms: C_8  and  C_9
REMARK    5  A    between atoms: N_11  and  N_12
REMARK    6  A    between atoms: N_12  and  C_13
REMARK    7  A    between atoms: N_12  and  C_19
REMARK                            x       y       z     vdW  Elec       q    Type
REMARK                         _______ _______ _______ _____ _____    ______ ____
ROOT
ATOM      1  N   UNL     1       2.818   6.328  18.926  0.00  0.00    +0.000 N 
ENDROOT
BRANCH   1   2
ATOM      2  C   UNL     1       2.203   7.623  19.040  0.00  0.00    +0.000 A 
ATOM      3  C   UNL     1       2.094   8.507  17.945  0.00  0.00    +0.000 A 
ATOM      4  C   UNL     1       1.438   9.744  18.055  0.00  0.00    +0.000 A 
ATOM      5  C   UNL     1       0.877  10.135  19.265  0.00  0.00    +0.000 A 
ATOM      6  C   UNL     1       1.001   9.305  20.370  0.00  0.00    +0.000 A 
ATOM      7  C   UNL     1       1.668   8.079  20.257  0.00  0.00    +0.000 A 
ENDBRANCH   1   2
BRANCH   1   8
ATOM      8  C   UNL     1       2.164   5.069  19.176  0.00  0.00    +0.000 A 
ATOM      9  C   UNL     1       1.999   4.562  20.473  0.00  0.00    +0.000 A 
ATOM     10  C   UNL     1       1.451   3.293  20.709  0.00  0.00    +0.000 A 
ATOM     11  C   UNL     1       1.068   2.488  19.643  0.00  0.00    +0.000 A 
ATOM     12  C   UNL     1       1.202   2.963  18.346  0.00  0.00    +0.000 A 
ATOM     13  C   UNL     1       1.726   4.241  18.121  0.00  0.00    +0.000 A 
ENDBRANCH   1   8
BRANCH   1  16
ATOM     14  C   UNL     1       5.080   5.709  18.280  0.00  0.00    +0.000 C 
ATOM     15  O   UNL     1       5.399   5.275  19.386  0.00  0.00    +0.000 OA
ATOM     16  N   UNL     1       3.849   6.270  17.957  0.00  0.00    +0.000 N 
ATOM     17  H   UNL     1       3.546   6.313  16.984  0.00  0.00    +0.000 HD
BRANCH  14  18
ATOM     18  C   UNL     1       6.058   5.674  17.116  0.00  0.00    +0.000 C 
BRANCH  18  19
ATOM     19  S   UNL     1       5.645   4.369  15.917  0.00  0.00    +0.000 S 
BRANCH  19  25
ATOM     20  C   UNL     1       5.589   3.418  12.820  0.00  0.00    +0.000 C 
ATOM     21  N   UNL     1       6.606   4.277  13.360  0.00  0.00    +0.000 N 
ATOM     22  C   UNL     1       7.599   4.890  12.651  0.00  0.00    +0.000 A 
ATOM     23  N   UNL     1       8.300   5.665  13.449  0.00  0.00    +0.000 NA
ATOM     24  N   UNL     1       7.761   5.558  14.709  0.00  0.00    +0.000 NA
ATOM     25  C   UNL     1       6.746   4.730  14.640  0.00  0.00    +0.000 A 
ENDBRANCH  19  25
ENDBRANCH  18  19
ENDBRANCH  14  18
ENDBRANCH   1  16
TORSDOF 6
ENDMDL
MODEL 2
REMARK VINA RESULT:      -8.1      1.254      4.175
REMARK  Name = 
REMARK  7 active torsions:
REMARK  status: ('A' for Active; 'I' for Inactive)
REMARK    1  A    between atoms: C_1  and  N_2
REMARK    2  A    between atoms: C_6  and  S_7
REMARK    3  A    between atoms: S_7  and  C_8
REMARK    4  A    between atoms: C_8  and  C_9
REMARK    5  A    between atoms: N_11  and  N_12
REMARK    6  A    between atoms: N_12  and  C_13
REMARK    7  A    between atoms: N_12  and  C_19
REMARK                            x       y       z     vdW  Elec       q    Type
REMARK                         _______ _______ _______ _____ _____    ______ ____
ROOT
ATOM      1  N   UNL     1       2.822   6.290  18.782  0.00  0.00    +0.000 N 
ENDROOT
BRANCH   1   2
ATOM      2  C   UNL     1       2.234   5.020  19.114  0.00  0.00    +0.000 A 
ATOM      3  C   UNL     1       2.102   4.571  20.445  0.00  0.00    +0.000 A 
ATOM      4  C   UNL     1       1.471   3.356  20.758  0.00  0.00    +0.000 A 
ATOM      5  C   UNL     1       0.960   2.551  19.748  0.00  0.00    +0.000 A 
ATOM      6  C   UNL     1       1.107   2.946  18.426  0.00  0.00    +0.000 A 
ATOM      7  C   UNL     1       1.749   4.152  18.119  0.00  0.00    +0.000 A 
ENDBRANCH   1   2
BRANCH   1   8
ATOM      8  C   UNL     1       2.212   7.575  19.003  0.00  0.00    +0.000 A 
ATOM      9  C   UNL     1       1.737   7.966  20.263  0.00  0.00    +0.000 A 
ATOM     10  C   UNL     1       1.057   9.176  20.457  0.00  0.00    +0.000 A 
ATOM     11  C   UNL     1       0.821  10.025  19.382  0.00  0.00    +0.000 A 
ATOM     12  C   UNL     1       1.291   9.679  18.123  0.00  0.00    +0.000 A 
ATOM     13  C   UNL     1       1.991   8.480  17.944  0.00  0.00    +0.000 A 
ENDBRANCH   1   8
BRANCH   1  16
ATOM     14  C   UNL     1       4.985   6.564  17.701  0.00  0.00    +0.000 C 
ATOM     15  O   UNL     1       4.524   6.767  16.579  0.00  0.00    +0.000 OA
ATOM     16  N   UNL     1       4.238   6.294  18.843  0.00  0.00    +0.000 N 
ATOM     17  H   UNL     1       4.641   6.449  19.767  0.00  0.00    +0.000 HD
BRANCH  14  18
ATOM     18  C   UNL     1       6.486   6.584  17.946  0.00  0.00    +0.000 C 
BRANCH  18  19
ATOM     19  S   UNL     1       7.238   4.946  17.701  0.00  0.00    +0.000 S 
BRANCH  19  25
ATOM     20  C   UNL     1       4.952   3.234  16.169  0.00  0.00    +0.000 C 
ATOM     21  N   UNL     1       5.973   3.976  15.480  0.00  0.00    +0.000 N 
ATOM     22  C   UNL     1       6.060   4.157  14.130  0.00  0.00    +0.000 A 
ATOM     23  N   UNL     1       7.069   4.954  13.855  0.00  0.00    +0.000 NA
ATOM     24  N   UNL     1       7.659   5.302  15.047  0.00  0.00    +0.000 NA
ATOM     25  C   UNL     1       6.990   4.715  16.010  0.00  0.00    +0.000 A 
ENDBRANCH  19  25
ENDBRANCH  18  19
ENDBRANCH  14  18
ENDBRANCH   1  16
TORSDOF 6
ENDMDL
MODEL 3
REMARK VINA RESULT:      -8.1      1.429      4.236
REMARK  Name = 
REMARK  7 active torsions:
REMARK  status: ('A' for Active; 'I' for Inactive)
REMARK    1  A    between atoms: C_1  and  N_2
REMARK    2  A    between atoms: C_6  and  S_7
REMARK    3  A    between atoms: S_7  and  C_8
REMARK    4  A    between atoms: C_8  and  C_9
REMARK    5  A    between atoms: N_11  and  N_12
REMARK    6  A    between atoms: N_12  and  C_13
REMARK    7  A    between atoms: N_12  and  C_19
REMARK                            x       y       z     vdW  Elec       q    Type
REMARK                         _______ _______ _______ _____ _____    ______ ____
ROOT
ATOM      1  N   UNL     1       2.893   6.079  19.381  0.00  0.00    +0.000 N 
ENDROOT
BRANCH   1   2
ATOM      2  C   UNL     1       2.265   4.892  19.894  0.00  0.00    +0.000 A 
ATOM      3  C   UNL     1       1.408   4.090  19.110  0.00  0.00    +0.000 A 
ATOM      4  C   UNL     1       0.849   2.901  19.604  0.00  0.00    +0.000 A 
ATOM      5  C   UNL     1       1.125   2.481  20.900  0.00  0.00    +0.000 A 
ATOM      6  C   UNL     1       1.933   3.268  21.709  0.00  0.00    +0.000 A 
ATOM      7  C   UNL     1       2.477   4.459  21.214  0.00  0.00    +0.000 A 
ENDBRANCH   1   2
BRANCH   1   8
ATOM      8  C   UNL     1       2.273   7.376  19.283  0.00  0.00    +0.000 A 
ATOM      9  C   UNL     1       1.650   7.987  20.380  0.00  0.00    +0.000 A 
ATOM     10  C   UNL     1       0.962   9.203  20.260  0.00  0.00    +0.000 A 
ATOM     11  C   UNL     1       0.868   9.833  19.025  0.00  0.00    +0.000 A 
ATOM     12  C   UNL     1       1.486   9.266  17.920  0.00  0.00    +0.000 A 
ATOM     13  C   UNL     1       2.192   8.065  18.055  0.00  0.00    +0.000 A 
ENDBRANCH   1   8
BRANCH   1  16
ATOM     14  C   UNL     1       5.101   5.107  19.063  0.00  0.00    +0.000 C 
ATOM     15  O   UNL     1       4.700   4.116  18.453  0.00  0.00    +0.000 OA
ATOM     16  N   UNL     1       4.295   6.114  19.583  0.00  0.00    +0.000 N 
ATOM     17  H   UNL     1       4.691   7.032  19.785  0.00  0.00    +0.000 HD
BRANCH  14  18
ATOM     18  C   UNL     1       6.584   5.320  19.320  0.00  0.00    +0.000 C 
BRANCH  18  19
ATOM     19  S   UNL     1       7.346   6.392  18.063  0.00  0.00    +0.000 S 
BRANCH  19  25
ATOM     20  C   UNL     1       4.902   6.867  15.990  0.00  0.00    +0.000 C 
ATOM     21  N   UNL     1       5.898   5.846  15.811  0.00  0.00    +0.000 N 
ATOM     22  C   UNL     1       6.024   5.030  14.724  0.00  0.00    +0.000 A 
ATOM     23  N   UNL     1       7.090   4.272  14.860  0.00  0.00    +0.000 NA
ATOM     24  N   UNL     1       7.675   4.594  16.062  0.00  0.00    +0.000 NA
ATOM     25  C   UNL     1       6.956   5.540  16.616  0.00  0.00    +0.000 A 
ENDBRANCH  19  25
ENDBRANCH  18  19
ENDBRANCH  14  18
ENDBRANCH   1  16
TORSDOF 6
ENDMDL
MODEL 4
REMARK VINA RESULT:      -8.0      2.700      7.377
REMARK  Name = 
REMARK  7 active torsions:
REMARK  status: ('A' for Active; 'I' for Inactive)
REMARK    1  A    between atoms: C_1  and  N_2
REMARK    2  A    between atoms: C_6  and  S_7
REMARK    3  A    between atoms: S_7  and  C_8
REMARK    4  A    between atoms: C_8  and  C_9
REMARK    5  A    between atoms: N_11  and  N_12
REMARK    6  A    between atoms: N_12  and  C_13
REMARK    7  A    between atoms: N_12  and  C_19
REMARK                            x       y       z     vdW  Elec       q    Type
REMARK                         _______ _______ _______ _____ _____    ______ ____
ROOT
ATOM      1  N   UNL     1       6.030   4.680  15.870  0.00  0.00    +0.000 N 
ENDROOT
BRANCH   1   2
ATOM      2  C   UNL     1       6.785   5.416  16.848  0.00  0.00    +0.000 A 
ATOM      3  C   UNL     1       6.940   6.818  16.786  0.00  0.00    +0.000 A 
ATOM      4  C   UNL     1       7.629   7.531  17.780  0.00  0.00    +0.000 A 
ATOM      5  C   UNL     1       8.190   6.863  18.861  0.00  0.00    +0.000 A 
ATOM      6  C   UNL     1       8.088   5.480  18.931  0.00  0.00    +0.000 A 
ATOM      7  C   UNL     1       7.411   4.773  17.930  0.00  0.00    +0.000 A 
ENDBRANCH   1   2
BRANCH   1   8
ATOM      8  C   UNL     1       6.430   4.451  14.505  0.00  0.00    +0.000 A 
ATOM      9  C   UNL     1       7.469   5.175  13.904  0.00  0.00    +0.000 A 
ATOM     10  C   UNL     1       7.793   5.021  12.548  0.00  0.00    +0.000 A 
ATOM     11  C   UNL     1       7.068   4.142  11.753  0.00  0.00    +0.000 A 
ATOM     12  C   UNL     1       6.044   3.396  12.318  0.00  0.00    +0.000 A 
ATOM     13  C   UNL     1       5.744   3.538  13.677  0.00  0.00    +0.000 A 
ENDBRANCH   1   8
BRANCH   1  16
ATOM     14  C   UNL     1       4.007   3.962  17.015  0.00  0.00    +0.000 C 
ATOM     15  O   UNL     1       3.546   5.094  17.151  0.00  0.00    +0.000 OA
ATOM     16  N   UNL     1       5.228   3.652  16.426  0.00  0.00    +0.000 N 
ATOM     17  H   UNL     1       5.399   2.714  16.066  0.00  0.00    +0.000 HD
BRANCH  14  18
ATOM     18  C   UNL     1       3.245   2.743  17.514  0.00  0.00    +0.000 C 
BRANCH  18  19
ATOM     19  S   UNL     1       1.604   3.185  18.162  0.00  0.00    +0.000 S 
BRANCH  19  25
ATOM     20  C   UNL     1       2.179   5.666  20.166  0.00  0.00    +0.000 C 
ATOM     21  N   UNL     1       2.119   4.298  20.605  0.00  0.00    +0.000 N 
ATOM     22  C   UNL     1       2.179   3.867  21.899  0.00  0.00    +0.000 A 
ATOM     23  N   UNL     1       2.013   2.563  21.939  0.00  0.00    +0.000 NA
ATOM     24  N   UNL     1       1.843   2.127  20.647  0.00  0.00    +0.000 NA
ATOM     25  C   UNL     1       1.903   3.175  19.860  0.00  0.00    +0.000 A 
ENDBRANCH  19  25
ENDBRANCH  18  19
ENDBRANCH  14  18
ENDBRANCH   1  16
TORSDOF 6
ENDMDL
MODEL 5
REMARK VINA RESULT:      -8.0      2.010      2.962
REMARK  Name = 
REMARK  7 active torsions:
REMARK  status: ('A' for Active; 'I' for Inactive)
REMARK    1  A    between atoms: C_1  and  N_2
REMARK    2  A    between atoms: C_6  and  S_7
REMARK    3  A    between atoms: S_7  and  C_8
REMARK    4  A    between atoms: C_8  and  C_9
REMARK    5  A    between atoms: N_11  and  N_12
REMARK    6  A    between atoms: N_12  and  C_13
REMARK    7  A    between atoms: N_12  and  C_19
REMARK                            x       y       z     vdW  Elec       q    Type
REMARK                         _______ _______ _______ _____ _____    ______ ____
ROOT
ATOM      1  N   UNL     1       2.696   6.117  19.125  0.00  0.00    +0.000 N 
ENDROOT
BRANCH   1   2
ATOM      2  C   UNL     1       2.135   7.442  19.134  0.00  0.00    +0.000 A 
ATOM      3  C   UNL     1       1.554   8.010  20.289  0.00  0.00    +0.000 A 
ATOM      4  C   UNL     1       1.065   9.325  20.300  0.00  0.00    +0.000 A 
ATOM      5  C   UNL     1       1.136  10.110  19.156  0.00  0.00    +0.000 A 
ATOM      6  C   UNL     1       1.666   9.568  17.993  0.00  0.00    +0.000 A 
ATOM      7  C   UNL     1       2.141   8.251  17.985  0.00  0.00    +0.000 A 
ENDBRANCH   1   2
BRANCH   1   8
ATOM      8  C   UNL     1       2.134   4.968  19.787  0.00  0.00    +0.000 A 
ATOM      9  C   UNL     1       2.469   4.633  21.106  0.00  0.00    +0.000 A 
ATOM     10  C   UNL     1       1.998   3.462  21.717  0.00  0.00    +0.000 A 
ATOM     11  C   UNL     1       1.187   2.584  21.009  0.00  0.00    +0.000 A 
ATOM     12  C   UNL     1       0.822   2.890  19.707  0.00  0.00    +0.000 A 
ATOM     13  C   UNL     1       1.276   4.074  19.114  0.00  0.00    +0.000 A 
ENDBRANCH   1   8
BRANCH   1  16
ATOM     14  C   UNL     1       4.537   4.982  18.010  0.00  0.00    +0.000 C 
ATOM     15  O   UNL     1       5.001   4.487  19.036  0.00  0.00    +0.000 OA
ATOM     16  N   UNL     1       3.426   5.817  17.948  0.00  0.00    +0.000 N 
ATOM     17  H   UNL     1       2.918   5.928  17.071  0.00  0.00    +0.000 HD
BRANCH  14  18
ATOM     18  C   UNL     1       5.175   4.716  16.656  0.00  0.00    +0.000 C 
BRANCH  18  19
ATOM     19  S   UNL     1       6.987   4.597  16.768  0.00  0.00    +0.000 S 
BRANCH  19  25
ATOM     20  C   UNL     1       8.100   5.548  19.660  0.00  0.00    +0.000 C 
ATOM     21  N   UNL     1       7.869   6.455  18.569  0.00  0.00    +0.000 N 
ATOM     22  C   UNL     1       8.181   7.784  18.551  0.00  0.00    +0.000 A 
ATOM     23  N   UNL     1       7.907   8.287  17.367  0.00  0.00    +0.000 NA
ATOM     24  N   UNL     1       7.403   7.270  16.592  0.00  0.00    +0.000 NA
ATOM     25  C   UNL     1       7.391   6.179  17.321  0.00  0.00    +0.000 A 
ENDBRANCH  19  25
ENDBRANCH  18  19
ENDBRANCH  14  18
ENDBRANCH   1  16
TORSDOF 6
ENDMDL
MODEL 6
REMARK VINA RESULT:      -8.0      1.973      2.927
REMARK  Name = 
REMARK  7 active torsions:
REMARK  status: ('A' for Active; 'I' for Inactive)
REMARK    1  A    between atoms: C_1  and  N_2
REMARK    2  A    between atoms: C_6  and  S_7
REMARK    3  A    between atoms: S_7  and  C_8
REMARK    4  A    between atoms: C_8  and  C_9
REMARK    5  A    between atoms: N_11  and  N_12
REMARK    6  A    between atoms: N_12  and  C_13
REMARK    7  A    between atoms: N_12  and  C_19
REMARK                            x       y       z     vdW  Elec       q    Type
REMARK                         _______ _______ _______ _____ _____    ______ ____
ROOT
ATOM      1  N   UNL     1       2.848   6.007  19.035  0.00  0.00    +0.000 N 
ENDROOT
BRANCH   1   2
ATOM      2  C   UNL     1       2.273   7.325  19.065  0.00  0.00    +0.000 A 
ATOM      3  C   UNL     1       2.229   8.158  17.927  0.00  0.00    +0.000 A 
ATOM      4  C   UNL     1       1.611   9.418  17.954  0.00  0.00    +0.000 A 
ATOM      5  C   UNL     1       1.024   9.885  19.124  0.00  0.00    +0.000 A 
ATOM      6  C   UNL     1       1.083   9.106  20.271  0.00  0.00    +0.000 A 
ATOM      7  C   UNL     1       1.713   7.856  20.240  0.00  0.00    +0.000 A 
ENDBRANCH   1   2
BRANCH   1   8
ATOM      8  C   UNL     1       2.306   4.844  19.690  0.00  0.00    +0.000 A 
ATOM      9  C   UNL     1       1.390   3.994  19.055  0.00  0.00    +0.000 A 
ATOM     10  C   UNL     1       0.789   2.919  19.724  0.00  0.00    +0.000 A 
ATOM     11  C   UNL     1       1.081   2.677  21.061  0.00  0.00    +0.000 A 
ATOM     12  C   UNL     1       1.995   3.489  21.718  0.00  0.00    +0.000 A 
ATOM     13  C   UNL     1       2.609   4.544  21.034  0.00  0.00    +0.000 A 
ENDBRANCH   1   8
BRANCH   1  16
ATOM     14  C   UNL     1       4.628   4.825  17.871  0.00  0.00    +0.000 C 
ATOM     15  O   UNL     1       5.051   4.246  18.871  0.00  0.00    +0.000 OA
ATOM     16  N   UNL     1       3.571   5.728  17.849  0.00  0.00    +0.000 N 
ATOM     17  H   UNL     1       3.080   5.919  16.976  0.00  0.00    +0.000 HD
BRANCH  14  18
ATOM     18  C   UNL     1       5.263   4.596  16.509  0.00  0.00    +0.000 C 
BRANCH  18  19
ATOM     19  S   UNL     1       7.081   4.586  16.598  0.00  0.00    +0.000 S 
BRANCH  19  25
ATOM     20  C   UNL     1       8.159   5.475  19.522  0.00  0.00    +0.000 C 
ATOM     21  N   UNL     1       7.864   6.413  18.474  0.00  0.00    +0.000 N 
ATOM     22  C   UNL     1       8.094   7.758  18.513  0.00  0.00    +0.000 A 
ATOM     23  N   UNL     1       7.779   8.296  17.355  0.00  0.00    +0.000 NA
ATOM     24  N   UNL     1       7.332   7.285  16.538  0.00  0.00    +0.000 NA
ATOM     25  C   UNL     1       7.393   6.165  17.218  0.00  0.00    +0.000 A 
ENDBRANCH  19  25
ENDBRANCH  18  19
ENDBRANCH  14  18
ENDBRANCH   1  16
TORSDOF 6
ENDMDL
MODEL 7
REMARK VINA RESULT:      -7.9      2.725      7.410
REMARK  Name = 
REMARK  7 active torsions:
REMARK  status: ('A' for Active; 'I' for Inactive)
REMARK    1  A    between atoms: C_1  and  N_2
REMARK    2  A    between atoms: C_6  and  S_7
REMARK    3  A    between atoms: S_7  and  C_8
REMARK    4  A    between atoms: C_8  and  C_9
REMARK    5  A    between atoms: N_11  and  N_12
REMARK    6  A    between atoms: N_12  and  C_13
REMARK    7  A    between atoms: N_12  and  C_19
REMARK                            x       y       z     vdW  Elec       q    Type
REMARK                         _______ _______ _______ _____ _____    ______ ____
ROOT
ATOM      1  N   UNL     1       5.828   4.739  15.874  0.00  0.00    +0.000 N 
ENDROOT
BRANCH   1   2
ATOM      2  C   UNL     1       6.589   5.439  16.874  0.00  0.00    +0.000 A 
ATOM      3  C   UNL     1       7.248   4.771  17.928  0.00  0.00    +0.000 A 
ATOM      4  C   UNL     1       8.037   5.461  18.863  0.00  0.00    +0.000 A 
ATOM      5  C   UNL     1       8.184   6.840  18.775  0.00  0.00    +0.000 A 
ATOM      6  C   UNL     1       7.517   7.530  17.773  0.00  0.00    +0.000 A 
ATOM      7  C   UNL     1       6.721   6.838  16.852  0.00  0.00    +0.000 A 
ENDBRANCH   1   2
BRANCH   1   8
ATOM      8  C   UNL     1       6.224   4.554  14.502  0.00  0.00    +0.000 A 
ATOM      9  C   UNL     1       5.553   3.668  13.648  0.00  0.00    +0.000 A 
ATOM     10  C   UNL     1       5.997   3.416  12.342  0.00  0.00    +0.000 A 
ATOM     11  C   UNL     1       7.143   4.038  11.863  0.00  0.00    +0.000 A 
ATOM     12  C   UNL     1       7.825   4.933  12.674  0.00  0.00    +0.000 A 
ATOM     13  C   UNL     1       7.359   5.198  13.967  0.00  0.00    +0.000 A 
ENDBRANCH   1   8
BRANCH   1  16
ATOM     14  C   UNL     1       3.837   3.997  17.060  0.00  0.00    +0.000 C 
ATOM     15  O   UNL     1       3.414   5.129  17.289  0.00  0.00    +0.000 OA
ATOM     16  N   UNL     1       5.023   3.697  16.398  0.00  0.00    +0.000 N 
ATOM     17  H   UNL     1       5.152   2.780  15.971  0.00  0.00    +0.000 HD
BRANCH  14  18
ATOM     18  C   UNL     1       3.064   2.768  17.512  0.00  0.00    +0.000 C 
BRANCH  18  19
ATOM     19  S   UNL     1       1.454   3.204  18.238  0.00  0.00    +0.000 S 
BRANCH  19  25
ATOM     20  C   UNL     1       2.072   5.653  20.269  0.00  0.00    +0.000 C 
ATOM     21  N   UNL     1       2.055   4.275  20.680  0.00  0.00    +0.000 N 
ATOM     22  C   UNL     1       2.178   3.818  21.961  0.00  0.00    +0.000 A 
ATOM     23  N   UNL     1       2.036   2.511  21.980  0.00  0.00    +0.000 NA
ATOM     24  N   UNL     1       1.818   2.099  20.686  0.00  0.00    +0.000 NA
ATOM     25  C   UNL     1       1.826   3.165  19.921  0.00  0.00    +0.000 A 
ENDBRANCH  19  25
ENDBRANCH  18  19
ENDBRANCH  14  18
ENDBRANCH   1  16
TORSDOF 6
ENDMDL
MODEL 8
REMARK VINA RESULT:      -7.9      1.413      4.281
REMARK  Name = 
REMARK  7 active torsions:
REMARK  status: ('A' for Active; 'I' for Inactive)
REMARK    1  A    between atoms: C_1  and  N_2
REMARK    2  A    between atoms: C_6  and  S_7
REMARK    3  A    between atoms: S_7  and  C_8
REMARK    4  A    between atoms: C_8  and  C_9
REMARK    5  A    between atoms: N_11  and  N_12
REMARK    6  A    between atoms: N_12  and  C_13
REMARK    7  A    between atoms: N_12  and  C_19
REMARK                            x       y       z     vdW  Elec       q    Type
REMARK                         _______ _______ _______ _____ _____    ______ ____
ROOT
ATOM      1  N   UNL     1       2.990   6.137  18.597  0.00  0.00    +0.000 N 
ENDROOT
BRANCH   1   2
ATOM      2  C   UNL     1       2.570   4.789  18.869  0.00  0.00    +0.000 A 
ATOM      3  C   UNL     1       1.458   4.199  18.231  0.00  0.00    +0.000 A 
ATOM      4  C   UNL     1       1.095   2.862  18.462  0.00  0.00    +0.000 A 
ATOM      5  C   UNL     1       1.829   2.078  19.344  0.00  0.00    +0.000 A 
ATOM      6  C   UNL     1       2.904   2.641  20.017  0.00  0.00    +0.000 A 
ATOM      7  C   UNL     1       3.253   3.978  19.792  0.00  0.00    +0.000 A 
ENDBRANCH   1   2
BRANCH   1   8
ATOM      8  C   UNL     1       2.258   7.327  18.947  0.00  0.00    +0.000 A 
ATOM      9  C   UNL     1       1.983   8.333  18.011  0.00  0.00    +0.000 A 
ATOM     10  C   UNL     1       1.356   9.533  18.374  0.00  0.00    +0.000 A 
ATOM     11  C   UNL     1       1.001   9.763  19.697  0.00  0.00    +0.000 A 
ATOM     12  C   UNL     1       1.243   8.783  20.649  0.00  0.00    +0.000 A 
ATOM     13  C   UNL     1       1.846   7.577  20.272  0.00  0.00    +0.000 A 
ENDBRANCH   1   8
BRANCH   1  16
ATOM     14  C   UNL     1       5.033   6.709  17.406  0.00  0.00    +0.000 C 
ATOM     15  O   UNL     1       4.480   6.911  16.325  0.00  0.00    +0.000 OA
ATOM     16  N   UNL     1       4.397   6.301  18.573  0.00  0.00    +0.000 N 
ATOM     17  H   UNL     1       4.840   6.457  19.478  0.00  0.00    +0.000 HD
BRANCH  14  18
ATOM     18  C   UNL     1       6.535   6.889  17.561  0.00  0.00    +0.000 C 
BRANCH  18  19
ATOM     19  S   UNL     1       7.421   5.301  17.501  0.00  0.00    +0.000 S 
BRANCH  19  25
ATOM     20  C   UNL     1       5.040   3.361  16.470  0.00  0.00    +0.000 C 
ATOM     21  N   UNL     1       6.004   3.960  15.588  0.00  0.00    +0.000 N 
ATOM     22  C   UNL     1       5.993   3.896  14.224  0.00  0.00    +0.000 A 
ATOM     23  N   UNL     1       6.975   4.623  13.739  0.00  0.00    +0.000 NA
ATOM     24  N   UNL     1       7.647   5.174  14.803  0.00  0.00    +0.000 NA
ATOM     25  C   UNL     1       7.053   4.774  15.902  0.00  0.00    +0.000 A 
ENDBRANCH  19  25
ENDBRANCH  18  19
ENDBRANCH  14  18
ENDBRANCH   1  16
TORSDOF 6
ENDMDL
MODEL 9
REMARK VINA RESULT:      -7.8      3.121      7.147
REMARK  Name = 
REMARK  7 active torsions:
REMARK  status: ('A' for Active; 'I' for Inactive)
REMARK    1  A    between atoms: C_1  and  N_2
REMARK    2  A    between atoms: C_6  and  S_7
REMARK    3  A    between atoms: S_7  and  C_8
REMARK    4  A    between atoms: C_8  and  C_9
REMARK    5  A    between atoms: N_11  and  N_12
REMARK    6  A    between atoms: N_12  and  C_13
REMARK    7  A    between atoms: N_12  and  C_19
REMARK                            x       y       z     vdW  Elec       q    Type
REMARK                         _______ _______ _______ _____ _____    ______ ____
ROOT
ATOM      1  N   UNL     1       6.067   4.653  15.948  0.00  0.00    +0.000 N 
ENDROOT
BRANCH   1   2
ATOM      2  C   UNL     1       6.808   5.471  16.870  0.00  0.00    +0.000 A 
ATOM      3  C   UNL     1       6.945   6.866  16.703  0.00  0.00    +0.000 A 
ATOM      4  C   UNL     1       7.620   7.661  17.642  0.00  0.00    +0.000 A 
ATOM      5  C   UNL     1       8.184   7.085  18.773  0.00  0.00    +0.000 A 
ATOM      6  C   UNL     1       8.100   5.710  18.947  0.00  0.00    +0.000 A 
ATOM      7  C   UNL     1       7.437   4.921  18.000  0.00  0.00    +0.000 A 
ENDBRANCH   1   2
BRANCH   1   8
ATOM      8  C   UNL     1       6.350   4.512  14.543  0.00  0.00    +0.000 A 
ATOM      9  C   UNL     1       5.633   3.628  13.725  0.00  0.00    +0.000 A 
ATOM     10  C   UNL     1       5.972   3.420  12.381  0.00  0.00    +0.000 A 
ATOM     11  C   UNL     1       7.057   4.085  11.824  0.00  0.00    +0.000 A 
ATOM     12  C   UNL     1       7.781   4.979  12.599  0.00  0.00    +0.000 A 
ATOM     13  C   UNL     1       7.419   5.200  13.932  0.00  0.00    +0.000 A 
ENDBRANCH   1   8
BRANCH   1  16
ATOM     14  C   UNL     1       4.204   3.580  17.088  0.00  0.00    +0.000 C 
ATOM     15  O   UNL     1       3.509   4.594  17.146  0.00  0.00    +0.000 OA
ATOM     16  N   UNL     1       5.483   3.508  16.546  0.00  0.00    +0.000 N 
ATOM     17  H   UNL     1       5.861   2.610  16.247  0.00  0.00    +0.000 HD
BRANCH  14  18
ATOM     18  C   UNL     1       3.701   2.256  17.641  0.00  0.00    +0.000 C 
BRANCH  18  19
ATOM     19  S   UNL     1       3.845   2.175  19.453  0.00  0.00    +0.000 S 
BRANCH  19  25
ATOM     20  C   UNL     1       0.631   2.316  19.066  0.00  0.00    +0.000 C 
ATOM     21  N   UNL     1       1.390   3.345  19.723  0.00  0.00    +0.000 N 
ATOM     22  C   UNL     1       0.876   4.439  20.358  0.00  0.00    +0.000 A 
ATOM     23  N   UNL     1       1.850   5.125  20.915  0.00  0.00    +0.000 NA
ATOM     24  N   UNL     1       3.028   4.472  20.639  0.00  0.00    +0.000 NA
ATOM     25  C   UNL     1       2.737   3.407  19.930  0.00  0.00    +0.000 A 
ENDBRANCH  19  25
ENDBRANCH  18  19
ENDBRANCH  14  18
ENDBRANCH   1  16
TORSDOF 6
ENDMDL
