MODEL 1
REMARK VINA RESULT:      -8.5      0.000      0.000
REMARK  Name = 
REMARK  7 active torsions:
REMARK  status: ('A' for Active; 'I' for Inactive)
REMARK    1  A    between atoms: C_1  and  O_2
REMARK    2  A    between atoms: O_2  and  C_3
REMARK    3  A    between atoms: C_5  and  C_6
REMARK    4  A    between atoms: N_14  and  C_15
REMARK    5  A    between atoms: C_15  and  C_16
REMARK    6  A    between atoms: C_26  and  N_27
REMARK    7  A    between atoms: C_30  and  C_31
REMARK                            x       y       z     vdW  Elec       q    Type
REMARK                         _______ _______ _______ _____ _____    ______ ____
ROOT
ATOM      1  C   UNL     1       0.208   9.873  21.483  0.00  0.00    +0.000 A 
ATOM      2  N   UNL     1       0.773   9.007  22.310  0.00  0.00    +0.000 NA
ATOM      3  N   UNL     1       1.589   8.170  21.588  0.00  0.00    +0.000 NA
ATOM      4  C   UNL     1       1.513   8.523  20.329  0.00  0.00    +0.000 A 
ATOM      5  N   UNL     1       0.628   9.563  20.213  0.00  0.00    +0.000 N 
ATOM      6  C   UNL     1       0.254  10.146  18.944  0.00  0.00    +0.000 C 
ATOM      7  C   UNL     1       0.677   9.284  17.757  0.00  0.00    +0.000 C 
ATOM      8  C   UNL     1       2.092   8.760  17.983  0.00  0.00    +0.000 C 
ATOM      9  N   UNL     1       2.123   8.012  19.230  0.00  0.00    +0.000 N 
ENDROOT
BRANCH   1  12
ATOM     10  C   UNL     1      -1.866  13.032  21.310  0.00  0.00    +0.000 A 
ATOM     11  C   UNL     1      -0.921  12.026  21.029  0.00  0.00    +0.000 A 
ATOM     12  C   UNL     1      -0.674  10.962  21.914  0.00  0.00    +0.000 A 
ATOM     13  C   UNL     1      -1.358  10.945  23.126  0.00  0.00    +0.000 A 
ATOM     14  C   UNL     1      -2.267  11.953  23.439  0.00  0.00    +0.000 A 
ATOM     15  C   UNL     1      -2.548  12.994  22.537  0.00  0.00    +0.000 A 
BRANCH  15  16
ATOM     16  N   UNL     1      -3.544  13.938  22.919  0.00  0.00    +0.000 N 
ATOM     17  C   UNL     1      -3.408  15.212  23.422  0.00  0.00    +0.000 A 
ATOM     18  N   UNL     1      -4.563  15.750  23.763  0.00  0.00    +0.000 NA
ATOM     19  C   UNL     1      -5.509  14.814  23.441  0.00  0.00    +0.000 A 
ATOM     20  C   UNL     1      -6.952  15.031  23.686  0.00  0.00    +0.000 C 
ATOM     21  C   UNL     1      -4.907  13.713  22.879  0.00  0.00    +0.000 A 
ENDBRANCH  15  16
BRANCH  10  23
ATOM     22  C   UNL     1      -1.158  15.033  20.248  0.00  0.00    +0.000 C 
ATOM     23  O   UNL     1      -2.155  14.024  20.408  0.00  0.00    +0.000 OA
ENDBRANCH  10  23
ENDBRANCH   1  12
BRANCH   9  24
ATOM     24  C   UNL     1       3.041   6.892  19.376  0.00  0.00    +0.000 C 
BRANCH  24  25
ATOM     25  C   UNL     1       2.292   5.588  19.197  0.00  0.00    +0.000 A 
ATOM     26  C   UNL     1       2.091   5.053  17.913  0.00  0.00    +0.000 A 
ATOM     27  C   UNL     1       1.430   3.833  17.745  0.00  0.00    +0.000 A 
ATOM     28  C   UNL     1       0.981   3.138  18.862  0.00  0.00    +0.000 A 
ATOM     29  F   UNL     1       0.355   1.963  18.700  0.00  0.00    +0.000 F 
ATOM     30  C   UNL     1       1.183   3.651  20.136  0.00  0.00    +0.000 A 
ATOM     31  F   UNL     1       0.762   2.974  21.213  0.00  0.00    +0.000 F 
ATOM     32  C   UNL     1       1.832   4.869  20.312  0.00  0.00    +0.000 A 
ENDBRANCH  24  25
ENDBRANCH   9  24
TORSDOF 5
ENDMDL
MODEL 2
REMARK VINA RESULT:      -8.2      4.157     10.047
REMARK  Name = 
REMARK  7 active torsions:
REMARK  status: ('A' for Active; 'I' for Inactive)
REMARK    1  A    between atoms: C_1  and  O_2
REMARK    2  A    between atoms: O_2  and  C_3
REMARK    3  A    between atoms: C_5  and  C_6
REMARK    4  A    between atoms: N_14  and  C_15
REMARK    5  A    between atoms: C_15  and  C_16
REMARK    6  A    between atoms: C_26  and  N_27
REMARK    7  A    between atoms: C_30  and  C_31
REMARK                            x       y       z     vdW  Elec       q    Type
REMARK                         _______ _______ _______ _____ _____    ______ ____
ROOT
ATOM      1  C   UNL     1       0.741  10.308  20.318  0.00  0.00    +0.000 A 
ATOM      2  N   UNL     1       1.140  10.890  21.438  0.00  0.00    +0.000 NA
ATOM      3  N   UNL     1       0.230  11.859  21.786  0.00  0.00    +0.000 NA
ATOM      4  C   UNL     1      -0.714  11.867  20.878  0.00  0.00    +0.000 A 
ATOM      5  N   UNL     1      -0.413  10.937  19.917  0.00  0.00    +0.000 N 
ATOM      6  C   UNL     1      -1.212  10.739  18.729  0.00  0.00    +0.000 C 
ATOM      7  C   UNL     1      -2.205  11.876  18.497  0.00  0.00    +0.000 C 
ATOM      8  C   UNL     1      -2.864  12.257  19.819  0.00  0.00    +0.000 C 
ATOM      9  N   UNL     1      -1.828  12.634  20.768  0.00  0.00    +0.000 N 
ENDROOT
BRANCH   1  12
ATOM     10  C   UNL     1       2.194   6.845  19.870  0.00  0.00    +0.000 A 
ATOM     11  C   UNL     1       1.666   8.018  20.443  0.00  0.00    +0.000 A 
ATOM     12  C   UNL     1       1.434   9.181  19.687  0.00  0.00    +0.000 A 
ATOM     13  C   UNL     1       1.788   9.170  18.341  0.00  0.00    +0.000 A 
ATOM     14  C   UNL     1       2.349   8.032  17.766  0.00  0.00    +0.000 A 
ATOM     15  C   UNL     1       2.541   6.854  18.509  0.00  0.00    +0.000 A 
BRANCH  15  16
ATOM     16  N   UNL     1       3.055   5.721  17.815  0.00  0.00    +0.000 N 
ATOM     17  C   UNL     1       2.498   4.478  17.618  0.00  0.00    +0.000 A 
ATOM     18  N   UNL     1       3.320   3.642  17.013  0.00  0.00    +0.000 NA
ATOM     19  C   UNL     1       4.453   4.367  16.762  0.00  0.00    +0.000 A 
ATOM     20  C   UNL     1       5.638   3.777  16.099  0.00  0.00    +0.000 C 
ATOM     21  C   UNL     1       4.294   5.658  17.206  0.00  0.00    +0.000 A 
ENDBRANCH  15  16
BRANCH  10  23
ATOM     22  C   UNL     1       1.191   4.863  20.707  0.00  0.00    +0.000 C 
ATOM     23  O   UNL     1       2.347   5.692  20.597  0.00  0.00    +0.000 OA
ENDBRANCH  10  23
ENDBRANCH   1  12
BRANCH   9  24
ATOM     24  C   UNL     1      -2.113  13.631  21.788  0.00  0.00    +0.000 C 
BRANCH  24  25
ATOM     25  C   UNL     1      -3.403  13.283  22.500  0.00  0.00    +0.000 A 
ATOM     26  C   UNL     1      -3.377  12.578  23.717  0.00  0.00    +0.000 A 
ATOM     27  C   UNL     1      -4.563  12.283  24.394  0.00  0.00    +0.000 A 
ATOM     28  C   UNL     1      -5.777  12.704  23.866  0.00  0.00    +0.000 A 
ATOM     29  F   UNL     1      -6.914  12.428  24.522  0.00  0.00    +0.000 F 
ATOM     30  C   UNL     1      -5.816  13.410  22.671  0.00  0.00    +0.000 A 
ATOM     31  F   UNL     1      -6.985  13.827  22.168  0.00  0.00    +0.000 F 
ATOM     32  C   UNL     1      -4.640  13.700  21.985  0.00  0.00    +0.000 A 
ENDBRANCH  24  25
ENDBRANCH   9  24
TORSDOF 5
ENDMDL
MODEL 3
REMARK VINA RESULT:      -8.1      0.901      1.478
REMARK  Name = 
REMARK  7 active torsions:
REMARK  status: ('A' for Active; 'I' for Inactive)
REMARK    1  A    between atoms: C_1  and  O_2
REMARK    2  A    between atoms: O_2  and  C_3
REMARK    3  A    between atoms: C_5  and  C_6
REMARK    4  A    between atoms: N_14  and  C_15
REMARK    5  A    between atoms: C_15  and  C_16
REMARK    6  A    between atoms: C_26  and  N_27
REMARK    7  A    between atoms: C_30  and  C_31
REMARK                            x       y       z     vdW  Elec       q    Type
REMARK                         _______ _______ _______ _____ _____    ______ ____
ROOT
ATOM      1  C   UNL     1       0.073   9.821  21.402  0.00  0.00    +0.000 A 
ATOM      2  N   UNL     1       0.646   9.002  22.270  0.00  0.00    +0.000 NA
ATOM      3  N   UNL     1       1.525   8.187  21.600  0.00  0.00    +0.000 NA
ATOM      4  C   UNL     1       1.481   8.507  20.331  0.00  0.00    +0.000 A 
ATOM      5  N   UNL     1       0.553   9.501  20.156  0.00  0.00    +0.000 N 
ATOM      6  C   UNL     1       0.202  10.037  18.861  0.00  0.00    +0.000 C 
ATOM      7  C   UNL     1       0.708   9.168  17.712  0.00  0.00    +0.000 C 
ATOM      8  C   UNL     1       2.136   8.717  18.002  0.00  0.00    +0.000 C 
ATOM      9  N   UNL     1       2.154   8.000  19.267  0.00  0.00    +0.000 N 
ENDROOT
BRANCH   1  12
ATOM     10  C   UNL     1      -2.581  12.490  21.030  0.00  0.00    +0.000 A 
ATOM     11  C   UNL     1      -1.554  11.567  20.754  0.00  0.00    +0.000 A 
ATOM     12  C   UNL     1      -0.875  10.877  21.773  0.00  0.00    +0.000 A 
ATOM     13  C   UNL     1      -1.206  11.164  23.094  0.00  0.00    +0.000 A 
ATOM     14  C   UNL     1      -2.192  12.104  23.388  0.00  0.00    +0.000 A 
ATOM     15  C   UNL     1      -2.903  12.763  22.370  0.00  0.00    +0.000 A 
BRANCH  15  16
ATOM     16  N   UNL     1      -3.940  13.654  22.770  0.00  0.00    +0.000 N 
ATOM     17  C   UNL     1      -3.892  15.003  23.039  0.00  0.00    +0.000 A 
ATOM     18  N   UNL     1      -5.039  15.473  23.491  0.00  0.00    +0.000 NA
ATOM     19  C   UNL     1      -5.895  14.405  23.486  0.00  0.00    +0.000 A 
ATOM     20  C   UNL     1      -7.299  14.514  23.944  0.00  0.00    +0.000 C 
ATOM     21  C   UNL     1      -5.253  13.289  23.005  0.00  0.00    +0.000 A 
ENDBRANCH  15  16
BRANCH  10  23
ATOM     22  C   UNL     1      -4.285  12.305  19.388  0.00  0.00    +0.000 C 
ATOM     23  O   UNL     1      -3.291  13.103  20.028  0.00  0.00    +0.000 OA
ENDBRANCH  10  23
ENDBRANCH   1  12
BRANCH   9  24
ATOM     24  C   UNL     1       3.117   6.929  19.475  0.00  0.00    +0.000 C 
BRANCH  24  25
ATOM     25  C   UNL     1       2.450   5.588  19.250  0.00  0.00    +0.000 A 
ATOM     26  C   UNL     1       1.608   5.038  20.234  0.00  0.00    +0.000 A 
ATOM     27  C   UNL     1       0.965   3.816  20.017  0.00  0.00    +0.000 A 
ATOM     28  C   UNL     1       1.147   3.149  18.812  0.00  0.00    +0.000 A 
ATOM     29  F   UNL     1       0.521   1.982  18.603  0.00  0.00    +0.000 F 
ATOM     30  C   UNL     1       1.967   3.688  17.829  0.00  0.00    +0.000 A 
ATOM     31  F   UNL     1       2.132   3.050  16.662  0.00  0.00    +0.000 F 
ATOM     32  C   UNL     1       2.619   4.899  18.039  0.00  0.00    +0.000 A 
ENDBRANCH  24  25
ENDBRANCH   9  24
TORSDOF 5
ENDMDL
MODEL 4
REMARK VINA RESULT:      -8.1      4.039      9.980
REMARK  Name = 
REMARK  7 active torsions:
REMARK  status: ('A' for Active; 'I' for Inactive)
REMARK    1  A    between atoms: C_1  and  O_2
REMARK    2  A    between atoms: O_2  and  C_3
REMARK    3  A    between atoms: C_5  and  C_6
REMARK    4  A    between atoms: N_14  and  C_15
REMARK    5  A    between atoms: C_15  and  C_16
REMARK    6  A    between atoms: C_26  and  N_27
REMARK    7  A    between atoms: C_30  and  C_31
REMARK                            x       y       z     vdW  Elec       q    Type
REMARK                         _______ _______ _______ _____ _____    ______ ____
ROOT
ATOM      1  C   UNL     1       0.345  10.276  19.412  0.00  0.00    +0.000 A 
ATOM      2  N   UNL     1      -0.211  11.102  18.539  0.00  0.00    +0.000 NA
ATOM      3  N   UNL     1      -1.030  11.976  19.212  0.00  0.00    +0.000 NA
ATOM      4  C   UNL     1      -0.976  11.676  20.486  0.00  0.00    +0.000 A 
ATOM      5  N   UNL     1      -0.156  10.590  20.651  0.00  0.00    +0.000 N 
ATOM      6  C   UNL     1       0.066   9.953  21.930  0.00  0.00    +0.000 C 
ATOM      7  C   UNL     1      -0.947  10.393  22.985  0.00  0.00    +0.000 C 
ATOM      8  C   UNL     1      -1.156  11.901  22.897  0.00  0.00    +0.000 C 
ATOM      9  N   UNL     1      -1.600  12.236  21.553  0.00  0.00    +0.000 N 
ENDROOT
BRANCH   1  12
ATOM     10  C   UNL     1       2.347   7.072  19.595  0.00  0.00    +0.000 A 
ATOM     11  C   UNL     1       1.527   8.167  19.931  0.00  0.00    +0.000 A 
ATOM     12  C   UNL     1       1.331   9.251  19.058  0.00  0.00    +0.000 A 
ATOM     13  C   UNL     1       2.017   9.250  17.846  0.00  0.00    +0.000 A 
ATOM     14  C   UNL     1       2.864   8.195  17.514  0.00  0.00    +0.000 A 
ATOM     15  C   UNL     1       3.027   7.089  18.367  0.00  0.00    +0.000 A 
BRANCH  15  16
ATOM     16  N   UNL     1       3.859   6.028  17.907  0.00  0.00    +0.000 N 
ATOM     17  C   UNL     1       3.539   4.727  17.593  0.00  0.00    +0.000 A 
ATOM     18  N   UNL     1       4.600   3.998  17.303  0.00  0.00    +0.000 NA
ATOM     19  C   UNL     1       5.663   4.855  17.389  0.00  0.00    +0.000 A 
ATOM     20  C   UNL     1       7.055   4.414  17.148  0.00  0.00    +0.000 C 
ATOM     21  C   UNL     1       5.225   6.117  17.715  0.00  0.00    +0.000 A 
ENDBRANCH  15  16
BRANCH  10  23
ATOM     22  C   UNL     1       1.307   5.175  20.571  0.00  0.00    +0.000 C 
ATOM     23  O   UNL     1       2.473   5.984  20.421  0.00  0.00    +0.000 OA
ENDBRANCH  10  23
ENDBRANCH   1  12
BRANCH   9  24
ATOM     24  C   UNL     1      -2.485  13.373  21.349  0.00  0.00    +0.000 C 
BRANCH  24  25
ATOM     25  C   UNL     1      -3.921  12.900  21.281  0.00  0.00    +0.000 A 
ATOM     26  C   UNL     1      -4.746  12.962  22.418  0.00  0.00    +0.000 A 
ATOM     27  C   UNL     1      -6.082  12.557  22.352  0.00  0.00    +0.000 A 
ATOM     28  C   UNL     1      -6.601  12.103  21.146  0.00  0.00    +0.000 A 
ATOM     29  F   UNL     1      -7.886  11.723  21.082  0.00  0.00    +0.000 F 
ATOM     30  C   UNL     1      -5.800  12.046  20.013  0.00  0.00    +0.000 A 
ATOM     31  F   UNL     1      -6.304  11.620  18.848  0.00  0.00    +0.000 F 
ATOM     32  C   UNL     1      -4.466  12.439  20.072  0.00  0.00    +0.000 A 
ENDBRANCH  24  25
ENDBRANCH   9  24
TORSDOF 5
ENDMDL
MODEL 5
REMARK VINA RESULT:      -8.1      4.095      9.964
REMARK  Name = 
REMARK  7 active torsions:
REMARK  status: ('A' for Active; 'I' for Inactive)
REMARK    1  A    between atoms: C_1  and  O_2
REMARK    2  A    between atoms: O_2  and  C_3
REMARK    3  A    between atoms: C_5  and  C_6
REMARK    4  A    between atoms: N_14  and  C_15
REMARK    5  A    between atoms: C_15  and  C_16
REMARK    6  A    between atoms: C_26  and  N_27
REMARK    7  A    between atoms: C_30  and  C_31
REMARK                            x       y       z     vdW  Elec       q    Type
REMARK                         _______ _______ _______ _____ _____    ______ ____
ROOT
ATOM      1  C   UNL     1       0.279  10.370  19.440  0.00  0.00    +0.000 A 
ATOM      2  N   UNL     1      -0.273  11.198  18.568  0.00  0.00    +0.000 NA
ATOM      3  N   UNL     1      -1.080  12.082  19.242  0.00  0.00    +0.000 NA
ATOM      4  C   UNL     1      -1.022  11.785  20.517  0.00  0.00    +0.000 A 
ATOM      5  N   UNL     1      -0.211  10.692  20.681  0.00  0.00    +0.000 N 
ATOM      6  C   UNL     1       0.011  10.057  21.961  0.00  0.00    +0.000 C 
ATOM      7  C   UNL     1      -0.991  10.510  23.020  0.00  0.00    +0.000 C 
ATOM      8  C   UNL     1      -1.185  12.020  22.928  0.00  0.00    +0.000 C 
ATOM      9  N   UNL     1      -1.634  12.355  21.586  0.00  0.00    +0.000 N 
ENDROOT
BRANCH   1  12
ATOM     10  C   UNL     1       2.274   7.162  19.640  0.00  0.00    +0.000 A 
ATOM     11  C   UNL     1       1.466   8.266  19.973  0.00  0.00    +0.000 A 
ATOM     12  C   UNL     1       1.253   9.334  19.083  0.00  0.00    +0.000 A 
ATOM     13  C   UNL     1       1.910   9.306  17.856  0.00  0.00    +0.000 A 
ATOM     14  C   UNL     1       2.746   8.241  17.526  0.00  0.00    +0.000 A 
ATOM     15  C   UNL     1       2.925   7.151  18.396  0.00  0.00    +0.000 A 
BRANCH  15  16
ATOM     16  N   UNL     1       3.742   6.078  17.938  0.00  0.00    +0.000 N 
ATOM     17  C   UNL     1       3.406   4.777  17.639  0.00  0.00    +0.000 A 
ATOM     18  N   UNL     1       4.457   4.035  17.346  0.00  0.00    +0.000 NA
ATOM     19  C   UNL     1       5.530   4.883  17.415  0.00  0.00    +0.000 A 
ATOM     20  C   UNL     1       6.916   4.426  17.165  0.00  0.00    +0.000 C 
ATOM     21  C   UNL     1       5.107   6.152  17.734  0.00  0.00    +0.000 A 
ENDBRANCH  15  16
BRANCH  10  23
ATOM     22  C   UNL     1       1.306   5.195  20.549  0.00  0.00    +0.000 C 
ATOM     23  O   UNL     1       2.415   6.090  20.485  0.00  0.00    +0.000 OA
ENDBRANCH  10  23
ENDBRANCH   1  12
BRANCH   9  24
ATOM     24  C   UNL     1      -2.509  13.500  21.383  0.00  0.00    +0.000 C 
BRANCH  24  25
ATOM     25  C   UNL     1      -3.952  13.045  21.357  0.00  0.00    +0.000 A 
ATOM     26  C   UNL     1      -4.524  12.558  20.168  0.00  0.00    +0.000 A 
ATOM     27  C   UNL     1      -5.847  12.106  20.147  0.00  0.00    +0.000 A 
ATOM     28  C   UNL     1      -6.596  12.125  21.317  0.00  0.00    +0.000 A 
ATOM     29  F   UNL     1      -7.861  11.682  21.297  0.00  0.00    +0.000 F 
ATOM     30  C   UNL     1      -6.040  12.593  22.500  0.00  0.00    +0.000 A 
ATOM     31  F   UNL     1      -6.758  12.599  23.630  0.00  0.00    +0.000 F 
ATOM     32  C   UNL     1      -4.727  13.053  22.528  0.00  0.00    +0.000 A 
ENDBRANCH  24  25
ENDBRANCH   9  24
TORSDOF 5
ENDMDL
MODEL 6
REMARK VINA RESULT:      -8.0      1.316      1.810
REMARK  Name = 
REMARK  7 active torsions:
REMARK  status: ('A' for Active; 'I' for Inactive)
REMARK    1  A    between atoms: C_1  and  O_2
REMARK    2  A    between atoms: O_2  and  C_3
REMARK    3  A    between atoms: C_5  and  C_6
REMARK    4  A    between atoms: N_14  and  C_15
REMARK    5  A    between atoms: C_15  and  C_16
REMARK    6  A    between atoms: C_26  and  N_27
REMARK    7  A    between atoms: C_30  and  C_31
REMARK                            x       y       z     vdW  Elec       q    Type
REMARK                         _______ _______ _______ _____ _____    ______ ____
ROOT
ATOM      1  C   UNL     1       0.075  10.606  21.759  0.00  0.00    +0.000 A 
ATOM      2  N   UNL     1       0.739   9.887  22.650  0.00  0.00    +0.000 NA
ATOM      3  N   UNL     1       1.497   8.950  21.992  0.00  0.00    +0.000 NA
ATOM      4  C   UNL     1       1.287   9.096  20.707  0.00  0.00    +0.000 A 
ATOM      5  N   UNL     1       0.371  10.098  20.518  0.00  0.00    +0.000 N 
ATOM      6  C   UNL     1      -0.140  10.468  19.217  0.00  0.00    +0.000 C 
ATOM      7  C   UNL     1       0.180   9.429  18.146  0.00  0.00    +0.000 C 
ATOM      8  C   UNL     1       1.622   8.957  18.306  0.00  0.00    +0.000 C 
ATOM      9  N   UNL     1       1.795   8.419  19.646  0.00  0.00    +0.000 N 
ENDROOT
BRANCH   1  12
ATOM     10  C   UNL     1      -2.958  12.523  22.956  0.00  0.00    +0.000 A 
ATOM     11  C   UNL     1      -2.116  11.501  22.478  0.00  0.00    +0.000 A 
ATOM     12  C   UNL     1      -0.784  11.745  22.099  0.00  0.00    +0.000 A 
ATOM     13  C   UNL     1      -0.314  13.054  22.157  0.00  0.00    +0.000 A 
ATOM     14  C   UNL     1      -1.145  14.085  22.590  0.00  0.00    +0.000 A 
ATOM     15  C   UNL     1      -2.464  13.837  23.011  0.00  0.00    +0.000 A 
BRANCH  15  16
ATOM     16  N   UNL     1      -3.211  14.945  23.502  0.00  0.00    +0.000 N 
ATOM     17  C   UNL     1      -3.140  15.590  24.716  0.00  0.00    +0.000 A 
ATOM     18  N   UNL     1      -4.072  16.514  24.856  0.00  0.00    +0.000 NA
ATOM     19  C   UNL     1      -4.766  16.511  23.677  0.00  0.00    +0.000 A 
ATOM     20  C   UNL     1      -5.918  17.407  23.435  0.00  0.00    +0.000 C 
ATOM     21  C   UNL     1      -4.225  15.586  22.815  0.00  0.00    +0.000 A 
ENDBRANCH  15  16
BRANCH  10  23
ATOM     22  C   UNL     1      -4.408  12.215  24.810  0.00  0.00    +0.000 C 
ATOM     23  O   UNL     1      -4.232  12.264  23.395  0.00  0.00    +0.000 OA
ENDBRANCH  10  23
ENDBRANCH   1  12
BRANCH   9  24
ATOM     24  C   UNL     1       2.747   7.342  19.874  0.00  0.00    +0.000 C 
BRANCH  24  25
ATOM     25  C   UNL     1       2.119   6.015  19.507  0.00  0.00    +0.000 A 
ATOM     26  C   UNL     1       2.051   5.606  18.163  0.00  0.00    +0.000 A 
ATOM     27  C   UNL     1       1.502   4.367  17.822  0.00  0.00    +0.000 A 
ATOM     28  C   UNL     1       1.033   3.526  18.824  0.00  0.00    +0.000 A 
ATOM     29  F   UNL     1       0.515   2.334  18.496  0.00  0.00    +0.000 F 
ATOM     30  C   UNL     1       1.104   3.913  20.156  0.00  0.00    +0.000 A 
ATOM     31  F   UNL     1       0.664   3.098  21.122  0.00  0.00    +0.000 F 
ATOM     32  C   UNL     1       1.641   5.150  20.503  0.00  0.00    +0.000 A 
ENDBRANCH  24  25
ENDBRANCH   9  24
TORSDOF 5
ENDMDL
MODEL 7
REMARK VINA RESULT:      -8.0      1.289      1.727
REMARK  Name = 
REMARK  7 active torsions:
REMARK  status: ('A' for Active; 'I' for Inactive)
REMARK    1  A    between atoms: C_1  and  O_2
REMARK    2  A    between atoms: O_2  and  C_3
REMARK    3  A    between atoms: C_5  and  C_6
REMARK    4  A    between atoms: N_14  and  C_15
REMARK    5  A    between atoms: C_15  and  C_16
REMARK    6  A    between atoms: C_26  and  N_27
REMARK    7  A    between atoms: C_30  and  C_31
REMARK                            x       y       z     vdW  Elec       q    Type
REMARK                         _______ _______ _______ _____ _____    ______ ____
ROOT
ATOM      1  C   UNL     1       0.323  10.413  21.353  0.00  0.00    +0.000 A 
ATOM      2  N   UNL     1       0.865   9.666  22.302  0.00  0.00    +0.000 NA
ATOM      3  N   UNL     1       1.610   8.672  21.716  0.00  0.00    +0.000 NA
ATOM      4  C   UNL     1       1.516   8.813  20.417  0.00  0.00    +0.000 A 
ATOM      5  N   UNL     1       0.686   9.870  20.145  0.00  0.00    +0.000 N 
ATOM      6  C   UNL     1       0.307  10.253  18.803  0.00  0.00    +0.000 C 
ATOM      7  C   UNL     1       0.644   9.180  17.772  0.00  0.00    +0.000 C 
ATOM      8  C   UNL     1       2.035   8.618  18.053  0.00  0.00    +0.000 C 
ATOM      9  N   UNL     1       2.062   8.089  19.408  0.00  0.00    +0.000 N 
ENDROOT
BRANCH   1  12
ATOM     10  C   UNL     1      -2.659  12.540  22.299  0.00  0.00    +0.000 A 
ATOM     11  C   UNL     1      -1.851  11.457  21.900  0.00  0.00    +0.000 A 
ATOM     12  C   UNL     1      -0.484  11.610  21.611  0.00  0.00    +0.000 A 
ATOM     13  C   UNL     1       0.062  12.889  21.678  0.00  0.00    +0.000 A 
ATOM     14  C   UNL     1      -0.731  13.978  22.031  0.00  0.00    +0.000 A 
ATOM     15  C   UNL     1      -2.087  13.821  22.364  0.00  0.00    +0.000 A 
BRANCH  15  16
ATOM     16  N   UNL     1      -2.796  14.985  22.782  0.00  0.00    +0.000 N 
ATOM     17  C   UNL     1      -3.373  15.984  22.032  0.00  0.00    +0.000 A 
ATOM     18  N   UNL     1      -3.852  16.964  22.775  0.00  0.00    +0.000 NA
ATOM     19  C   UNL     1      -3.620  16.585  24.069  0.00  0.00    +0.000 A 
ATOM     20  C   UNL     1      -4.001  17.432  25.221  0.00  0.00    +0.000 C 
ATOM     21  C   UNL     1      -3.013  15.352  24.096  0.00  0.00    +0.000 A 
ENDBRANCH  15  16
BRANCH  10  23
ATOM     22  C   UNL     1      -4.932  12.594  21.620  0.00  0.00    +0.000 C 
ATOM     23  O   UNL     1      -3.973  12.369  22.653  0.00  0.00    +0.000 OA
ENDBRANCH  10  23
ENDBRANCH   1  12
BRANCH   9  24
ATOM     24  C   UNL     1       2.921   6.957  19.723  0.00  0.00    +0.000 C 
BRANCH  24  25
ATOM     25  C   UNL     1       2.192   5.663  19.428  0.00  0.00    +0.000 A 
ATOM     26  C   UNL     1       2.062   5.205  18.104  0.00  0.00    +0.000 A 
ATOM     27  C   UNL     1       1.419   3.994  17.830  0.00  0.00    +0.000 A 
ATOM     28  C   UNL     1       0.919   3.231  18.878  0.00  0.00    +0.000 A 
ATOM     29  F   UNL     1       0.311   2.066  18.613  0.00  0.00    +0.000 F 
ATOM     30  C   UNL     1       1.050   3.668  20.190  0.00  0.00    +0.000 A 
ATOM     31  F   UNL     1       0.578   2.926  21.200  0.00  0.00    +0.000 F 
ATOM     32  C   UNL     1       1.680   4.876  20.471  0.00  0.00    +0.000 A 
ENDBRANCH  24  25
ENDBRANCH   9  24
TORSDOF 5
ENDMDL
MODEL 8
REMARK VINA RESULT:      -8.0      3.941      9.838
REMARK  Name = 
REMARK  7 active torsions:
REMARK  status: ('A' for Active; 'I' for Inactive)
REMARK    1  A    between atoms: C_1  and  O_2
REMARK    2  A    between atoms: O_2  and  C_3
REMARK    3  A    between atoms: C_5  and  C_6
REMARK    4  A    between atoms: N_14  and  C_15
REMARK    5  A    between atoms: C_15  and  C_16
REMARK    6  A    between atoms: C_26  and  N_27
REMARK    7  A    between atoms: C_30  and  C_31
REMARK                            x       y       z     vdW  Elec       q    Type
REMARK                         _______ _______ _______ _____ _____    ______ ____
ROOT
ATOM      1  C   UNL     1       0.661   9.845  20.571  0.00  0.00    +0.000 A 
ATOM      2  N   UNL     1       1.085  10.597  21.574  0.00  0.00    +0.000 NA
ATOM      3  N   UNL     1       0.309  11.728  21.642  0.00  0.00    +0.000 NA
ATOM      4  C   UNL     1      -0.578  11.664  20.680  0.00  0.00    +0.000 A 
ATOM      5  N   UNL     1      -0.368  10.517  19.959  0.00  0.00    +0.000 N 
ATOM      6  C   UNL     1      -1.128  10.175  18.778  0.00  0.00    +0.000 C 
ATOM      7  C   UNL     1      -1.933  11.355  18.238  0.00  0.00    +0.000 C 
ATOM      8  C   UNL     1      -2.594  12.096  19.396  0.00  0.00    +0.000 C 
ATOM      9  N   UNL     1      -1.562  12.529  20.326  0.00  0.00    +0.000 N 
ENDROOT
BRANCH   1  12
ATOM     10  C   UNL     1       2.520   7.155  18.668  0.00  0.00    +0.000 A 
ATOM     11  C   UNL     1       1.840   8.344  18.998  0.00  0.00    +0.000 A 
ATOM     12  C   UNL     1       1.213   8.527  20.243  0.00  0.00    +0.000 A 
ATOM     13  C   UNL     1       1.233   7.469  21.149  0.00  0.00    +0.000 A 
ATOM     14  C   UNL     1       1.865   6.272  20.824  0.00  0.00    +0.000 A 
ATOM     15  C   UNL     1       2.530   6.102  19.597  0.00  0.00    +0.000 A 
BRANCH  15  16
ATOM     16  N   UNL     1       3.208   4.867  19.388  0.00  0.00    +0.000 N 
ATOM     17  C   UNL     1       4.537   4.550  19.550  0.00  0.00    +0.000 A 
ATOM     18  N   UNL     1       4.820   3.324  19.152  0.00  0.00    +0.000 NA
ATOM     19  C   UNL     1       3.627   2.791  18.745  0.00  0.00    +0.000 A 
ATOM     20  C   UNL     1       3.518   1.417  18.205  0.00  0.00    +0.000 C 
ATOM     21  C   UNL     1       2.617   3.707  18.923  0.00  0.00    +0.000 A 
ENDBRANCH  15  16
BRANCH  10  23
ATOM     22  C   UNL     1       4.576   7.362  17.501  0.00  0.00    +0.000 C 
ATOM     23  O   UNL     1       3.193   7.014  17.481  0.00  0.00    +0.000 OA
ENDBRANCH  10  23
ENDBRANCH   1  12
BRANCH   9  24
ATOM     24  C   UNL     1      -1.750  13.751  21.093  0.00  0.00    +0.000 C 
BRANCH  24  25
ATOM     25  C   UNL     1      -2.995  13.636  21.946  0.00  0.00    +0.000 A 
ATOM     26  C   UNL     1      -4.173  14.315  21.584  0.00  0.00    +0.000 A 
ATOM     27  C   UNL     1      -5.334  14.186  22.351  0.00  0.00    +0.000 A 
ATOM     28  C   UNL     1      -5.326  13.366  23.473  0.00  0.00    +0.000 A 
ATOM     29  F   UNL     1      -6.444  13.236  24.202  0.00  0.00    +0.000 F 
ATOM     30  C   UNL     1      -4.173  12.682  23.836  0.00  0.00    +0.000 A 
ATOM     31  F   UNL     1      -4.170  11.883  24.910  0.00  0.00    +0.000 F 
ATOM     32  C   UNL     1      -3.010  12.812  23.083  0.00  0.00    +0.000 A 
ENDBRANCH  24  25
ENDBRANCH   9  24
TORSDOF 5
ENDMDL
MODEL 9
REMARK VINA RESULT:      -8.0      4.101     10.188
REMARK  Name = 
REMARK  7 active torsions:
REMARK  status: ('A' for Active; 'I' for Inactive)
REMARK    1  A    between atoms: C_1  and  O_2
REMARK    2  A    between atoms: O_2  and  C_3
REMARK    3  A    between atoms: C_5  and  C_6
REMARK    4  A    between atoms: N_14  and  C_15
REMARK    5  A    between atoms: C_15  and  C_16
REMARK    6  A    between atoms: C_26  and  N_27
REMARK    7  A    between atoms: C_30  and  C_31
REMARK                            x       y       z     vdW  Elec       q    Type
REMARK                         _______ _______ _______ _____ _____    ______ ____
ROOT
ATOM      1  C   UNL     1       0.263  10.009  19.473  0.00  0.00    +0.000 A 
ATOM      2  N   UNL     1      -0.384  10.662  18.522  0.00  0.00    +0.000 NA
ATOM      3  N   UNL     1      -1.237  11.568  19.104  0.00  0.00    +0.000 NA
ATOM      4  C   UNL     1      -1.109  11.460  20.403  0.00  0.00    +0.000 A 
ATOM      5  N   UNL     1      -0.207  10.466  20.680  0.00  0.00    +0.000 N 
ATOM      6  C   UNL     1       0.111  10.037  22.023  0.00  0.00    +0.000 C 
ATOM      7  C   UNL     1      -0.887  10.557  23.055  0.00  0.00    +0.000 C 
ATOM      8  C   UNL     1      -1.207  12.020  22.764  0.00  0.00    +0.000 C 
ATOM      9  N   UNL     1      -1.728  12.127  21.410  0.00  0.00    +0.000 N 
ENDROOT
BRANCH   1  12
ATOM     10  C   UNL     1       2.302   6.843  19.837  0.00  0.00    +0.000 A 
ATOM     11  C   UNL     1       1.426   7.915  20.093  0.00  0.00    +0.000 A 
ATOM     12  C   UNL     1       1.306   9.010  19.219  0.00  0.00    +0.000 A 
ATOM     13  C   UNL     1       2.124   9.042  18.093  0.00  0.00    +0.000 A 
ATOM     14  C   UNL     1       3.026   8.010  17.844  0.00  0.00    +0.000 A 
ATOM     15  C   UNL     1       3.116   6.894  18.694  0.00  0.00    +0.000 A 
BRANCH  15  16
ATOM     16  N   UNL     1       4.017   5.857  18.316  0.00  0.00    +0.000 N 
ATOM     17  C   UNL     1       4.943   5.173  19.071  0.00  0.00    +0.000 A 
ATOM     18  N   UNL     1       5.679   4.350  18.349  0.00  0.00    +0.000 NA
ATOM     19  C   UNL     1       5.201   4.461  17.071  0.00  0.00    +0.000 A 
ATOM     20  C   UNL     1       5.780   3.701  15.941  0.00  0.00    +0.000 C 
ATOM     21  C   UNL     1       4.151   5.349  17.038  0.00  0.00    +0.000 A 
ENDBRANCH  15  16
BRANCH  10  23
ATOM     22  C   UNL     1       1.316   4.783  20.485  0.00  0.00    +0.000 C 
ATOM     23  O   UNL     1       2.357   5.744  20.656  0.00  0.00    +0.000 OA
ENDBRANCH  10  23
ENDBRANCH   1  12
BRANCH   9  24
ATOM     24  C   UNL     1      -2.700  13.162  21.092  0.00  0.00    +0.000 C 
BRANCH  24  25
ATOM     25  C   UNL     1      -3.959  12.953  21.907  0.00  0.00    +0.000 A 
ATOM     26  C   UNL     1      -3.930  13.084  23.307  0.00  0.00    +0.000 A 
ATOM     27  C   UNL     1      -5.097  12.924  24.061  0.00  0.00    +0.000 A 
ATOM     28  C   UNL     1      -6.296  12.647  23.417  0.00  0.00    +0.000 A 
ATOM     29  F   UNL     1      -7.416  12.504  24.140  0.00  0.00    +0.000 F 
ATOM     30  C   UNL     1      -6.339  12.526  22.034  0.00  0.00    +0.000 A 
ATOM     31  F   UNL     1      -7.498  12.272  21.412  0.00  0.00    +0.000 F 
ATOM     32  C   UNL     1      -5.181  12.675  21.276  0.00  0.00    +0.000 A 
ENDBRANCH  24  25
ENDBRANCH   9  24
TORSDOF 5
ENDMDL
