MODEL 1
REMARK VINA RESULT:      -9.0      0.000      0.000
REMARK  Name = 
REMARK  4 active torsions:
REMARK  status: ('A' for Active; 'I' for Inactive)
REMARK    1  A    between atoms: N_1  and  C_2
REMARK    2  A    between atoms: C_7  and  N_8
REMARK    3  A    between atoms: C_17  and  O_18
REMARK    4  A    between atoms: C_17  and  C_19
REMARK                            x       y       z     vdW  Elec       q    Type
REMARK                         _______ _______ _______ _____ _____    ______ ____
ROOT
ATOM      1  N   UNL     1       4.064   5.105  18.348  0.00  0.00    +0.000 N 
ATOM      2  C   UNL     1       4.490   4.128  19.213  0.00  0.00    +0.000 C 
ATOM      3  O   UNL     1       5.629   3.702  19.292  0.00  0.00    +0.000 OA
ATOM      4  C   UNL     1       3.388   3.612  20.006  0.00  0.00    +0.000 A 
ATOM      5  C   UNL     1       3.349   2.654  21.023  0.00  0.00    +0.000 A 
ATOM      6  C   UNL     1       2.103   2.363  21.613  0.00  0.00    +0.000 A 
ATOM      7  C   UNL     1       0.936   3.018  21.172  0.00  0.00    +0.000 A 
ATOM      8  C   UNL     1       1.008   3.969  20.144  0.00  0.00    +0.000 A 
ATOM      9  C   UNL     1       2.255   4.248  19.583  0.00  0.00    +0.000 A 
ATOM     10  C   UNL     1       2.598   5.237  18.510  0.00  0.00    +0.000 C 
ENDROOT
BRANCH  10  11
ATOM     11  C   UNL     1       2.173   6.607  19.009  0.00  0.00    +0.000 A 
ATOM     12  C   UNL     1       2.061   7.673  18.095  0.00  0.00    +0.000 A 
ATOM     13  C   UNL     1       1.652   8.935  18.519  0.00  0.00    +0.000 A 
ATOM     14  C   UNL     1       1.364   9.160  19.871  0.00  0.00    +0.000 A 
ATOM     15 CL   UNL     1       0.842  10.745  20.398  0.00  0.00    +0.000 Cl
ATOM     16  C   UNL     1       1.494   8.118  20.791  0.00  0.00    +0.000 A 
ATOM     17  C   UNL     1       1.895   6.848  20.369  0.00  0.00    +0.000 A 
ENDBRANCH  10  11
BRANCH   1  23
ATOM     18  C   UNL     1       5.175   5.028  15.993  0.00  0.00    +0.000 C 
ATOM     19  C   UNL     1       6.345   4.020  16.200  0.00  0.00    +0.000 C 
ATOM     20  C   UNL     1       7.593   4.682  16.797  0.00  0.00    +0.000 C 
ATOM     21  C   UNL     1       7.233   5.400  18.101  0.00  0.00    +0.000 C 
ATOM     22  C   UNL     1       6.155   6.465  17.837  0.00  0.00    +0.000 C 
ATOM     23  C   UNL     1       4.837   5.832  17.297  0.00  0.00    +0.000 C 
BRANCH  18  24
ATOM     24  N   UNL     1       5.490   5.959  14.898  0.00  0.00    +0.000 NA
ATOM     25  H   UNL     1       6.174   6.678  15.230  0.00  0.00    +0.000 HD
ATOM     26  H   UNL     1       4.652   6.462  14.537  0.00  0.00    +0.000 HD
ENDBRANCH  18  24
ENDBRANCH   1  23
BRANCH  10  27
ATOM     27  O   UNL     1       1.942   4.894  17.311  0.00  0.00    +0.000 OA
ATOM     28  H   UNL     1       1.054   5.340  17.315  0.00  0.00    +0.000 HD
ENDBRANCH  10  27
TORSDOF 4
ENDMDL
MODEL 2
REMARK VINA RESULT:      -8.8      0.653      1.272
REMARK  Name = 
REMARK  4 active torsions:
REMARK  status: ('A' for Active; 'I' for Inactive)
REMARK    1  A    between atoms: N_1  and  C_2
REMARK    2  A    between atoms: C_7  and  N_8
REMARK    3  A    between atoms: C_17  and  O_18
REMARK    4  A    between atoms: C_17  and  C_19
REMARK                            x       y       z     vdW  Elec       q    Type
REMARK                         _______ _______ _______ _____ _____    ______ ____
ROOT
ATOM      1  N   UNL     1       3.978   4.646  17.952  0.00  0.00    +0.000 N 
ATOM      2  C   UNL     1       4.462   3.788  18.908  0.00  0.00    +0.000 C 
ATOM      3  O   UNL     1       5.596   3.345  18.953  0.00  0.00    +0.000 OA
ATOM      4  C   UNL     1       3.423   3.419  19.855  0.00  0.00    +0.000 A 
ATOM      5  C   UNL     1       3.456   2.614  20.998  0.00  0.00    +0.000 A 
ATOM      6  C   UNL     1       2.261   2.444  21.724  0.00  0.00    +0.000 A 
ATOM      7  C   UNL     1       1.072   3.063  21.293  0.00  0.00    +0.000 A 
ATOM      8  C   UNL     1       1.070   3.858  20.139  0.00  0.00    +0.000 A 
ATOM      9  C   UNL     1       2.269   4.021  19.442  0.00  0.00    +0.000 A 
ATOM     10  C   UNL     1       2.534   4.841  18.215  0.00  0.00    +0.000 C 
ENDROOT
BRANCH  10  11
ATOM     11  C   UNL     1       2.176   6.278  18.548  0.00  0.00    +0.000 A 
ATOM     12  C   UNL     1       2.140   6.690  19.894  0.00  0.00    +0.000 A 
ATOM     13  C   UNL     1       1.837   8.007  20.228  0.00  0.00    +0.000 A 
ATOM     14  C   UNL     1       1.545   8.936  19.221  0.00  0.00    +0.000 A 
ATOM     15 CL   UNL     1       1.173  10.592  19.645  0.00  0.00    +0.000 Cl
ATOM     16  C   UNL     1       1.554   8.535  17.884  0.00  0.00    +0.000 A 
ATOM     17  C   UNL     1       1.867   7.217  17.543  0.00  0.00    +0.000 A 
ENDBRANCH  10  11
BRANCH   1  23
ATOM     18  C   UNL     1       5.898   4.382  16.211  0.00  0.00    +0.000 C 
ATOM     19  C   UNL     1       7.176   4.589  17.078  0.00  0.00    +0.000 C 
ATOM     20  C   UNL     1       7.520   6.071  17.274  0.00  0.00    +0.000 C 
ATOM     21  C   UNL     1       6.317   6.816  17.860  0.00  0.00    +0.000 C 
ATOM     22  C   UNL     1       5.106   6.683  16.921  0.00  0.00    +0.000 C 
ATOM     23  C   UNL     1       4.669   5.197  16.748  0.00  0.00    +0.000 C 
BRANCH  18  24
ATOM     24  N   UNL     1       6.166   4.745  14.810  0.00  0.00    +0.000 NA
ATOM     25  H   UNL     1       7.013   4.235  14.468  0.00  0.00    +0.000 HD
ATOM     26  H   UNL     1       6.336   5.765  14.679  0.00  0.00    +0.000 HD
ENDBRANCH  18  24
ENDBRANCH   1  23
BRANCH  10  27
ATOM     27  O   UNL     1       1.771   4.352  17.135  0.00  0.00    +0.000 OA
ATOM     28  H   UNL     1       1.336   3.509  17.430  0.00  0.00    +0.000 HD
ENDBRANCH  10  27
TORSDOF 4
ENDMDL
MODEL 3
REMARK VINA RESULT:      -8.4      1.311      1.539
REMARK  Name = 
REMARK  4 active torsions:
REMARK  status: ('A' for Active; 'I' for Inactive)
REMARK    1  A    between atoms: N_1  and  C_2
REMARK    2  A    between atoms: C_7  and  N_8
REMARK    3  A    between atoms: C_17  and  O_18
REMARK    4  A    between atoms: C_17  and  C_19
REMARK                            x       y       z     vdW  Elec       q    Type
REMARK                         _______ _______ _______ _____ _____    ______ ____
ROOT
ATOM      1  N   UNL     1       4.774   5.089  18.620  0.00  0.00    +0.000 N 
ATOM      2  C   UNL     1       4.676   3.912  19.317  0.00  0.00    +0.000 C 
ATOM      3  O   UNL     1       5.591   3.357  19.899  0.00  0.00    +0.000 OA
ATOM      4  C   UNL     1       3.333   3.364  19.236  0.00  0.00    +0.000 A 
ATOM      5  C   UNL     1       2.762   2.224  19.810  0.00  0.00    +0.000 A 
ATOM      6  C   UNL     1       1.406   1.953  19.540  0.00  0.00    +0.000 A 
ATOM      7  C   UNL     1       0.662   2.811  18.706  0.00  0.00    +0.000 A 
ATOM      8  C   UNL     1       1.265   3.942  18.141  0.00  0.00    +0.000 A 
ATOM      9  C   UNL     1       2.607   4.195  18.431  0.00  0.00    +0.000 A 
ATOM     10  C   UNL     1       3.460   5.344  17.986  0.00  0.00    +0.000 C 
ENDROOT
BRANCH  10  11
ATOM     11  C   UNL     1       2.795   6.617  18.480  0.00  0.00    +0.000 A 
ATOM     12  C   UNL     1       2.577   7.680  17.582  0.00  0.00    +0.000 A 
ATOM     13  C   UNL     1       1.950   8.849  18.001  0.00  0.00    +0.000 A 
ATOM     14  C   UNL     1       1.543   8.987  19.334  0.00  0.00    +0.000 A 
ATOM     15 CL   UNL     1       0.747  10.456  19.854  0.00  0.00    +0.000 Cl
ATOM     16  C   UNL     1       1.774   7.950  20.241  0.00  0.00    +0.000 A 
ATOM     17  C   UNL     1       2.395   6.771  19.822  0.00  0.00    +0.000 A 
ENDBRANCH  10  11
BRANCH   1  23
ATOM     18  C   UNL     1       5.924   6.874  17.110  0.00  0.00    +0.000 C 
ATOM     19  C   UNL     1       6.141   6.102  15.774  0.00  0.00    +0.000 C 
ATOM     20  C   UNL     1       7.418   5.251  15.788  0.00  0.00    +0.000 C 
ATOM     21  C   UNL     1       7.403   4.302  16.990  0.00  0.00    +0.000 C 
ATOM     22  C   UNL     1       7.300   5.106  18.296  0.00  0.00    +0.000 C 
ATOM     23  C   UNL     1       5.980   5.932  18.364  0.00  0.00    +0.000 C 
BRANCH  18  24
ATOM     24  N   UNL     1       6.919   7.950  17.246  0.00  0.00    +0.000 NA
ATOM     25  H   UNL     1       7.843   7.626  16.880  0.00  0.00    +0.000 HD
ATOM     26  H   UNL     1       7.057   8.253  18.233  0.00  0.00    +0.000 HD
ENDBRANCH  18  24
ENDBRANCH   1  23
BRANCH  10  27
ATOM     27  O   UNL     1       3.586   5.336  16.582  0.00  0.00    +0.000 OA
ATOM     28  H   UNL     1       2.749   4.954  16.207  0.00  0.00    +0.000 HD
ENDBRANCH  10  27
TORSDOF 4
ENDMDL
MODEL 4
REMARK VINA RESULT:      -7.8      1.699      4.925
REMARK  Name = 
REMARK  4 active torsions:
REMARK  status: ('A' for Active; 'I' for Inactive)
REMARK    1  A    between atoms: N_1  and  C_2
REMARK    2  A    between atoms: C_7  and  N_8
REMARK    3  A    between atoms: C_17  and  O_18
REMARK    4  A    between atoms: C_17  and  C_19
REMARK                            x       y       z     vdW  Elec       q    Type
REMARK                         _______ _______ _______ _____ _____    ______ ____
ROOT
ATOM      1  N   UNL     1       3.212   4.546  18.850  0.00  0.00    +0.000 N 
ATOM      2  C   UNL     1       3.553   3.874  17.703  0.00  0.00    +0.000 C 
ATOM      3  O   UNL     1       3.206   2.742  17.418  0.00  0.00    +0.000 OA
ATOM      4  C   UNL     1       4.441   4.669  16.873  0.00  0.00    +0.000 A 
ATOM      5  C   UNL     1       5.008   4.419  15.619  0.00  0.00    +0.000 A 
ATOM      6  C   UNL     1       5.844   5.405  15.060  0.00  0.00    +0.000 A 
ATOM      7  C   UNL     1       6.102   6.600  15.761  0.00  0.00    +0.000 A 
ATOM      8  C   UNL     1       5.524   6.818  17.019  0.00  0.00    +0.000 A 
ATOM      9  C   UNL     1       4.690   5.831  17.547  0.00  0.00    +0.000 A 
ATOM     10  C   UNL     1       3.932   5.840  18.840  0.00  0.00    +0.000 C 
ENDROOT
BRANCH  10  11
ATOM     11  C   UNL     1       3.003   7.041  18.809  0.00  0.00    +0.000 A 
ATOM     12  C   UNL     1       2.289   7.396  19.970  0.00  0.00    +0.000 A 
ATOM     13  C   UNL     1       1.448   8.505  19.978  0.00  0.00    +0.000 A 
ATOM     14  C   UNL     1       1.289   9.272  18.817  0.00  0.00    +0.000 A 
ATOM     15 CL   UNL     1       0.237  10.670  18.834  0.00  0.00    +0.000 Cl
ATOM     16  C   UNL     1       1.973   8.917  17.652  0.00  0.00    +0.000 A 
ATOM     17  C   UNL     1       2.826   7.811  17.642  0.00  0.00    +0.000 A 
ENDBRANCH  10  11
BRANCH   1  23
ATOM     18  C   UNL     1       2.778   2.665  20.598  0.00  0.00    +0.000 C 
ATOM     19  C   UNL     1       2.253   1.492  19.715  0.00  0.00    +0.000 C 
ATOM     20  C   UNL     1       0.752   1.604  19.422  0.00  0.00    +0.000 C 
ATOM     21  C   UNL     1       0.440   2.965  18.792  0.00  0.00    +0.000 C 
ATOM     22  C   UNL     1       0.869   4.097  19.741  0.00  0.00    +0.000 C 
ATOM     23  C   UNL     1       2.404   4.071  20.012  0.00  0.00    +0.000 C 
BRANCH  18  24
ATOM     24  N   UNL     1       2.262   2.540  21.971  0.00  0.00    +0.000 NA
ATOM     25  H   UNL     1       1.441   3.175  22.100  0.00  0.00    +0.000 HD
ATOM     26  H   UNL     1       2.970   2.787  22.695  0.00  0.00    +0.000 HD
ENDBRANCH  18  24
ENDBRANCH   1  23
BRANCH  10  27
ATOM     27  O   UNL     1       4.830   5.906  19.925  0.00  0.00    +0.000 OA
ATOM     28  H   UNL     1       4.420   6.484  20.621  0.00  0.00    +0.000 HD
ENDBRANCH  10  27
TORSDOF 4
ENDMDL
MODEL 5
REMARK VINA RESULT:      -7.7      3.535      6.350
REMARK  Name = 
REMARK  4 active torsions:
REMARK  status: ('A' for Active; 'I' for Inactive)
REMARK    1  A    between atoms: N_1  and  C_2
REMARK    2  A    between atoms: C_7  and  N_8
REMARK    3  A    between atoms: C_17  and  O_18
REMARK    4  A    between atoms: C_17  and  C_19
REMARK                            x       y       z     vdW  Elec       q    Type
REMARK                         _______ _______ _______ _____ _____    ______ ____
ROOT
ATOM      1  N   UNL     1       4.555   4.507  17.785  0.00  0.00    +0.000 N 
ATOM      2  C   UNL     1       5.340   4.465  18.909  0.00  0.00    +0.000 C 
ATOM      3  O   UNL     1       5.146   3.756  19.881  0.00  0.00    +0.000 OA
ATOM      4  C   UNL     1       6.427   5.425  18.826  0.00  0.00    +0.000 A 
ATOM      5  C   UNL     1       7.481   5.708  19.700  0.00  0.00    +0.000 A 
ATOM      6  C   UNL     1       8.396   6.715  19.334  0.00  0.00    +0.000 A 
ATOM      7  C   UNL     1       8.233   7.416  18.123  0.00  0.00    +0.000 A 
ATOM      8  C   UNL     1       7.163   7.114  17.271  0.00  0.00    +0.000 A 
ATOM      9  C   UNL     1       6.276   6.104  17.651  0.00  0.00    +0.000 A 
ATOM     10  C   UNL     1       5.087   5.575  16.907  0.00  0.00    +0.000 C 
ENDROOT
BRANCH  10  11
ATOM     11  C   UNL     1       5.587   5.056  15.570  0.00  0.00    +0.000 A 
ATOM     12  C   UNL     1       6.936   5.248  15.212  0.00  0.00    +0.000 A 
ATOM     13  C   UNL     1       7.428   4.763  14.004  0.00  0.00    +0.000 A 
ATOM     14  C   UNL     1       6.575   4.091  13.119  0.00  0.00    +0.000 A 
ATOM     15 CL   UNL     1       7.200   3.476  11.605  0.00  0.00    +0.000 Cl
ATOM     16  C   UNL     1       5.230   3.914  13.451  0.00  0.00    +0.000 A 
ATOM     17  C   UNL     1       4.734   4.390  14.668  0.00  0.00    +0.000 A 
ENDBRANCH  10  11
BRANCH   1  23
ATOM     18  C   UNL     1       2.010   4.232  18.267  0.00  0.00    +0.000 C 
ATOM     19  C   UNL     1       1.993   3.740  19.745  0.00  0.00    +0.000 C 
ATOM     20  C   UNL     1       2.207   2.225  19.862  0.00  0.00    +0.000 C 
ATOM     21  C   UNL     1       3.501   1.821  19.149  0.00  0.00    +0.000 C 
ATOM     22  C   UNL     1       3.435   2.223  17.666  0.00  0.00    +0.000 C 
ATOM     23  C   UNL     1       3.292   3.766  17.492  0.00  0.00    +0.000 C 
BRANCH  18  24
ATOM     24  N   UNL     1       0.803   3.772  17.561  0.00  0.00    +0.000 NA
ATOM     25  H   UNL     1       0.172   3.270  18.228  0.00  0.00    +0.000 HD
ATOM     26  H   UNL     1       1.014   3.123  16.774  0.00  0.00    +0.000 HD
ENDBRANCH  18  24
ENDBRANCH   1  23
BRANCH  10  27
ATOM     27  O   UNL     1       4.128   6.594  16.742  0.00  0.00    +0.000 OA
ATOM     28  H   UNL     1       4.611   7.425  16.490  0.00  0.00    +0.000 HD
ENDBRANCH  10  27
TORSDOF 4
ENDMDL
MODEL 6
REMARK VINA RESULT:      -7.6      2.513      6.060
REMARK  Name = 
REMARK  4 active torsions:
REMARK  status: ('A' for Active; 'I' for Inactive)
REMARK    1  A    between atoms: N_1  and  C_2
REMARK    2  A    between atoms: C_7  and  N_8
REMARK    3  A    between atoms: C_17  and  O_18
REMARK    4  A    between atoms: C_17  and  C_19
REMARK                            x       y       z     vdW  Elec       q    Type
REMARK                         _______ _______ _______ _____ _____    ______ ____
ROOT
ATOM      1  N   UNL     1       5.205   4.398  17.674  0.00  0.00    +0.000 N 
ATOM      2  C   UNL     1       4.479   4.119  16.543  0.00  0.00    +0.000 C 
ATOM      3  O   UNL     1       3.312   3.772  16.520  0.00  0.00    +0.000 OA
ATOM      4  C   UNL     1       5.299   4.240  15.350  0.00  0.00    +0.000 A 
ATOM      5  C   UNL     1       4.989   4.093  13.995  0.00  0.00    +0.000 A 
ATOM      6  C   UNL     1       6.021   4.277  13.054  0.00  0.00    +0.000 A 
ATOM      7  C   UNL     1       7.326   4.591  13.482  0.00  0.00    +0.000 A 
ATOM      8  C   UNL     1       7.607   4.726  14.848  0.00  0.00    +0.000 A 
ATOM      9  C   UNL     1       6.565   4.549  15.761  0.00  0.00    +0.000 A 
ATOM     10  C   UNL     1       6.599   4.673  17.254  0.00  0.00    +0.000 C 
ENDROOT
BRANCH  10  11
ATOM     11  C   UNL     1       7.052   6.086  17.578  0.00  0.00    +0.000 A 
ATOM     12  C   UNL     1       8.026   6.290  18.574  0.00  0.00    +0.000 A 
ATOM     13  C   UNL     1       8.477   7.572  18.877  0.00  0.00    +0.000 A 
ATOM     14  C   UNL     1       7.949   8.679  18.200  0.00  0.00    +0.000 A 
ATOM     15 CL   UNL     1       8.526  10.287  18.578  0.00  0.00    +0.000 Cl
ATOM     16  C   UNL     1       6.966   8.492  17.227  0.00  0.00    +0.000 A 
ATOM     17  C   UNL     1       6.516   7.207  16.913  0.00  0.00    +0.000 A 
ENDBRANCH  10  11
BRANCH   1  23
ATOM     18  C   UNL     1       3.938   3.050  19.508  0.00  0.00    +0.000 C 
ATOM     19  C   UNL     1       2.453   3.162  19.050  0.00  0.00    +0.000 C 
ATOM     20  C   UNL     1       1.792   4.467  19.514  0.00  0.00    +0.000 C 
ATOM     21  C   UNL     1       2.618   5.669  19.044  0.00  0.00    +0.000 C 
ATOM     22  C   UNL     1       4.046   5.581  19.608  0.00  0.00    +0.000 C 
ATOM     23  C   UNL     1       4.788   4.306  19.105  0.00  0.00    +0.000 C 
BRANCH  18  24
ATOM     24  N   UNL     1       4.010   2.843  20.964  0.00  0.00    +0.000 NA
ATOM     25  H   UNL     1       3.055   2.638  21.339  0.00  0.00    +0.000 HD
ATOM     26  H   UNL     1       4.381   3.671  21.475  0.00  0.00    +0.000 HD
ENDBRANCH  18  24
ENDBRANCH   1  23
BRANCH  10  27
ATOM     27  O   UNL     1       7.471   3.710  17.799  0.00  0.00    +0.000 OA
ATOM     28  H   UNL     1       8.058   4.172  18.455  0.00  0.00    +0.000 HD
ENDBRANCH  10  27
TORSDOF 4
ENDMDL
MODEL 7
REMARK VINA RESULT:      -7.3      9.687     11.520
REMARK  Name = 
REMARK  4 active torsions:
REMARK  status: ('A' for Active; 'I' for Inactive)
REMARK    1  A    between atoms: N_1  and  C_2
REMARK    2  A    between atoms: C_7  and  N_8
REMARK    3  A    between atoms: C_17  and  O_18
REMARK    4  A    between atoms: C_17  and  C_19
REMARK                            x       y       z     vdW  Elec       q    Type
REMARK                         _______ _______ _______ _____ _____    ______ ____
ROOT
ATOM      1  N   UNL     1       9.322  14.558  18.235  0.00  0.00    +0.000 N 
ATOM      2  C   UNL     1       8.162  13.959  17.815  0.00  0.00    +0.000 C 
ATOM      3  O   UNL     1       8.087  12.891  17.234  0.00  0.00    +0.000 OA
ATOM      4  C   UNL     1       7.007  14.793  18.103  0.00  0.00    +0.000 A 
ATOM      5  C   UNL     1       5.640  14.584  17.897  0.00  0.00    +0.000 A 
ATOM      6  C   UNL     1       4.747  15.600  18.291  0.00  0.00    +0.000 A 
ATOM      7  C   UNL     1       5.233  16.791  18.866  0.00  0.00    +0.000 A 
ATOM      8  C   UNL     1       6.610  16.972  19.054  0.00  0.00    +0.000 A 
ATOM      9  C   UNL     1       7.474  15.947  18.665  0.00  0.00    +0.000 A 
ATOM     10  C   UNL     1       8.966  15.883  18.792  0.00  0.00    +0.000 C 
ENDROOT
BRANCH  10  11
ATOM     11  C   UNL     1       9.299  16.020  20.268  0.00  0.00    +0.000 A 
ATOM     12  C   UNL     1       8.663  15.180  21.203  0.00  0.00    +0.000 A 
ATOM     13  C   UNL     1       8.965  15.268  22.559  0.00  0.00    +0.000 A 
ATOM     14  C   UNL     1       9.896  16.211  23.010  0.00  0.00    +0.000 A 
ATOM     15 CL   UNL     1      10.278  16.312  24.715  0.00  0.00    +0.000 Cl
ATOM     16  C   UNL     1      10.516  17.066  22.096  0.00  0.00    +0.000 A 
ATOM     17  C   UNL     1      10.224  16.976  20.733  0.00  0.00    +0.000 A 
ENDBRANCH  10  11
BRANCH   1  23
ATOM     18  C   UNL     1      10.945  12.791  17.221  0.00  0.00    +0.000 C 
ATOM     19  C   UNL     1      10.597  11.504  18.028  0.00  0.00    +0.000 C 
ATOM     20  C   UNL     1      11.327  11.440  19.376  0.00  0.00    +0.000 C 
ATOM     21  C   UNL     1      11.041  12.708  20.187  0.00  0.00    +0.000 C 
ATOM     22  C   UNL     1      11.501  13.950  19.406  0.00  0.00    +0.000 C 
ATOM     23  C   UNL     1      10.733  14.100  18.058  0.00  0.00    +0.000 C 
BRANCH  18  24
ATOM     24  N   UNL     1      12.332  12.727  16.731  0.00  0.00    +0.000 NA
ATOM     25  H   UNL     1      12.838  11.942  17.201  0.00  0.00    +0.000 HD
ATOM     26  H   UNL     1      12.868  13.602  16.912  0.00  0.00    +0.000 HD
ENDBRANCH  18  24
ENDBRANCH   1  23
BRANCH  10  27
ATOM     27  O   UNL     1       9.560  16.908  18.029  0.00  0.00    +0.000 OA
ATOM     28  H   UNL     1       9.055  17.746  18.205  0.00  0.00    +0.000 HD
ENDBRANCH  10  27
TORSDOF 4
ENDMDL
MODEL 8
REMARK VINA RESULT:      -7.3      1.596      4.795
REMARK  Name = 
REMARK  4 active torsions:
REMARK  status: ('A' for Active; 'I' for Inactive)
REMARK    1  A    between atoms: N_1  and  C_2
REMARK    2  A    between atoms: C_7  and  N_8
REMARK    3  A    between atoms: C_17  and  O_18
REMARK    4  A    between atoms: C_17  and  C_19
REMARK                            x       y       z     vdW  Elec       q    Type
REMARK                         _______ _______ _______ _____ _____    ______ ____
ROOT
ATOM      1  N   UNL     1       3.281   4.516  18.172  0.00  0.00    +0.000 N 
ATOM      2  C   UNL     1       4.066   4.170  17.101  0.00  0.00    +0.000 C 
ATOM      3  O   UNL     1       3.902   3.195  16.389  0.00  0.00    +0.000 OA
ATOM      4  C   UNL     1       5.175   5.096  16.943  0.00  0.00    +0.000 A 
ATOM      5  C   UNL     1       6.193   5.167  15.988  0.00  0.00    +0.000 A 
ATOM      6  C   UNL     1       7.141   6.202  16.103  0.00  0.00    +0.000 A 
ATOM      7  C   UNL     1       7.059   7.127  17.164  0.00  0.00    +0.000 A 
ATOM      8  C   UNL     1       6.030   7.025  18.109  0.00  0.00    +0.000 A 
ATOM      9  C   UNL     1       5.096   5.997  17.967  0.00  0.00    +0.000 A 
ATOM     10  C   UNL     1       3.896   5.699  18.815  0.00  0.00    +0.000 C 
ENDROOT
BRANCH  10  11
ATOM     11  C   UNL     1       3.005   6.929  18.781  0.00  0.00    +0.000 A 
ATOM     12  C   UNL     1       2.330   7.328  19.951  0.00  0.00    +0.000 A 
ATOM     13  C   UNL     1       1.525   8.464  19.956  0.00  0.00    +0.000 A 
ATOM     14  C   UNL     1       1.363   9.213  18.783  0.00  0.00    +0.000 A 
ATOM     15 CL   UNL     1       0.356  10.644  18.796  0.00  0.00    +0.000 Cl
ATOM     16  C   UNL     1       2.007   8.814  17.610  0.00  0.00    +0.000 A 
ATOM     17  C   UNL     1       2.824   7.680  17.603  0.00  0.00    +0.000 A 
ENDBRANCH  10  11
BRANCH   1  23
ATOM     18  C   UNL     1       1.501   4.381  20.070  0.00  0.00    +0.000 C 
ATOM     19  C   UNL     1       2.362   4.035  21.321  0.00  0.00    +0.000 C 
ATOM     20  C   UNL     1       2.645   2.532  21.443  0.00  0.00    +0.000 C 
ATOM     21  C   UNL     1       3.292   2.014  20.155  0.00  0.00    +0.000 C 
ATOM     22  C   UNL     1       2.363   2.273  18.957  0.00  0.00    +0.000 C 
ATOM     23  C   UNL     1       2.104   3.796  18.745  0.00  0.00    +0.000 C 
BRANCH  18  24
ATOM     24  N   UNL     1       0.122   3.900  20.249  0.00  0.00    +0.000 NA
ATOM     25  H   UNL     1       0.072   3.269  21.082  0.00  0.00    +0.000 HD
ATOM     26  H   UNL     1      -0.233   3.367  19.427  0.00  0.00    +0.000 HD
ENDBRANCH  18  24
ENDBRANCH   1  23
BRANCH  10  27
ATOM     27  O   UNL     1       4.299   5.386  20.129  0.00  0.00    +0.000 OA
ATOM     28  H   UNL     1       4.890   4.589  20.080  0.00  0.00    +0.000 HD
ENDBRANCH  10  27
TORSDOF 4
ENDMDL
MODEL 9
REMARK VINA RESULT:      -7.2      5.140      8.518
REMARK  Name = 
REMARK  4 active torsions:
REMARK  status: ('A' for Active; 'I' for Inactive)
REMARK    1  A    between atoms: N_1  and  C_2
REMARK    2  A    between atoms: C_7  and  N_8
REMARK    3  A    between atoms: C_17  and  O_18
REMARK    4  A    between atoms: C_17  and  C_19
REMARK                            x       y       z     vdW  Elec       q    Type
REMARK                         _______ _______ _______ _____ _____    ______ ____
ROOT
ATOM      1  N   UNL     1       0.236  12.113  19.343  0.00  0.00    +0.000 N 
ATOM      2  C   UNL     1      -0.572  12.659  18.377  0.00  0.00    +0.000 C 
ATOM      3  O   UNL     1      -0.496  13.798  17.953  0.00  0.00    +0.000 OA
ATOM      4  C   UNL     1      -1.587  11.713  17.946  0.00  0.00    +0.000 A 
ATOM      5  C   UNL     1      -2.588  11.808  16.975  0.00  0.00    +0.000 A 
ATOM      6  C   UNL     1      -3.434  10.698  16.784  0.00  0.00    +0.000 A 
ATOM      7  C   UNL     1      -3.272   9.536  17.565  0.00  0.00    +0.000 A 
ATOM      8  C   UNL     1      -2.263   9.475  18.535  0.00  0.00    +0.000 A 
ATOM      9  C   UNL     1      -1.430  10.583  18.698  0.00  0.00    +0.000 A 
ATOM     10  C   UNL     1      -0.269  10.751  19.631  0.00  0.00    +0.000 C 
ENDROOT
BRANCH  10  11
ATOM     11  C   UNL     1       0.735   9.659  19.302  0.00  0.00    +0.000 A 
ATOM     12  C   UNL     1       1.086   8.719  20.290  0.00  0.00    +0.000 A 
ATOM     13  C   UNL     1       1.985   7.694  20.010  0.00  0.00    +0.000 A 
ATOM     14  C   UNL     1       2.567   7.600  18.740  0.00  0.00    +0.000 A 
ATOM     15 CL   UNL     1       3.691   6.305  18.391  0.00  0.00    +0.000 Cl
ATOM     16  C   UNL     1       2.246   8.540  17.758  0.00  0.00    +0.000 A 
ATOM     17  C   UNL     1       1.336   9.565  18.031  0.00  0.00    +0.000 A 
ENDBRANCH  10  11
BRANCH   1  23
ATOM     18  C   UNL     1       0.965  14.060  20.911  0.00  0.00    +0.000 C 
ATOM     19  C   UNL     1       0.850  15.308  19.984  0.00  0.00    +0.000 C 
ATOM     20  C   UNL     1       2.096  15.508  19.112  0.00  0.00    +0.000 C 
ATOM     21  C   UNL     1       2.384  14.236  18.309  0.00  0.00    +0.000 C 
ATOM     22  C   UNL     1       2.603  13.049  19.262  0.00  0.00    +0.000 C 
ATOM     23  C   UNL     1       1.336  12.757  20.122  0.00  0.00    +0.000 C 
BRANCH  18  24
ATOM     24  N   UNL     1       1.956  14.303  21.973  0.00  0.00    +0.000 NA
ATOM     25  H   UNL     1       2.920  14.144  21.600  0.00  0.00    +0.000 HD
ATOM     26  H   UNL     1       1.829  13.679  22.798  0.00  0.00    +0.000 HD
ENDBRANCH  18  24
ENDBRANCH   1  23
BRANCH  10  27
ATOM     27  O   UNL     1      -0.708  10.667  20.968  0.00  0.00    +0.000 OA
ATOM     28  H   UNL     1      -1.607  10.244  20.963  0.00  0.00    +0.000 HD
ENDBRANCH  10  27
TORSDOF 4
ENDMDL
