MODEL 1
REMARK VINA RESULT:      -8.2      0.000      0.000
REMARK  Name = 
REMARK  5 active torsions:
REMARK  status: ('A' for Active; 'I' for Inactive)
REMARK    1  A    between atoms: C_1  and  C_2
REMARK    2  A    between atoms: C_2  and  C_3
REMARK    3  A    between atoms: C_2  and  C_4
REMARK    4  A    between atoms: C_7  and  C_8
REMARK    5  A    between atoms: C_10  and  C_11
REMARK                            x       y       z     vdW  Elec       q    Type
REMARK                         _______ _______ _______ _____ _____    ______ ____
ROOT
ATOM      1  C   UNL     1       4.700   5.597  16.910  0.00  0.00    +0.000 A 
ATOM      2  N   UNL     1       4.088   6.760  17.044  0.00  0.00    +0.000 NA
ATOM      3  C   UNL     1       3.301   6.572  18.162  0.00  0.00    +0.000 A 
ATOM      4  N   UNL     1       3.391   5.340  18.684  0.00  0.00    +0.000 NA
ATOM      5  O   UNL     1       4.326   4.702  17.878  0.00  0.00    +0.000 OA
ENDROOT
BRANCH   3   6
ATOM      6  C   UNL     1       2.438   7.616  18.707  0.00  0.00    +0.000 A 
ATOM      7  C   UNL     1       1.987   8.679  17.887  0.00  0.00    +0.000 A 
ATOM      8  C   UNL     1       1.158   9.686  18.389  0.00  0.00    +0.000 A 
ATOM      9  C   UNL     1       0.796   9.612  19.717  0.00  0.00    +0.000 A 
ATOM     10  C   UNL     1       1.226   8.588  20.524  0.00  0.00    +0.000 A 
ATOM     11  C   UNL     1       2.036   7.572  20.054  0.00  0.00    +0.000 A 
ATOM     12  O   UNL     1       0.757   8.704  21.796  0.00  0.00    +0.000 OA
ATOM     13  C   UNL     1       0.028   9.947  21.705  0.00  0.00    +0.000 C 
ATOM     14  O   UNL     1       0.011  10.503  20.375  0.00  0.00    +0.000 OA
ENDBRANCH   3   6
BRANCH   1  18
ATOM     15  C   UNL     1       6.511   4.520  14.112  0.00  0.00    +0.000 A 
ATOM     16  N   UNL     1       7.484   5.272  14.646  0.00  0.00    +0.000 NA
ATOM     17  O   UNL     1       6.906   5.755  15.821  0.00  0.00    +0.000 OA
ATOM     18  C   UNL     1       5.625   5.267  15.871  0.00  0.00    +0.000 A 
ATOM     19  N   UNL     1       5.345   4.498  14.834  0.00  0.00    +0.000 NA
BRANCH  15  21
ATOM     20  C   UNL     1       5.342   3.315  12.260  0.00  0.00    +0.000 C 
ATOM     21  C   UNL     1       6.683   3.794  12.820  0.00  0.00    +0.000 C 
ATOM     22  C   UNL     1       7.413   4.655  11.788  0.00  0.00    +0.000 C 
ENDBRANCH  15  21
ENDBRANCH   1  18
TORSDOF 3
ENDMDL
MODEL 2
REMARK VINA RESULT:      -8.1      0.675      1.475
REMARK  Name = 
REMARK  5 active torsions:
REMARK  status: ('A' for Active; 'I' for Inactive)
REMARK    1  A    between atoms: C_1  and  C_2
REMARK    2  A    between atoms: C_2  and  C_3
REMARK    3  A    between atoms: C_2  and  C_4
REMARK    4  A    between atoms: C_7  and  C_8
REMARK    5  A    between atoms: C_10  and  C_11
REMARK                            x       y       z     vdW  Elec       q    Type
REMARK                         _______ _______ _______ _____ _____    ______ ____
ROOT
ATOM      1  C   UNL     1       4.744   5.456  16.994  0.00  0.00    +0.000 A 
ATOM      2  N   UNL     1       4.108   6.598  17.182  0.00  0.00    +0.000 NA
ATOM      3  C   UNL     1       3.382   6.366  18.333  0.00  0.00    +0.000 A 
ATOM      4  N   UNL     1       3.532   5.127  18.824  0.00  0.00    +0.000 NA
ATOM      5  O   UNL     1       4.444   4.532  17.960  0.00  0.00    +0.000 OA
ENDROOT
BRANCH   3   6
ATOM      6  C   UNL     1       2.520   7.374  18.941  0.00  0.00    +0.000 A 
ATOM      7  C   UNL     1       2.050   7.216  20.268  0.00  0.00    +0.000 A 
ATOM      8  C   UNL     1       1.226   8.171  20.869  0.00  0.00    +0.000 A 
ATOM      9  C   UNL     1       0.880   9.277  20.122  0.00  0.00    +0.000 A 
ATOM     10  C   UNL     1       1.327   9.444  18.835  0.00  0.00    +0.000 A 
ATOM     11  C   UNL     1       2.152   8.523  18.218  0.00  0.00    +0.000 A 
ATOM     12  O   UNL     1       0.869  10.597  18.277  0.00  0.00    +0.000 OA
ATOM     13  C   UNL     1       0.042  11.106  19.345  0.00  0.00    +0.000 C 
ATOM     14  O   UNL     1       0.083  10.295  20.535  0.00  0.00    +0.000 OA
ENDBRANCH   3   6
BRANCH   1  18
ATOM     15  C   UNL     1       6.449   4.468  14.099  0.00  0.00    +0.000 A 
ATOM     16  N   UNL     1       7.407   5.276  14.574  0.00  0.00    +0.000 NA
ATOM     17  O   UNL     1       6.871   5.732  15.779  0.00  0.00    +0.000 OA
ATOM     18  C   UNL     1       5.625   5.173  15.904  0.00  0.00    +0.000 A 
ATOM     19  N   UNL     1       5.330   4.384  14.886  0.00  0.00    +0.000 NA
BRANCH  15  21
ATOM     20  C   UNL     1       5.224   3.363  12.220  0.00  0.00    +0.000 C 
ATOM     21  C   UNL     1       6.587   3.745  12.800  0.00  0.00    +0.000 C 
ATOM     22  C   UNL     1       7.385   4.566  11.786  0.00  0.00    +0.000 C 
ENDBRANCH  15  21
ENDBRANCH   1  18
TORSDOF 3
ENDMDL
MODEL 3
REMARK VINA RESULT:      -7.6      2.920      3.913
REMARK  Name = 
REMARK  5 active torsions:
REMARK  status: ('A' for Active; 'I' for Inactive)
REMARK    1  A    between atoms: C_1  and  C_2
REMARK    2  A    between atoms: C_2  and  C_3
REMARK    3  A    between atoms: C_2  and  C_4
REMARK    4  A    between atoms: C_7  and  C_8
REMARK    5  A    between atoms: C_10  and  C_11
REMARK                            x       y       z     vdW  Elec       q    Type
REMARK                         _______ _______ _______ _____ _____    ______ ____
ROOT
ATOM      1  C   UNL     1       5.979   5.296  15.627  0.00  0.00    +0.000 A 
ATOM      2  N   UNL     1       5.098   4.632  16.354  0.00  0.00    +0.000 NA
ATOM      3  C   UNL     1       4.946   5.432  17.468  0.00  0.00    +0.000 A 
ATOM      4  N   UNL     1       5.719   6.529  17.454  0.00  0.00    +0.000 NA
ATOM      5  O   UNL     1       6.383   6.455  16.235  0.00  0.00    +0.000 OA
ENDROOT
BRANCH   3   6
ATOM      6  C   UNL     1       4.042   5.099  18.564  0.00  0.00    +0.000 A 
ATOM      7  C   UNL     1       3.151   6.069  19.084  0.00  0.00    +0.000 A 
ATOM      8  C   UNL     1       2.275   5.769  20.131  0.00  0.00    +0.000 A 
ATOM      9  C   UNL     1       2.311   4.490  20.646  0.00  0.00    +0.000 A 
ATOM     10  C   UNL     1       3.170   3.540  20.153  0.00  0.00    +0.000 A 
ATOM     11  C   UNL     1       4.038   3.803  19.112  0.00  0.00    +0.000 A 
ATOM     12  O   UNL     1       3.047   2.350  20.801  0.00  0.00    +0.000 OA
ATOM     13  C   UNL     1       2.050   2.681  21.792  0.00  0.00    +0.000 C 
ATOM     14  O   UNL     1       1.546   4.026  21.667  0.00  0.00    +0.000 OA
ENDBRANCH   3   6
BRANCH   1  18
ATOM     15  C   UNL     1       6.756   3.925  12.499  0.00  0.00    +0.000 A 
ATOM     16  N   UNL     1       7.774   4.796  12.543  0.00  0.00    +0.000 NA
ATOM     17  O   UNL     1       7.613   5.412  13.785  0.00  0.00    +0.000 OA
ATOM     18  C   UNL     1       6.494   4.869  14.363  0.00  0.00    +0.000 A 
ATOM     19  N   UNL     1       5.939   3.945  13.600  0.00  0.00    +0.000 NA
BRANCH  15  21
ATOM     20  C   UNL     1       7.590   1.937  11.231  0.00  0.00    +0.000 C 
ATOM     21  C   UNL     1       6.522   3.030  11.328  0.00  0.00    +0.000 C 
ATOM     22  C   UNL     1       5.126   2.408  11.369  0.00  0.00    +0.000 C 
ENDBRANCH  15  21
ENDBRANCH   1  18
TORSDOF 3
ENDMDL
MODEL 4
REMARK VINA RESULT:      -7.5      2.245      3.718
REMARK  Name = 
REMARK  5 active torsions:
REMARK  status: ('A' for Active; 'I' for Inactive)
REMARK    1  A    between atoms: C_1  and  C_2
REMARK    2  A    between atoms: C_2  and  C_3
REMARK    3  A    between atoms: C_2  and  C_4
REMARK    4  A    between atoms: C_7  and  C_8
REMARK    5  A    between atoms: C_10  and  C_11
REMARK                            x       y       z     vdW  Elec       q    Type
REMARK                         _______ _______ _______ _____ _____    ______ ____
ROOT
ATOM      1  C   UNL     1       2.682   7.371  18.137  0.00  0.00    +0.000 A 
ATOM      2  N   UNL     1       2.125   7.540  19.322  0.00  0.00    +0.000 NA
ATOM      3  C   UNL     1       1.633   8.828  19.256  0.00  0.00    +0.000 A 
ATOM      4  N   UNL     1       1.897   9.447  18.096  0.00  0.00    +0.000 NA
ATOM      5  O   UNL     1       2.567   8.485  17.348  0.00  0.00    +0.000 OA
ENDROOT
BRANCH   3   6
ATOM      6  C   UNL     1       0.911   9.456  20.358  0.00  0.00    +0.000 A 
ATOM      7  C   UNL     1       0.385   8.674  21.415  0.00  0.00    +0.000 A 
ATOM      8  C   UNL     1      -0.306   9.258  22.480  0.00  0.00    +0.000 A 
ATOM      9  C   UNL     1      -0.464  10.627  22.465  0.00  0.00    +0.000 A 
ATOM     10  C   UNL     1       0.039  11.398  21.447  0.00  0.00    +0.000 A 
ATOM     11  C   UNL     1       0.737  10.852  20.387  0.00  0.00    +0.000 A 
ATOM     12  O   UNL     1      -0.228  12.721  21.623  0.00  0.00    +0.000 OA
ATOM     13  C   UNL     1      -1.002  12.682  22.841  0.00  0.00    +0.000 C 
ATOM     14  O   UNL     1      -1.115  11.360  23.404  0.00  0.00    +0.000 OA
ENDBRANCH   3   6
BRANCH   1  18
ATOM     15  C   UNL     1       4.796   4.831  16.977  0.00  0.00    +0.000 A 
ATOM     16  N   UNL     1       3.794   4.031  17.368  0.00  0.00    +0.000 NA
ATOM     17  O   UNL     1       2.833   4.929  17.835  0.00  0.00    +0.000 OA
ATOM     18  C   UNL     1       3.360   6.188  17.705  0.00  0.00    +0.000 A 
ATOM     19  N   UNL     1       4.570   6.169  17.176  0.00  0.00    +0.000 NA
BRANCH  15  21
ATOM     20  C   UNL     1       6.228   4.693  14.932  0.00  0.00    +0.000 C 
ATOM     21  C   UNL     1       6.065   4.296  16.400  0.00  0.00    +0.000 C 
ATOM     22  C   UNL     1       7.280   4.745  17.212  0.00  0.00    +0.000 C 
ENDBRANCH  15  21
ENDBRANCH   1  18
TORSDOF 3
ENDMDL
MODEL 5
REMARK VINA RESULT:      -7.4      7.514      8.413
REMARK  Name = 
REMARK  5 active torsions:
REMARK  status: ('A' for Active; 'I' for Inactive)
REMARK    1  A    between atoms: C_1  and  C_2
REMARK    2  A    between atoms: C_2  and  C_3
REMARK    3  A    between atoms: C_2  and  C_4
REMARK    4  A    between atoms: C_7  and  C_8
REMARK    5  A    between atoms: C_10  and  C_11
REMARK                            x       y       z     vdW  Elec       q    Type
REMARK                         _______ _______ _______ _____ _____    ______ ____
ROOT
ATOM      1  C   UNL     1       8.712   9.301  18.491  0.00  0.00    +0.000 A 
ATOM      2  N   UNL     1       9.000  10.287  17.661  0.00  0.00    +0.000 NA
ATOM      3  C   UNL     1       9.581  11.229  18.486  0.00  0.00    +0.000 A 
ATOM      4  N   UNL     1       9.626  10.862  19.776  0.00  0.00    +0.000 NA
ATOM      5  O   UNL     1       9.076   9.586  19.780  0.00  0.00    +0.000 OA
ENDROOT
BRANCH   3   6
ATOM      6  C   UNL     1      10.081  12.510  17.995  0.00  0.00    +0.000 A 
ATOM      7  C   UNL     1      11.295  12.581  17.270  0.00  0.00    +0.000 A 
ATOM      8  C   UNL     1      11.788  13.797  16.790  0.00  0.00    +0.000 A 
ATOM      9  C   UNL     1      11.051  14.932  17.050  0.00  0.00    +0.000 A 
ATOM     10  C   UNL     1       9.872  14.879  17.752  0.00  0.00    +0.000 A 
ATOM     11  C   UNL     1       9.354  13.691  18.230  0.00  0.00    +0.000 A 
ATOM     12  O   UNL     1       9.306  16.107  17.900  0.00  0.00    +0.000 OA
ATOM     13  C   UNL     1      10.293  16.941  17.256  0.00  0.00    +0.000 C 
ATOM     14  O   UNL     1      11.380  16.194  16.674  0.00  0.00    +0.000 OA
ENDBRANCH   3   6
BRANCH   1  18
ATOM     15  C   UNL     1       6.959   6.596  17.119  0.00  0.00    +0.000 A 
ATOM     16  N   UNL     1       7.506   5.923  18.142  0.00  0.00    +0.000 NA
ATOM     17  O   UNL     1       8.227   6.906  18.821  0.00  0.00    +0.000 OA
ATOM     18  C   UNL     1       8.068   8.077  18.125  0.00  0.00    +0.000 A 
ATOM     19  N   UNL     1       7.289   7.926  17.069  0.00  0.00    +0.000 NA
BRANCH  15  21
ATOM     20  C   UNL     1       6.848   4.858  15.324  0.00  0.00    +0.000 C 
ATOM     21  C   UNL     1       6.089   5.934  16.103  0.00  0.00    +0.000 C 
ATOM     22  C   UNL     1       4.834   5.341  16.745  0.00  0.00    +0.000 C 
ENDBRANCH  15  21
ENDBRANCH   1  18
TORSDOF 3
ENDMDL
MODEL 6
REMARK VINA RESULT:      -7.4      2.931      9.182
REMARK  Name = 
REMARK  5 active torsions:
REMARK  status: ('A' for Active; 'I' for Inactive)
REMARK    1  A    between atoms: C_1  and  C_2
REMARK    2  A    between atoms: C_2  and  C_3
REMARK    3  A    between atoms: C_2  and  C_4
REMARK    4  A    between atoms: C_7  and  C_8
REMARK    5  A    between atoms: C_10  and  C_11
REMARK                            x       y       z     vdW  Elec       q    Type
REMARK                         _______ _______ _______ _____ _____    ______ ____
ROOT
ATOM      1  C   UNL     1       1.118   9.224  19.867  0.00  0.00    +0.000 A 
ATOM      2  N   UNL     1       1.772   8.078  19.803  0.00  0.00    +0.000 NA
ATOM      3  C   UNL     1       2.225   8.049  18.500  0.00  0.00    +0.000 A 
ATOM      4  N   UNL     1       1.844   9.111  17.773  0.00  0.00    +0.000 NA
ATOM      5  O   UNL     1       1.135   9.896  18.674  0.00  0.00    +0.000 OA
ENDROOT
BRANCH   3   6
ATOM      6  C   UNL     1       3.025   6.952  17.964  0.00  0.00    +0.000 A 
ATOM      7  C   UNL     1       2.612   5.608  18.134  0.00  0.00    +0.000 A 
ATOM      8  C   UNL     1       3.362   4.544  17.626  0.00  0.00    +0.000 A 
ATOM      9  C   UNL     1       4.527   4.848  16.954  0.00  0.00    +0.000 A 
ATOM     10  C   UNL     1       4.941   6.146  16.782  0.00  0.00    +0.000 A 
ATOM     11  C   UNL     1       4.214   7.219  17.262  0.00  0.00    +0.000 A 
ATOM     12  O   UNL     1       6.112   6.226  16.095  0.00  0.00    +0.000 OA
ATOM     13  C   UNL     1       6.411   4.826  15.904  0.00  0.00    +0.000 C 
ATOM     14  O   UNL     1       5.384   3.949  16.407  0.00  0.00    +0.000 OA
ENDBRANCH   3   6
BRANCH   1  18
ATOM     15  C   UNL     1      -0.566  10.949  22.408  0.00  0.00    +0.000 A 
ATOM     16  N   UNL     1      -0.659   9.731  22.960  0.00  0.00    +0.000 NA
ATOM     17  O   UNL     1       0.018   8.916  22.051  0.00  0.00    +0.000 OA
ATOM     18  C   UNL     1       0.434   9.720  21.021  0.00  0.00    +0.000 A 
ATOM     19  N   UNL     1       0.095  10.983  21.207  0.00  0.00    +0.000 NA
BRANCH  15  21
ATOM     20  C   UNL     1      -0.742  13.442  22.321  0.00  0.00    +0.000 C 
ATOM     21  C   UNL     1      -1.163  12.160  23.043  0.00  0.00    +0.000 C 
ATOM     22  C   UNL     1      -2.688  12.062  23.109  0.00  0.00    +0.000 C 
ENDBRANCH  15  21
ENDBRANCH   1  18
TORSDOF 3
ENDMDL
MODEL 7
REMARK VINA RESULT:      -7.3      4.468      6.411
REMARK  Name = 
REMARK  5 active torsions:
REMARK  status: ('A' for Active; 'I' for Inactive)
REMARK    1  A    between atoms: C_1  and  C_2
REMARK    2  A    between atoms: C_2  and  C_3
REMARK    3  A    between atoms: C_2  and  C_4
REMARK    4  A    between atoms: C_7  and  C_8
REMARK    5  A    between atoms: C_10  and  C_11
REMARK                            x       y       z     vdW  Elec       q    Type
REMARK                         _______ _______ _______ _____ _____    ______ ____
ROOT
ATOM      1  C   UNL     1       7.415   7.559  17.514  0.00  0.00    +0.000 A 
ATOM      2  N   UNL     1       6.299   7.078  18.032  0.00  0.00    +0.000 NA
ATOM      3  C   UNL     1       5.999   6.018  17.201  0.00  0.00    +0.000 A 
ATOM      4  N   UNL     1       6.868   5.862  16.191  0.00  0.00    +0.000 NA
ATOM      5  O   UNL     1       7.813   6.859  16.405  0.00  0.00    +0.000 OA
ENDROOT
BRANCH   3   6
ATOM      6  C   UNL     1       4.832   5.164  17.398  0.00  0.00    +0.000 A 
ATOM      7  C   UNL     1       4.571   4.086  16.518  0.00  0.00    +0.000 A 
ATOM      8  C   UNL     1       3.461   3.255  16.691  0.00  0.00    +0.000 A 
ATOM      9  C   UNL     1       2.622   3.524  17.751  0.00  0.00    +0.000 A 
ATOM     10  C   UNL     1       2.861   4.566  18.612  0.00  0.00    +0.000 A 
ATOM     11  C   UNL     1       3.956   5.397  18.473  0.00  0.00    +0.000 A 
ATOM     12  O   UNL     1       1.914   4.658  19.585  0.00  0.00    +0.000 OA
ATOM     13  C   UNL     1       1.026   3.586  19.201  0.00  0.00    +0.000 C 
ATOM     14  O   UNL     1       1.495   2.834  18.065  0.00  0.00    +0.000 OA
ENDBRANCH   3   6
BRANCH   1  18
ATOM     15  C   UNL     1       8.876  10.639  18.317  0.00  0.00    +0.000 A 
ATOM     16  N   UNL     1       9.415   9.944  19.328  0.00  0.00    +0.000 NA
ATOM     17  O   UNL     1       8.937   8.650  19.116  0.00  0.00    +0.000 OA
ATOM     18  C   UNL     1       8.132   8.693  18.007  0.00  0.00    +0.000 A 
ATOM     19  N   UNL     1       8.071   9.904  17.484  0.00  0.00    +0.000 NA
BRANCH  15  21
ATOM     20  C   UNL     1      10.500  12.379  17.551  0.00  0.00    +0.000 C 
ATOM     21  C   UNL     1       9.115  12.101  18.138  0.00  0.00    +0.000 C 
ATOM     22  C   UNL     1       8.031  12.742  17.270  0.00  0.00    +0.000 C 
ENDBRANCH  15  21
ENDBRANCH   1  18
TORSDOF 3
ENDMDL
MODEL 8
REMARK VINA RESULT:      -7.3      1.232      1.996
REMARK  Name = 
REMARK  5 active torsions:
REMARK  status: ('A' for Active; 'I' for Inactive)
REMARK    1  A    between atoms: C_1  and  C_2
REMARK    2  A    between atoms: C_2  and  C_3
REMARK    3  A    between atoms: C_2  and  C_4
REMARK    4  A    between atoms: C_7  and  C_8
REMARK    5  A    between atoms: C_10  and  C_11
REMARK                            x       y       z     vdW  Elec       q    Type
REMARK                         _______ _______ _______ _____ _____    ______ ____
ROOT
ATOM      1  C   UNL     1       5.451   5.152  16.276  0.00  0.00    +0.000 A 
ATOM      2  N   UNL     1       4.514   6.066  16.459  0.00  0.00    +0.000 NA
ATOM      3  C   UNL     1       4.261   5.987  17.813  0.00  0.00    +0.000 A 
ATOM      4  N   UNL     1       4.981   5.046  18.443  0.00  0.00    +0.000 NA
ATOM      5  O   UNL     1       5.781   4.510  17.440  0.00  0.00    +0.000 OA
ENDROOT
BRANCH   3   6
ATOM      6  C   UNL     1       3.284   6.837  18.487  0.00  0.00    +0.000 A 
ATOM      7  C   UNL     1       2.775   6.482  19.760  0.00  0.00    +0.000 A 
ATOM      8  C   UNL     1       1.842   7.285  20.422  0.00  0.00    +0.000 A 
ATOM      9  C   UNL     1       1.428   8.437  19.789  0.00  0.00    +0.000 A 
ATOM     10  C   UNL     1       1.912   8.794  18.555  0.00  0.00    +0.000 A 
ATOM     11  C   UNL     1       2.843   8.027  17.881  0.00  0.00    +0.000 A 
ATOM     12  O   UNL     1       1.374   9.961  18.109  0.00  0.00    +0.000 OA
ATOM     13  C   UNL     1       0.459  10.266  19.183  0.00  0.00    +0.000 C 
ATOM     14  O   UNL     1       0.524   9.326  20.273  0.00  0.00    +0.000 OA
ENDBRANCH   3   6
BRANCH   1  18
ATOM     15  C   UNL     1       6.393   4.120  13.065  0.00  0.00    +0.000 A 
ATOM     16  N   UNL     1       7.519   4.790  13.348  0.00  0.00    +0.000 NA
ATOM     17  O   UNL     1       7.301   5.244  14.650  0.00  0.00    +0.000 OA
ATOM     18  C   UNL     1       6.049   4.825  15.019  0.00  0.00    +0.000 A 
ATOM     19  N   UNL     1       5.457   4.125  14.067  0.00  0.00    +0.000 NA
BRANCH  15  21
ATOM     20  C   UNL     1       7.040   2.199  11.600  0.00  0.00    +0.000 C 
ATOM     21  C   UNL     1       6.174   3.451  11.748  0.00  0.00    +0.000 C 
ATOM     22  C   UNL     1       4.699   3.107  11.536  0.00  0.00    +0.000 C 
ENDBRANCH  15  21
ENDBRANCH   1  18
TORSDOF 3
ENDMDL
MODEL 9
REMARK VINA RESULT:      -7.3      2.777      8.549
REMARK  Name = 
REMARK  5 active torsions:
REMARK  status: ('A' for Active; 'I' for Inactive)
REMARK    1  A    between atoms: C_1  and  C_2
REMARK    2  A    between atoms: C_2  and  C_3
REMARK    3  A    between atoms: C_2  and  C_4
REMARK    4  A    between atoms: C_7  and  C_8
REMARK    5  A    between atoms: C_10  and  C_11
REMARK                            x       y       z     vdW  Elec       q    Type
REMARK                         _______ _______ _______ _____ _____    ______ ____
ROOT
ATOM      1  C   UNL     1       1.793   7.379  20.379  0.00  0.00    +0.000 A 
ATOM      2  N   UNL     1       2.580   7.285  19.323  0.00  0.00    +0.000 NA
ATOM      3  C   UNL     1       2.778   5.924  19.201  0.00  0.00    +0.000 A 
ATOM      4  N   UNL     1       2.170   5.203  20.155  0.00  0.00    +0.000 NA
ATOM      5  O   UNL     1       1.503   6.154  20.919  0.00  0.00    +0.000 OA
ENDROOT
BRANCH   3   6
ATOM      6  C   UNL     1       3.591   5.335  18.141  0.00  0.00    +0.000 A 
ATOM      7  C   UNL     1       3.524   3.947  17.869  0.00  0.00    +0.000 A 
ATOM      8  C   UNL     1       4.292   3.364  16.857  0.00  0.00    +0.000 A 
ATOM      9  C   UNL     1       5.124   4.190  16.132  0.00  0.00    +0.000 A 
ATOM     10  C   UNL     1       5.201   5.537  16.385  0.00  0.00    +0.000 A 
ATOM     11  C   UNL     1       4.446   6.143  17.371  0.00  0.00    +0.000 A 
ATOM     12  O   UNL     1       6.081   6.166  15.561  0.00  0.00    +0.000 OA
ATOM     13  C   UNL     1       6.586   5.049  14.798  0.00  0.00    +0.000 C 
ATOM     14  O   UNL     1       5.947   3.799  15.125  0.00  0.00    +0.000 OA
ENDBRANCH   3   6
BRANCH   1  18
ATOM     15  C   UNL     1       0.395  10.480  21.216  0.00  0.00    +0.000 A 
ATOM     16  N   UNL     1       0.754  10.132  22.459  0.00  0.00    +0.000 NA
ATOM     17  O   UNL     1       1.375   8.895  22.278  0.00  0.00    +0.000 OA
ATOM     18  C   UNL     1       1.308   8.602  20.940  0.00  0.00    +0.000 A 
ATOM     19  N   UNL     1       0.712   9.558  20.251  0.00  0.00    +0.000 NA
BRANCH  15  21
ATOM     20  C   UNL     1      -1.403  11.563  19.857  0.00  0.00    +0.000 C 
ATOM     21  C   UNL     1      -0.319  11.756  20.920  0.00  0.00    +0.000 C 
ATOM     22  C   UNL     1      -0.919  12.368  22.187  0.00  0.00    +0.000 C 
ENDBRANCH  15  21
ENDBRANCH   1  18
TORSDOF 3
ENDMDL
