MODEL 1
REMARK VINA RESULT:      -6.9      0.000      0.000
REMARK  Name = 
REMARK  5 active torsions:
REMARK  status: ('A' for Active; 'I' for Inactive)
REMARK    1  A    between atoms: C_2  and  C_3
REMARK    2  A    between atoms: N_11  and  C_12
REMARK    3  A    between atoms: C_12  and  C_13
REMARK    4  A    between atoms: C_13  and  C_14
REMARK    5  A    between atoms: C_18  and  N_19
REMARK                            x       y       z     vdW  Elec       q    Type
REMARK                         _______ _______ _______ _____ _____    ______ ____
ROOT
ATOM      1  C   UNL     1      -3.586  11.140  16.831  0.00  0.00    +0.000 A 
ATOM      2  C   UNL     1      -4.660  11.735  17.468  0.00  0.00    +0.000 A 
ATOM      3  N   UNL     1      -4.222  12.126  18.717  0.00  0.00    +0.000 N 
ATOM      4  C   UNL     1      -2.890  11.778  18.914  0.00  0.00    +0.000 A 
ATOM      5  C   UNL     1      -1.975  11.893  19.981  0.00  0.00    +0.000 A 
ATOM      6  N   UNL     1      -2.248  12.496  21.196  0.00  0.00    +0.000 N 
ATOM      7  C   UNL     1      -1.604  11.998  22.418  0.00  0.00    +0.000 C 
ATOM      8  C   UNL     1      -0.883  13.117  23.205  0.00  0.00    +0.000 C 
ATOM      9  N   UNL     1      -1.661  14.370  23.401  0.00  0.00    +0.000 NA
ATOM     10  C   UNL     1      -1.959  14.866  22.047  0.00  0.00    +0.000 C 
ATOM     11  C   UNL     1      -2.743  13.871  21.196  0.00  0.00    +0.000 C 
ATOM     12  N   UNL     1      -0.754  11.357  19.784  0.00  0.00    +0.000 NA
ATOM     13  C   UNL     1      -0.447  10.799  18.595  0.00  0.00    +0.000 A 
ATOM     14  N   UNL     1      -1.245  10.666  17.536  0.00  0.00    +0.000 NA
ATOM     15  C   UNL     1      -2.488  11.153  17.727  0.00  0.00    +0.000 A 
ATOM     16  C   UNL     1      -5.106  12.783  19.659  0.00  0.00    +0.000 C 
ATOM     17  C   UNL     1      -6.381  13.355  19.069  0.00  0.00    +0.000 C 
ATOM     18  C   UNL     1      -7.017  12.336  18.153  0.00  0.00    +0.000 C 
ATOM     19  C   UNL     1      -6.061  12.016  17.002  0.00  0.00    +0.000 C 
ENDROOT
BRANCH   1  21
ATOM     20  N   UNL     1      -3.544  10.162  14.438  0.00  0.00    +0.000 NA
ATOM     21  C   UNL     1      -3.593  10.611  15.503  0.00  0.00    +0.000 C 
ENDBRANCH   1  21
BRANCH   9  22
ATOM     22  C   UNL     1      -2.905  14.163  24.180  0.00  0.00    +0.000 C 
BRANCH  22  23
ATOM     23  C   UNL     1      -3.835  15.378  24.156  0.00  0.00    +0.000 C 
BRANCH  23  24
ATOM     24  C   UNL     1      -5.248  15.031  23.747  0.00  0.00    +0.000 A 
ATOM     25  C   UNL     1      -6.215  16.035  23.602  0.00  0.00    +0.000 A 
ATOM     26  C   UNL     1      -7.538  15.711  23.286  0.00  0.00    +0.000 A 
ATOM     27  C   UNL     1      -7.911  14.380  23.101  0.00  0.00    +0.000 A 
ATOM     28  C   UNL     1      -6.945  13.374  23.220  0.00  0.00    +0.000 A 
ATOM     29  C   UNL     1      -5.616  13.693  23.535  0.00  0.00    +0.000 A 
BRANCH  28  30
ATOM     30  N   UNL     1      -7.329  11.969  23.026  0.00  0.00    +0.000 N 
ATOM     31  O   UNL     1      -7.609  11.303  24.032  0.00  0.00    +0.000 OA
ATOM     32  O   UNL     1      -7.355  11.534  21.865  0.00  0.00    +0.000 OA
ENDBRANCH  28  30
ENDBRANCH  23  24
ENDBRANCH  22  23
ENDBRANCH   9  22
TORSDOF 5
ENDMDL
MODEL 2
REMARK VINA RESULT:      -6.5      1.290      1.555
REMARK  Name = 
REMARK  5 active torsions:
REMARK  status: ('A' for Active; 'I' for Inactive)
REMARK    1  A    between atoms: C_2  and  C_3
REMARK    2  A    between atoms: N_11  and  C_12
REMARK    3  A    between atoms: C_12  and  C_13
REMARK    4  A    between atoms: C_13  and  C_14
REMARK    5  A    between atoms: C_18  and  N_19
REMARK                            x       y       z     vdW  Elec       q    Type
REMARK                         _______ _______ _______ _____ _____    ______ ____
ROOT
ATOM      1  C   UNL     1      -2.866  11.251  18.176  0.00  0.00    +0.000 A 
ATOM      2  C   UNL     1      -4.068  11.685  18.707  0.00  0.00    +0.000 A 
ATOM      3  N   UNL     1      -3.766  12.466  19.804  0.00  0.00    +0.000 N 
ATOM      4  C   UNL     1      -2.393  12.532  20.011  0.00  0.00    +0.000 A 
ATOM      5  C   UNL     1      -1.556  13.133  20.973  0.00  0.00    +0.000 A 
ATOM      6  N   UNL     1      -1.995  13.921  22.023  0.00  0.00    +0.000 N 
ATOM      7  C   UNL     1      -1.261  13.917  23.295  0.00  0.00    +0.000 C 
ATOM      8  C   UNL     1      -0.870  15.340  23.757  0.00  0.00    +0.000 C 
ATOM      9  N   UNL     1      -1.953  16.358  23.689  0.00  0.00    +0.000 NA
ATOM     10  C   UNL     1      -2.351  16.418  22.272  0.00  0.00    +0.000 C 
ATOM     11  C   UNL     1      -2.833  15.079  21.722  0.00  0.00    +0.000 C 
ATOM     12  N   UNL     1      -0.234  12.900  20.849  0.00  0.00    +0.000 NA
ATOM     13  C   UNL     1       0.226  12.170  19.813  0.00  0.00    +0.000 A 
ATOM     14  N   UNL     1      -0.493  11.583  18.856  0.00  0.00    +0.000 NA
ATOM     15  C   UNL     1      -1.823  11.764  18.988  0.00  0.00    +0.000 A 
ATOM     16  C   UNL     1      -4.805  13.079  20.607  0.00  0.00    +0.000 C 
ATOM     17  C   UNL     1      -6.177  13.143  19.962  0.00  0.00    +0.000 C 
ATOM     18  C   UNL     1      -6.510  11.804  19.346  0.00  0.00    +0.000 C 
ATOM     19  C   UNL     1      -5.486  11.473  18.258  0.00  0.00    +0.000 C 
ENDROOT
BRANCH   1  21
ATOM     20  N   UNL     1      -2.635   9.804  16.046  0.00  0.00    +0.000 NA
ATOM     21  C   UNL     1      -2.714  10.434  17.013  0.00  0.00    +0.000 C 
ENDBRANCH   1  21
BRANCH   9  22
ATOM     22  C   UNL     1      -3.110  16.032  24.555  0.00  0.00    +0.000 C 
BRANCH  22  23
ATOM     23  C   UNL     1      -4.361  16.846  24.216  0.00  0.00    +0.000 C 
BRANCH  23  24
ATOM     24  C   UNL     1      -5.561  15.983  23.905  0.00  0.00    +0.000 A 
ATOM     25  C   UNL     1      -6.763  16.560  23.475  0.00  0.00    +0.000 A 
ATOM     26  C   UNL     1      -7.893  15.770  23.249  0.00  0.00    +0.000 A 
ATOM     27  C   UNL     1      -7.835  14.389  23.438  0.00  0.00    +0.000 A 
ATOM     28  C   UNL     1      -6.631  13.802  23.843  0.00  0.00    +0.000 A 
ATOM     29  C   UNL     1      -5.493  14.590  24.070  0.00  0.00    +0.000 A 
BRANCH  28  30
ATOM     30  N   UNL     1      -6.561  12.348  24.044  0.00  0.00    +0.000 N 
ATOM     31  O   UNL     1      -5.520  11.882  24.528  0.00  0.00    +0.000 OA
ATOM     32  O   UNL     1      -7.549  11.674  23.721  0.00  0.00    +0.000 OA
ENDBRANCH  28  30
ENDBRANCH  23  24
ENDBRANCH  22  23
ENDBRANCH   9  22
TORSDOF 5
ENDMDL
MODEL 3
REMARK VINA RESULT:      -6.4     12.605     14.876
REMARK  Name = 
REMARK  5 active torsions:
REMARK  status: ('A' for Active; 'I' for Inactive)
REMARK    1  A    between atoms: C_2  and  C_3
REMARK    2  A    between atoms: N_11  and  C_12
REMARK    3  A    between atoms: C_12  and  C_13
REMARK    4  A    between atoms: C_13  and  C_14
REMARK    5  A    between atoms: C_18  and  N_19
REMARK                            x       y       z     vdW  Elec       q    Type
REMARK                         _______ _______ _______ _____ _____    ______ ____
ROOT
ATOM      1  C   UNL     1       8.743  16.127  23.755  0.00  0.00    +0.000 A 
ATOM      2  C   UNL     1       8.518  14.843  24.220  0.00  0.00    +0.000 A 
ATOM      3  N   UNL     1       8.591  14.001  23.130  0.00  0.00    +0.000 N 
ATOM      4  C   UNL     1       8.837  14.712  21.961  0.00  0.00    +0.000 A 
ATOM      5  C   UNL     1       8.964  14.379  20.597  0.00  0.00    +0.000 A 
ATOM      6  N   UNL     1       8.902  13.094  20.087  0.00  0.00    +0.000 N 
ATOM      7  C   UNL     1       8.349  12.868  18.745  0.00  0.00    +0.000 C 
ATOM      8  C   UNL     1       9.310  12.065  17.838  0.00  0.00    +0.000 C 
ATOM      9  N   UNL     1       9.914  10.852  18.453  0.00  0.00    +0.000 NA
ATOM     10  C   UNL     1      10.668  11.337  19.622  0.00  0.00    +0.000 C 
ATOM     11  C   UNL     1       9.803  12.083  20.634  0.00  0.00    +0.000 C 
ATOM     12  N   UNL     1       9.147  15.406  19.742  0.00  0.00    +0.000 NA
ATOM     13  C   UNL     1       9.252  16.664  20.215  0.00  0.00    +0.000 A 
ATOM     14  N   UNL     1       9.161  17.060  21.484  0.00  0.00    +0.000 NA
ATOM     15  C   UNL     1       8.930  16.054  22.352  0.00  0.00    +0.000 A 
ATOM     16  C   UNL     1       8.393  12.571  23.262  0.00  0.00    +0.000 C 
ATOM     17  C   UNL     1       8.496  12.025  24.673  0.00  0.00    +0.000 C 
ATOM     18  C   UNL     1       7.702  12.900  25.614  0.00  0.00    +0.000 C 
ATOM     19  C   UNL     1       8.282  14.316  25.608  0.00  0.00    +0.000 C 
ENDROOT
BRANCH   1  21
ATOM     20  N   UNL     1       8.863  18.281  25.181  0.00  0.00    +0.000 NA
ATOM     21  C   UNL     1       8.780  17.310  24.557  0.00  0.00    +0.000 C 
ENDBRANCH   1  21
BRANCH   9  22
ATOM     22  C   UNL     1       8.907   9.841  18.850  0.00  0.00    +0.000 C 
BRANCH  22  23
ATOM     23  C   UNL     1       8.118   9.282  17.663  0.00  0.00    +0.000 C 
BRANCH  23  24
ATOM     24  C   UNL     1       7.813   7.809  17.798  0.00  0.00    +0.000 A 
ATOM     25  C   UNL     1       8.261   7.086  18.912  0.00  0.00    +0.000 A 
ATOM     26  C   UNL     1       8.035   5.710  19.008  0.00  0.00    +0.000 A 
ATOM     27  C   UNL     1       7.347   5.038  17.997  0.00  0.00    +0.000 A 
ATOM     28  C   UNL     1       6.874   5.758  16.893  0.00  0.00    +0.000 A 
ATOM     29  C   UNL     1       7.097   7.139  16.793  0.00  0.00    +0.000 A 
BRANCH  28  30
ATOM     30  N   UNL     1       6.149   5.059  15.824  0.00  0.00    +0.000 N 
ATOM     31  O   UNL     1       6.539   3.927  15.507  0.00  0.00    +0.000 OA
ATOM     32  O   UNL     1       5.185   5.640  15.306  0.00  0.00    +0.000 OA
ENDBRANCH  28  30
ENDBRANCH  23  24
ENDBRANCH  22  23
ENDBRANCH   9  22
TORSDOF 5
ENDMDL
MODEL 4
REMARK VINA RESULT:      -6.4      2.416      4.932
REMARK  Name = 
REMARK  5 active torsions:
REMARK  status: ('A' for Active; 'I' for Inactive)
REMARK    1  A    between atoms: C_2  and  C_3
REMARK    2  A    between atoms: N_11  and  C_12
REMARK    3  A    between atoms: C_12  and  C_13
REMARK    4  A    between atoms: C_13  and  C_14
REMARK    5  A    between atoms: C_18  and  N_19
REMARK                            x       y       z     vdW  Elec       q    Type
REMARK                         _______ _______ _______ _____ _____    ______ ____
ROOT
ATOM      1  C   UNL     1      -0.585  10.434  18.363  0.00  0.00    +0.000 A 
ATOM      2  C   UNL     1      -0.753  11.132  19.545  0.00  0.00    +0.000 A 
ATOM      3  N   UNL     1      -2.047  11.613  19.550  0.00  0.00    +0.000 N 
ATOM      4  C   UNL     1      -2.718  11.259  18.385  0.00  0.00    +0.000 A 
ATOM      5  C   UNL     1      -4.002  11.506  17.858  0.00  0.00    +0.000 A 
ATOM      6  N   UNL     1      -5.000  12.213  18.505  0.00  0.00    +0.000 N 
ATOM      7  C   UNL     1      -5.956  13.007  17.723  0.00  0.00    +0.000 C 
ATOM      8  C   UNL     1      -7.425  12.658  18.052  0.00  0.00    +0.000 C 
ATOM      9  N   UNL     1      -7.757  12.572  19.500  0.00  0.00    +0.000 NA
ATOM     10  C   UNL     1      -6.890  11.511  20.041  0.00  0.00    +0.000 C 
ATOM     11  C   UNL     1      -5.403  11.785  19.843  0.00  0.00    +0.000 C 
ATOM     12  N   UNL     1      -4.249  11.018  16.626  0.00  0.00    +0.000 NA
ATOM     13  C   UNL     1      -3.309  10.292  15.988  0.00  0.00    +0.000 A 
ATOM     14  N   UNL     1      -2.083  10.000  16.421  0.00  0.00    +0.000 NA
ATOM     15  C   UNL     1      -1.797  10.518  17.633  0.00  0.00    +0.000 A 
ATOM     16  C   UNL     1      -2.557  12.404  20.651  0.00  0.00    +0.000 C 
ATOM     17  C   UNL     1      -1.749  12.339  21.933  0.00  0.00    +0.000 C 
ATOM     18  C   UNL     1      -0.281  12.503  21.615  0.00  0.00    +0.000 C 
ATOM     19  C   UNL     1       0.176  11.362  20.704  0.00  0.00    +0.000 C 
ENDROOT
BRANCH   1  21
ATOM     20  N   UNL     1       1.597   9.233  17.669  0.00  0.00    +0.000 NA
ATOM     21  C   UNL     1       0.604   9.749  17.960  0.00  0.00    +0.000 C 
ENDBRANCH   1  21
BRANCH   9  22
ATOM     22  C   UNL     1      -7.548  13.850  20.220  0.00  0.00    +0.000 C 
BRANCH  22  23
ATOM     23  C   UNL     1      -7.836  13.748  21.719  0.00  0.00    +0.000 C 
BRANCH  23  24
ATOM     24  C   UNL     1      -6.674  14.191  22.576  0.00  0.00    +0.000 A 
ATOM     25  C   UNL     1      -5.737  13.261  23.045  0.00  0.00    +0.000 A 
ATOM     26  C   UNL     1      -4.697  13.659  23.890  0.00  0.00    +0.000 A 
ATOM     27  C   UNL     1      -4.572  14.995  24.270  0.00  0.00    +0.000 A 
ATOM     28  C   UNL     1      -5.490  15.935  23.786  0.00  0.00    +0.000 A 
ATOM     29  C   UNL     1      -6.534  15.541  22.936  0.00  0.00    +0.000 A 
BRANCH  28  30
ATOM     30  N   UNL     1      -5.366  17.345  24.181  0.00  0.00    +0.000 N 
ATOM     31  O   UNL     1      -5.130  17.592  25.372  0.00  0.00    +0.000 OA
ATOM     32  O   UNL     1      -5.499  18.204  23.298  0.00  0.00    +0.000 OA
ENDBRANCH  28  30
ENDBRANCH  23  24
ENDBRANCH  22  23
ENDBRANCH   9  22
TORSDOF 5
ENDMDL
MODEL 5
REMARK VINA RESULT:      -6.4      2.273      4.903
REMARK  Name = 
REMARK  5 active torsions:
REMARK  status: ('A' for Active; 'I' for Inactive)
REMARK    1  A    between atoms: C_2  and  C_3
REMARK    2  A    between atoms: N_11  and  C_12
REMARK    3  A    between atoms: C_12  and  C_13
REMARK    4  A    between atoms: C_13  and  C_14
REMARK    5  A    between atoms: C_18  and  N_19
REMARK                            x       y       z     vdW  Elec       q    Type
REMARK                         _______ _______ _______ _____ _____    ______ ____
ROOT
ATOM      1  C   UNL     1      -0.482  10.517  18.567  0.00  0.00    +0.000 A 
ATOM      2  C   UNL     1      -0.698  11.352  19.649  0.00  0.00    +0.000 A 
ATOM      3  N   UNL     1      -2.003  11.793  19.565  0.00  0.00    +0.000 N 
ATOM      4  C   UNL     1      -2.634  11.279  18.437  0.00  0.00    +0.000 A 
ATOM      5  C   UNL     1      -3.910  11.423  17.854  0.00  0.00    +0.000 A 
ATOM      6  N   UNL     1      -4.942  12.177  18.385  0.00  0.00    +0.000 N 
ATOM      7  C   UNL     1      -5.896  12.842  17.488  0.00  0.00    +0.000 C 
ATOM      8  C   UNL     1      -7.365  12.495  17.825  0.00  0.00    +0.000 C 
ATOM      9  N   UNL     1      -7.732  12.579  19.264  0.00  0.00    +0.000 NA
ATOM     10  C   UNL     1      -6.854  11.618  19.952  0.00  0.00    +0.000 C 
ATOM     11  C   UNL     1      -5.369  11.906  19.756  0.00  0.00    +0.000 C 
ATOM     12  N   UNL     1      -4.113  10.781  16.686  0.00  0.00    +0.000 NA
ATOM     13  C   UNL     1      -3.138  10.007  16.166  0.00  0.00    +0.000 A 
ATOM     14  N   UNL     1      -1.917   9.805  16.660  0.00  0.00    +0.000 NA
ATOM     15  C   UNL     1      -1.677  10.477  17.805  0.00  0.00    +0.000 A 
ATOM     16  C   UNL     1      -2.562  12.699  20.547  0.00  0.00    +0.000 C 
ATOM     17  C   UNL     1      -1.786  12.816  21.845  0.00  0.00    +0.000 C 
ATOM     18  C   UNL     1      -0.315  12.980  21.543  0.00  0.00    +0.000 C 
ATOM     19  C   UNL     1       0.194  11.748  20.792  0.00  0.00    +0.000 C 
ENDROOT
BRANCH   1  21
ATOM     20  N   UNL     1       1.686   9.208  18.047  0.00  0.00    +0.000 NA
ATOM     21  C   UNL     1       0.734   9.821  18.280  0.00  0.00    +0.000 C 
ENDBRANCH   1  21
BRANCH   9  22
ATOM     22  C   UNL     1      -7.574  13.942  19.824  0.00  0.00    +0.000 C 
BRANCH  22  23
ATOM     23  C   UNL     1      -7.272  13.942  21.324  0.00  0.00    +0.000 C 
BRANCH  23  24
ATOM     24  C   UNL     1      -6.020  14.712  21.674  0.00  0.00    +0.000 A 
ATOM     25  C   UNL     1      -5.354  15.471  20.703  0.00  0.00    +0.000 A 
ATOM     26  C   UNL     1      -4.160  16.132  21.009  0.00  0.00    +0.000 A 
ATOM     27  C   UNL     1      -3.621  16.052  22.293  0.00  0.00    +0.000 A 
ATOM     28  C   UNL     1      -4.294  15.315  23.275  0.00  0.00    +0.000 A 
ATOM     29  C   UNL     1      -5.493  14.652  22.974  0.00  0.00    +0.000 A 
BRANCH  28  30
ATOM     30  N   UNL     1      -3.734  15.227  24.630  0.00  0.00    +0.000 N 
ATOM     31  O   UNL     1      -3.290  14.131  25.001  0.00  0.00    +0.000 OA
ATOM     32  O   UNL     1      -3.734  16.255  25.322  0.00  0.00    +0.000 OA
ENDBRANCH  28  30
ENDBRANCH  23  24
ENDBRANCH  22  23
ENDBRANCH   9  22
TORSDOF 5
ENDMDL
MODEL 6
REMARK VINA RESULT:      -6.3      4.336      8.242
REMARK  Name = 
REMARK  5 active torsions:
REMARK  status: ('A' for Active; 'I' for Inactive)
REMARK    1  A    between atoms: C_2  and  C_3
REMARK    2  A    between atoms: N_11  and  C_12
REMARK    3  A    between atoms: C_12  and  C_13
REMARK    4  A    between atoms: C_13  and  C_14
REMARK    5  A    between atoms: C_18  and  N_19
REMARK                            x       y       z     vdW  Elec       q    Type
REMARK                         _______ _______ _______ _____ _____    ______ ____
ROOT
ATOM      1  C   UNL     1      -5.647  13.295  20.784  0.00  0.00    +0.000 A 
ATOM      2  C   UNL     1      -5.439  12.708  19.548  0.00  0.00    +0.000 A 
ATOM      3  N   UNL     1      -4.110  12.342  19.493  0.00  0.00    +0.000 N 
ATOM      4  C   UNL     1      -3.442  12.698  20.660  0.00  0.00    +0.000 A 
ATOM      5  C   UNL     1      -2.112  12.606  21.117  0.00  0.00    +0.000 A 
ATOM      6  N   UNL     1      -1.072  12.025  20.414  0.00  0.00    +0.000 N 
ATOM      7  C   UNL     1       0.292  12.547  20.564  0.00  0.00    +0.000 C 
ATOM      8  C   UNL     1       1.310  11.446  20.940  0.00  0.00    +0.000 C 
ATOM      9  N   UNL     1       1.229  10.194  20.139  0.00  0.00    +0.000 NA
ATOM     10  C   UNL     1      -0.130   9.672  20.359  0.00  0.00    +0.000 C 
ATOM     11  C   UNL     1      -1.228  10.649  19.948  0.00  0.00    +0.000 C 
ATOM     12  N   UNL     1      -1.854  13.142  22.327  0.00  0.00    +0.000 NA
ATOM     13  C   UNL     1      -2.856  13.679  23.053  0.00  0.00    +0.000 A 
ATOM     14  N   UNL     1      -4.137  13.789  22.702  0.00  0.00    +0.000 NA
ATOM     15  C   UNL     1      -4.408  13.302  21.474  0.00  0.00    +0.000 A 
ATOM     16  C   UNL     1      -3.548  11.701  18.322  0.00  0.00    +0.000 C 
ATOM     17  C   UNL     1      -4.555  11.113  17.352  0.00  0.00    +0.000 C 
ATOM     18  C   UNL     1      -5.660  12.113  17.103  0.00  0.00    +0.000 C 
ATOM     19  C   UNL     1      -6.384  12.415  18.417  0.00  0.00    +0.000 C 
ENDROOT
BRANCH   1  21
ATOM     20  N   UNL     1      -7.903  14.162  21.702  0.00  0.00    +0.000 NA
ATOM     21  C   UNL     1      -6.894  13.799  21.269  0.00  0.00    +0.000 C 
ENDBRANCH   1  21
BRANCH   9  22
ATOM     22  C   UNL     1       1.490  10.411  18.697  0.00  0.00    +0.000 C 
BRANCH  22  23
ATOM     23  C   UNL     1       1.219   9.170  17.845  0.00  0.00    +0.000 C 
BRANCH  23  24
ATOM     24  C   UNL     1       2.240   8.076  18.051  0.00  0.00    +0.000 A 
ATOM     25  C   UNL     1       3.407   8.035  17.276  0.00  0.00    +0.000 A 
ATOM     26  C   UNL     1       4.323   6.988  17.420  0.00  0.00    +0.000 A 
ATOM     27  C   UNL     1       4.091   5.974  18.350  0.00  0.00    +0.000 A 
ATOM     28  C   UNL     1       2.940   6.023  19.146  0.00  0.00    +0.000 A 
ATOM     29  C   UNL     1       2.019   7.071  19.006  0.00  0.00    +0.000 A 
BRANCH  28  30
ATOM     30  N   UNL     1       2.689   4.960  20.128  0.00  0.00    +0.000 N 
ATOM     31  O   UNL     1       3.398   3.945  20.074  0.00  0.00    +0.000 OA
ATOM     32  O   UNL     1       1.785   5.142  20.956  0.00  0.00    +0.000 OA
ENDBRANCH  28  30
ENDBRANCH  23  24
ENDBRANCH  22  23
ENDBRANCH   9  22
TORSDOF 5
ENDMDL
MODEL 7
REMARK VINA RESULT:      -6.3      5.832     10.261
REMARK  Name = 
REMARK  5 active torsions:
REMARK  status: ('A' for Active; 'I' for Inactive)
REMARK    1  A    between atoms: C_2  and  C_3
REMARK    2  A    between atoms: N_11  and  C_12
REMARK    3  A    between atoms: C_12  and  C_13
REMARK    4  A    between atoms: C_13  and  C_14
REMARK    5  A    between atoms: C_18  and  N_19
REMARK                            x       y       z     vdW  Elec       q    Type
REMARK                         _______ _______ _______ _____ _____    ______ ____
ROOT
ATOM      1  C   UNL     1       0.149  16.410  22.353  0.00  0.00    +0.000 A 
ATOM      2  C   UNL     1       1.084  16.328  21.337  0.00  0.00    +0.000 A 
ATOM      3  N   UNL     1       1.134  15.007  20.940  0.00  0.00    +0.000 N 
ATOM      4  C   UNL     1       0.265  14.224  21.691  0.00  0.00    +0.000 A 
ATOM      5  C   UNL     1      -0.053  12.851  21.742  0.00  0.00    +0.000 A 
ATOM      6  N   UNL     1       0.482  11.884  20.908  0.00  0.00    +0.000 N 
ATOM      7  C   UNL     1       0.683  10.519  21.410  0.00  0.00    +0.000 C 
ATOM      8  C   UNL     1       0.025   9.453  20.505  0.00  0.00    +0.000 C 
ATOM      9  N   UNL     1       0.279   9.602  19.046  0.00  0.00    +0.000 NA
ATOM     10  C   UNL     1      -0.262  10.923  18.684  0.00  0.00    +0.000 C 
ATOM     11  C   UNL     1       0.373  12.071  19.464  0.00  0.00    +0.000 C 
ATOM     12  N   UNL     1      -0.936  12.473  22.687  0.00  0.00    +0.000 NA
ATOM     13  C   UNL     1      -1.503  13.399  23.487  0.00  0.00    +0.000 A 
ATOM     14  N   UNL     1      -1.272  14.712  23.493  0.00  0.00    +0.000 NA
ATOM     15  C   UNL     1      -0.355  15.106  22.585  0.00  0.00    +0.000 A 
ATOM     16  C   UNL     1       2.027  14.565  19.888  0.00  0.00    +0.000 C 
ATOM     17  C   UNL     1       2.592  15.662  19.006  0.00  0.00    +0.000 C 
ATOM     18  C   UNL     1       3.085  16.800  19.868  0.00  0.00    +0.000 C 
ATOM     19  C   UNL     1       1.916  17.383  20.664  0.00  0.00    +0.000 C 
ENDROOT
BRANCH   1  21
ATOM     20  N   UNL     1      -0.494  18.595  23.578  0.00  0.00    +0.000 NA
ATOM     21  C   UNL     1      -0.236  17.605  23.038  0.00  0.00    +0.000 C 
ENDBRANCH   1  21
BRANCH   9  22
ATOM     22  C   UNL     1       1.715   9.499  18.694  0.00  0.00    +0.000 C 
BRANCH  22  23
ATOM     23  C   UNL     1       1.993   8.459  17.607  0.00  0.00    +0.000 C 
BRANCH  23  24
ATOM     24  C   UNL     1       2.917   7.355  18.067  0.00  0.00    +0.000 A 
ATOM     25  C   UNL     1       2.631   6.623  19.228  0.00  0.00    +0.000 A 
ATOM     26  C   UNL     1       3.516   5.645  19.690  0.00  0.00    +0.000 A 
ATOM     27  C   UNL     1       4.695   5.377  18.994  0.00  0.00    +0.000 A 
ATOM     28  C   UNL     1       4.975   6.088  17.820  0.00  0.00    +0.000 A 
ATOM     29  C   UNL     1       4.089   7.069  17.351  0.00  0.00    +0.000 A 
BRANCH  28  30
ATOM     30  N   UNL     1       6.214   5.812  17.081  0.00  0.00    +0.000 N 
ATOM     31  O   UNL     1       7.117   5.206  17.674  0.00  0.00    +0.000 OA
ATOM     32  O   UNL     1       6.281   6.197  15.905  0.00  0.00    +0.000 OA
ENDBRANCH  28  30
ENDBRANCH  23  24
ENDBRANCH  22  23
ENDBRANCH   9  22
TORSDOF 5
ENDMDL
MODEL 8
REMARK VINA RESULT:      -6.2      6.126     10.457
REMARK  Name = 
REMARK  5 active torsions:
REMARK  status: ('A' for Active; 'I' for Inactive)
REMARK    1  A    between atoms: C_2  and  C_3
REMARK    2  A    between atoms: N_11  and  C_12
REMARK    3  A    between atoms: C_12  and  C_13
REMARK    4  A    between atoms: C_13  and  C_14
REMARK    5  A    between atoms: C_18  and  N_19
REMARK                            x       y       z     vdW  Elec       q    Type
REMARK                         _______ _______ _______ _____ _____    ______ ____
ROOT
ATOM      1  C   UNL     1       0.663  16.132  21.431  0.00  0.00    +0.000 A 
ATOM      2  C   UNL     1       1.617  15.800  20.485  0.00  0.00    +0.000 A 
ATOM      3  N   UNL     1       1.616  14.424  20.375  0.00  0.00    +0.000 N 
ATOM      4  C   UNL     1       0.696  13.852  21.247  0.00  0.00    +0.000 A 
ATOM      5  C   UNL     1       0.316  12.535  21.574  0.00  0.00    +0.000 A 
ATOM      6  N   UNL     1       0.825  11.393  20.979  0.00  0.00    +0.000 N 
ATOM      7  C   UNL     1       0.953  10.158  21.763  0.00  0.00    +0.000 C 
ATOM      8  C   UNL     1       0.269   8.951  21.081  0.00  0.00    +0.000 C 
ATOM      9  N   UNL     1       0.562   8.779  19.632  0.00  0.00    +0.000 NA
ATOM     10  C   UNL     1       0.089  10.015  18.984  0.00  0.00    +0.000 C 
ATOM     11  C   UNL     1       0.757  11.275  19.525  0.00  0.00    +0.000 C 
ATOM     12  N   UNL     1      -0.605  12.400  22.549  0.00  0.00    +0.000 NA
ATOM     13  C   UNL     1      -1.148  13.495  23.118  0.00  0.00    +0.000 A 
ATOM     14  N   UNL     1      -0.858  14.769  22.856  0.00  0.00    +0.000 NA
ATOM     15  C   UNL     1       0.096  14.926  21.916  0.00  0.00    +0.000 A 
ATOM     16  C   UNL     1       2.511  13.736  19.468  0.00  0.00    +0.000 C 
ATOM     17  C   UNL     1       3.145  14.599  18.394  0.00  0.00    +0.000 C 
ATOM     18  C   UNL     1       3.670  15.873  19.013  0.00  0.00    +0.000 C 
ATOM     19  C   UNL     1       2.510  16.657  19.632  0.00  0.00    +0.000 C 
ENDROOT
BRANCH   1  21
ATOM     20  N   UNL     1       0.060  18.551  22.114  0.00  0.00    +0.000 NA
ATOM     21  C   UNL     1       0.317  17.458  21.837  0.00  0.00    +0.000 C 
ENDBRANCH   1  21
BRANCH   9  22
ATOM     22  C   UNL     1       1.999   8.548  19.355  0.00  0.00    +0.000 C 
BRANCH  22  23
ATOM     23  C   UNL     1       2.272   8.130  17.909  0.00  0.00    +0.000 C 
BRANCH  23  24
ATOM     24  C   UNL     1       2.960   6.789  17.801  0.00  0.00    +0.000 A 
ATOM     25  C   UNL     1       2.296   5.614  18.179  0.00  0.00    +0.000 A 
ATOM     26  C   UNL     1       2.952   4.381  18.140  0.00  0.00    +0.000 A 
ATOM     27  C   UNL     1       4.278   4.302  17.712  0.00  0.00    +0.000 A 
ATOM     28  C   UNL     1       4.939   5.468  17.310  0.00  0.00    +0.000 A 
ATOM     29  C   UNL     1       4.285   6.709  17.345  0.00  0.00    +0.000 A 
BRANCH  28  30
ATOM     30  N   UNL     1       6.335   5.394  16.858  0.00  0.00    +0.000 N 
ATOM     31  O   UNL     1       6.725   6.246  16.047  0.00  0.00    +0.000 OA
ATOM     32  O   UNL     1       7.042   4.487  17.318  0.00  0.00    +0.000 OA
ENDBRANCH  28  30
ENDBRANCH  23  24
ENDBRANCH  22  23
ENDBRANCH   9  22
TORSDOF 5
ENDMDL
MODEL 9
REMARK VINA RESULT:      -6.2      4.462      8.499
REMARK  Name = 
REMARK  5 active torsions:
REMARK  status: ('A' for Active; 'I' for Inactive)
REMARK    1  A    between atoms: C_2  and  C_3
REMARK    2  A    between atoms: N_11  and  C_12
REMARK    3  A    between atoms: C_12  and  C_13
REMARK    4  A    between atoms: C_13  and  C_14
REMARK    5  A    between atoms: C_18  and  N_19
REMARK                            x       y       z     vdW  Elec       q    Type
REMARK                         _______ _______ _______ _____ _____    ______ ____
ROOT
ATOM      1  C   UNL     1      -4.941  13.906  20.716  0.00  0.00    +0.000 A 
ATOM      2  C   UNL     1      -5.080  12.997  19.682  0.00  0.00    +0.000 A 
ATOM      3  N   UNL     1      -3.853  12.388  19.511  0.00  0.00    +0.000 N 
ATOM      4  C   UNL     1      -2.912  12.898  20.399  0.00  0.00    +0.000 A 
ATOM      5  C   UNL     1      -1.539  12.680  20.632  0.00  0.00    +0.000 A 
ATOM      6  N   UNL     1      -0.759  11.756  19.959  0.00  0.00    +0.000 N 
ATOM      7  C   UNL     1       0.663  12.037  19.722  0.00  0.00    +0.000 C 
ATOM      8  C   UNL     1       1.582  10.898  20.220  0.00  0.00    +0.000 C 
ATOM      9  N   UNL     1       1.168   9.522  19.835  0.00  0.00    +0.000 NA
ATOM     10  C   UNL     1      -0.171   9.334  20.420  0.00  0.00    +0.000 C 
ATOM     11  C   UNL     1      -1.191  10.361  19.938  0.00  0.00    +0.000 C 
ATOM     12  N   UNL     1      -0.961  13.447  21.578  0.00  0.00    +0.000 NA
ATOM     13  C   UNL     1      -1.706  14.327  22.278  0.00  0.00    +0.000 A 
ATOM     14  N   UNL     1      -3.006  14.581  22.131  0.00  0.00    +0.000 NA
ATOM     15  C   UNL     1      -3.594  13.858  21.157  0.00  0.00    +0.000 A 
ATOM     16  C   UNL     1      -3.644  11.378  18.494  0.00  0.00    +0.000 C 
ATOM     17  C   UNL     1      -4.903  10.762  17.916  0.00  0.00    +0.000 C 
ATOM     18  C   UNL     1      -5.893  11.852  17.581  0.00  0.00    +0.000 C 
ATOM     19  C   UNL     1      -6.274  12.606  18.857  0.00  0.00    +0.000 C 
ENDROOT
BRANCH   1  21
ATOM     20  N   UNL     1      -6.850  15.398  21.616  0.00  0.00    +0.000 NA
ATOM     21  C   UNL     1      -5.978  14.739  21.240  0.00  0.00    +0.000 C 
ENDBRANCH   1  21
BRANCH   9  22
ATOM     22  C   UNL     1       1.143   9.313  18.368  0.00  0.00    +0.000 C 
BRANCH  22  23
ATOM     23  C   UNL     1       2.533   9.089  17.770  0.00  0.00    +0.000 C 
BRANCH  23  24
ATOM     24  C   UNL     1       2.951   7.637  17.776  0.00  0.00    +0.000 A 
ATOM     25  C   UNL     1       4.198   7.252  17.265  0.00  0.00    +0.000 A 
ATOM     26  C   UNL     1       4.560   5.903  17.210  0.00  0.00    +0.000 A 
ATOM     27  C   UNL     1       3.686   4.920  17.675  0.00  0.00    +0.000 A 
ATOM     28  C   UNL     1       2.449   5.299  18.209  0.00  0.00    +0.000 A 
ATOM     29  C   UNL     1       2.081   6.652  18.268  0.00  0.00    +0.000 A 
BRANCH  28  30
ATOM     30  N   UNL     1       1.523   4.271  18.702  0.00  0.00    +0.000 N 
ATOM     31  O   UNL     1       1.224   4.292  19.904  0.00  0.00    +0.000 OA
ATOM     32  O   UNL     1       1.092   3.445  17.885  0.00  0.00    +0.000 OA
ENDBRANCH  28  30
ENDBRANCH  23  24
ENDBRANCH  22  23
ENDBRANCH   9  22
TORSDOF 5
ENDMDL
