MODEL 1
REMARK VINA RESULT:      -6.8      0.000      0.000
REMARK  Name = 
REMARK  9 active torsions:
REMARK  status: ('A' for Active; 'I' for Inactive)
REMARK    1  A    between atoms: C_1  and  C_2
REMARK    2  A    between atoms: C_2  and  C_3
REMARK    3  A    between atoms: C_3  and  C_4
REMARK    4  A    between atoms: C_4  and  C_5
REMARK    5  A    between atoms: C_8  and  C_9
REMARK    6  A    between atoms: C_9  and  C_11
REMARK    7  A    between atoms: C_12  and  O_13
REMARK    8  A    between atoms: C_12  and  C_14
REMARK    9  A    between atoms: C_14  and  O_16
REMARK                            x       y       z     vdW  Elec       q    Type
REMARK                         _______ _______ _______ _____ _____    ______ ____
ROOT
ATOM      1  C   UNL     1       3.367   5.527  18.958  0.00  0.00    +0.000 A 
ATOM      2  C   UNL     1       3.160   4.980  17.684  0.00  0.00    +0.000 A 
ATOM      3  C   UNL     1       4.242   4.594  16.892  0.00  0.00    +0.000 A 
ATOM      4  C   UNL     1       5.550   4.759  17.357  0.00  0.00    +0.000 A 
ATOM      5  C   UNL     1       5.767   5.350  18.608  0.00  0.00    +0.000 A 
ATOM      6  C   UNL     1       4.680   5.727  19.404  0.00  0.00    +0.000 A 
ENDROOT
BRANCH   4   7
ATOM      7  C   UNL     1       6.658   4.302  16.478  0.00  0.00    +0.000 C 
ATOM      8  O   UNL     1       7.826   4.336  16.863  0.00  0.00    +0.000 OA
BRANCH   7   9
ATOM      9  C   UNL     1       6.343   3.848  15.102  0.00  0.00    +0.000 C 
ATOM     10  C   UNL     1       6.902   4.447  14.038  0.00  0.00    +0.000 C 
BRANCH  10  11
ATOM     11  O   UNL     1       7.794   5.510  14.102  0.00  0.00    +0.000 OA
ATOM     12  H   UNL     1       7.270   6.334  13.945  0.00  0.00    +0.000 HD
ENDBRANCH  10  11
BRANCH  10  13
ATOM     13  C   UNL     1       6.536   3.942  12.684  0.00  0.00    +0.000 C 
ATOM     14  O   UNL     1       5.603   3.196  12.437  0.00  0.00    +0.000 OA
BRANCH  13  15
ATOM     15  O   UNL     1       7.395   4.428  11.761  0.00  0.00    +0.000 OA
ATOM     16  H   UNL     1       8.189   3.849  11.725  0.00  0.00    +0.000 HD
ENDBRANCH  13  15
ENDBRANCH  10  13
ENDBRANCH   7   9
ENDBRANCH   4   7
BRANCH   1  17
ATOM     17  C   UNL     1       2.190   5.855  19.847  0.00  0.00    +0.000 C 
BRANCH  17  18
ATOM     18  C   UNL     1       2.097   4.857  21.006  0.00  0.00    +0.000 C 
BRANCH  18  20
ATOM     19  C   UNL     1       1.516   2.505  21.631  0.00  0.00    +0.000 C 
ATOM     20  C   UNL     1       1.229   3.648  20.671  0.00  0.00    +0.000 C 
ENDBRANCH  18  20
ENDBRANCH  17  18
ENDBRANCH   1  17
TORSDOF 8
ENDMDL
MODEL 2
REMARK VINA RESULT:      -6.8      1.441      2.107
REMARK  Name = 
REMARK  9 active torsions:
REMARK  status: ('A' for Active; 'I' for Inactive)
REMARK    1  A    between atoms: C_1  and  C_2
REMARK    2  A    between atoms: C_2  and  C_3
REMARK    3  A    between atoms: C_3  and  C_4
REMARK    4  A    between atoms: C_4  and  C_5
REMARK    5  A    between atoms: C_8  and  C_9
REMARK    6  A    between atoms: C_9  and  C_11
REMARK    7  A    between atoms: C_12  and  O_13
REMARK    8  A    between atoms: C_12  and  C_14
REMARK    9  A    between atoms: C_14  and  O_16
REMARK                            x       y       z     vdW  Elec       q    Type
REMARK                         _______ _______ _______ _____ _____    ______ ____
ROOT
ATOM      1  C   UNL     1       1.999   3.761  18.252  0.00  0.00    +0.000 A 
ATOM      2  C   UNL     1       3.078   3.107  17.642  0.00  0.00    +0.000 A 
ATOM      3  C   UNL     1       4.148   3.834  17.120  0.00  0.00    +0.000 A 
ATOM      4  C   UNL     1       4.152   5.230  17.191  0.00  0.00    +0.000 A 
ATOM      5  C   UNL     1       3.056   5.894  17.755  0.00  0.00    +0.000 A 
ATOM      6  C   UNL     1       1.988   5.162  18.285  0.00  0.00    +0.000 A 
ENDROOT
BRANCH   4   7
ATOM      7  C   UNL     1       5.335   5.946  16.643  0.00  0.00    +0.000 C 
ATOM      8  O   UNL     1       5.936   6.782  17.317  0.00  0.00    +0.000 OA
BRANCH   7   9
ATOM      9  C   UNL     1       5.755   5.675  15.248  0.00  0.00    +0.000 C 
ATOM     10  C   UNL     1       6.921   5.061  14.990  0.00  0.00    +0.000 C 
BRANCH  10  11
ATOM     11  O   UNL     1       7.823   4.631  15.956  0.00  0.00    +0.000 OA
ATOM     12  H   UNL     1       8.641   5.176  15.847  0.00  0.00    +0.000 HD
ENDBRANCH  10  11
BRANCH  10  13
ATOM     13  C   UNL     1       7.284   4.826  13.563  0.00  0.00    +0.000 C 
ATOM     14  O   UNL     1       6.755   4.011  12.826  0.00  0.00    +0.000 OA
BRANCH  13  15
ATOM     15  O   UNL     1       8.294   5.646  13.201  0.00  0.00    +0.000 OA
ATOM     16  H   UNL     1       8.430   6.320  13.905  0.00  0.00    +0.000 HD
ENDBRANCH  13  15
ENDBRANCH  10  13
ENDBRANCH   7   9
ENDBRANCH   4   7
BRANCH   1  17
ATOM     17  C   UNL     1       0.889   2.964  18.897  0.00  0.00    +0.000 C 
BRANCH  17  18
ATOM     18  C   UNL     1       0.614   3.476  20.315  0.00  0.00    +0.000 C 
BRANCH  18  20
ATOM     19  C   UNL     1       2.712   2.908  21.555  0.00  0.00    +0.000 C 
ATOM     20  C   UNL     1       1.235   2.588  21.390  0.00  0.00    +0.000 C 
ENDBRANCH  18  20
ENDBRANCH  17  18
ENDBRANCH   1  17
TORSDOF 8
ENDMDL
MODEL 3
REMARK VINA RESULT:      -6.8      2.132      3.749
REMARK  Name = 
REMARK  9 active torsions:
REMARK  status: ('A' for Active; 'I' for Inactive)
REMARK    1  A    between atoms: C_1  and  C_2
REMARK    2  A    between atoms: C_2  and  C_3
REMARK    3  A    between atoms: C_3  and  C_4
REMARK    4  A    between atoms: C_4  and  C_5
REMARK    5  A    between atoms: C_8  and  C_9
REMARK    6  A    between atoms: C_9  and  C_11
REMARK    7  A    between atoms: C_12  and  O_13
REMARK    8  A    between atoms: C_12  and  C_14
REMARK    9  A    between atoms: C_14  and  O_16
REMARK                            x       y       z     vdW  Elec       q    Type
REMARK                         _______ _______ _______ _____ _____    ______ ____
ROOT
ATOM      1  C   UNL     1       1.895   3.402  18.333  0.00  0.00    +0.000 A 
ATOM      2  C   UNL     1       2.783   2.556  17.655  0.00  0.00    +0.000 A 
ATOM      3  C   UNL     1       3.884   3.079  16.974  0.00  0.00    +0.000 A 
ATOM      4  C   UNL     1       4.108   4.459  16.952  0.00  0.00    +0.000 A 
ATOM      5  C   UNL     1       3.198   5.315  17.586  0.00  0.00    +0.000 A 
ATOM      6  C   UNL     1       2.101   4.786  18.275  0.00  0.00    +0.000 A 
ENDROOT
BRANCH   4   7
ATOM      7  C   UNL     1       5.313   4.951  16.234  0.00  0.00    +0.000 C 
ATOM      8  O   UNL     1       5.762   4.345  15.263  0.00  0.00    +0.000 OA
BRANCH   7   9
ATOM      9  C   UNL     1       6.003   6.163  16.737  0.00  0.00    +0.000 C 
ATOM     10  C   UNL     1       7.197   6.070  17.344  0.00  0.00    +0.000 C 
BRANCH  10  11
ATOM     11  O   UNL     1       7.887   4.883  17.562  0.00  0.00    +0.000 OA
ATOM     12  H   UNL     1       7.209   4.169  17.648  0.00  0.00    +0.000 HD
ENDBRANCH  10  11
BRANCH  10  13
ATOM     13  C   UNL     1       7.831   7.329  17.829  0.00  0.00    +0.000 C 
ATOM     14  O   UNL     1       7.807   8.401  17.248  0.00  0.00    +0.000 OA
BRANCH  13  15
ATOM     15  O   UNL     1       8.447   7.111  19.012  0.00  0.00    +0.000 OA
ATOM     16  H   UNL     1       9.409   6.980  18.854  0.00  0.00    +0.000 HD
ENDBRANCH  13  15
ENDBRANCH  10  13
ENDBRANCH   7   9
ENDBRANCH   4   7
BRANCH   1  17
ATOM     17  C   UNL     1       0.760   2.822  19.145  0.00  0.00    +0.000 C 
BRANCH  17  18
ATOM     18  C   UNL     1       0.724   3.450  20.542  0.00  0.00    +0.000 C 
BRANCH  18  20
ATOM     19  C   UNL     1       2.881   2.663  21.536  0.00  0.00    +0.000 C 
ATOM     20  C   UNL     1       1.366   2.559  21.602  0.00  0.00    +0.000 C 
ENDBRANCH  18  20
ENDBRANCH  17  18
ENDBRANCH   1  17
TORSDOF 8
ENDMDL
MODEL 4
REMARK VINA RESULT:      -6.8      3.871      7.414
REMARK  Name = 
REMARK  9 active torsions:
REMARK  status: ('A' for Active; 'I' for Inactive)
REMARK    1  A    between atoms: C_1  and  C_2
REMARK    2  A    between atoms: C_2  and  C_3
REMARK    3  A    between atoms: C_3  and  C_4
REMARK    4  A    between atoms: C_4  and  C_5
REMARK    5  A    between atoms: C_8  and  C_9
REMARK    6  A    between atoms: C_9  and  C_11
REMARK    7  A    between atoms: C_12  and  O_13
REMARK    8  A    between atoms: C_12  and  C_14
REMARK    9  A    between atoms: C_14  and  O_16
REMARK                            x       y       z     vdW  Elec       q    Type
REMARK                         _______ _______ _______ _____ _____    ______ ____
ROOT
ATOM      1  C   UNL     1       5.580   5.099  15.537  0.00  0.00    +0.000 A 
ATOM      2  C   UNL     1       4.995   4.040  16.244  0.00  0.00    +0.000 A 
ATOM      3  C   UNL     1       4.073   4.288  17.261  0.00  0.00    +0.000 A 
ATOM      4  C   UNL     1       3.730   5.601  17.597  0.00  0.00    +0.000 A 
ATOM      5  C   UNL     1       4.346   6.666  16.928  0.00  0.00    +0.000 A 
ATOM      6  C   UNL     1       5.263   6.414  15.902  0.00  0.00    +0.000 A 
ENDROOT
BRANCH   4   7
ATOM      7  C   UNL     1       2.721   5.798  18.670  0.00  0.00    +0.000 C 
ATOM      8  O   UNL     1       2.484   6.919  19.118  0.00  0.00    +0.000 OA
BRANCH   7   9
ATOM      9  C   UNL     1       2.033   4.613  19.236  0.00  0.00    +0.000 C 
ATOM     10  C   UNL     1       1.961   4.431  20.564  0.00  0.00    +0.000 C 
BRANCH  10  11
ATOM     11  O   UNL     1       2.500   5.291  21.514  0.00  0.00    +0.000 OA
ATOM     12  H   UNL     1       2.207   4.960  22.399  0.00  0.00    +0.000 HD
ENDBRANCH  10  11
BRANCH  10  13
ATOM     13  C   UNL     1       1.259   3.214  21.063  0.00  0.00    +0.000 C 
ATOM     14  O   UNL     1       1.536   2.607  22.084  0.00  0.00    +0.000 OA
BRANCH  13  15
ATOM     15  O   UNL     1       0.267   2.871  20.213  0.00  0.00    +0.000 OA
ATOM     16  H   UNL     1       0.577   2.998  19.288  0.00  0.00    +0.000 HD
ENDBRANCH  13  15
ENDBRANCH  10  13
ENDBRANCH   7   9
ENDBRANCH   4   7
BRANCH   1  17
ATOM     17  C   UNL     1       6.505   4.822  14.374  0.00  0.00    +0.000 C 
BRANCH  17  18
ATOM     18  C   UNL     1       5.949   3.692  13.502  0.00  0.00    +0.000 C 
BRANCH  18  20
ATOM     19  C   UNL     1       7.484   4.851  11.902  0.00  0.00    +0.000 C 
ATOM     20  C   UNL     1       6.621   3.621  12.134  0.00  0.00    +0.000 C 
ENDBRANCH  18  20
ENDBRANCH  17  18
ENDBRANCH   1  17
TORSDOF 8
ENDMDL
MODEL 5
REMARK VINA RESULT:      -6.8      2.589      4.211
REMARK  Name = 
REMARK  9 active torsions:
REMARK  status: ('A' for Active; 'I' for Inactive)
REMARK    1  A    between atoms: C_1  and  C_2
REMARK    2  A    between atoms: C_2  and  C_3
REMARK    3  A    between atoms: C_3  and  C_4
REMARK    4  A    between atoms: C_4  and  C_5
REMARK    5  A    between atoms: C_8  and  C_9
REMARK    6  A    between atoms: C_9  and  C_11
REMARK    7  A    between atoms: C_12  and  O_13
REMARK    8  A    between atoms: C_12  and  C_14
REMARK    9  A    between atoms: C_14  and  O_16
REMARK                            x       y       z     vdW  Elec       q    Type
REMARK                         _______ _______ _______ _____ _____    ______ ____
ROOT
ATOM      1  C   UNL     1       2.781   4.397  17.832  0.00  0.00    +0.000 A 
ATOM      2  C   UNL     1       3.202   5.733  17.857  0.00  0.00    +0.000 A 
ATOM      3  C   UNL     1       4.532   6.065  17.601  0.00  0.00    +0.000 A 
ATOM      4  C   UNL     1       5.468   5.063  17.327  0.00  0.00    +0.000 A 
ATOM      5  C   UNL     1       5.067   3.722  17.348  0.00  0.00    +0.000 A 
ATOM      6  C   UNL     1       3.730   3.393  17.596  0.00  0.00    +0.000 A 
ENDROOT
BRANCH   4   7
ATOM      7  C   UNL     1       6.864   5.484  17.034  0.00  0.00    +0.000 C 
ATOM      8  O   UNL     1       7.723   4.657  16.730  0.00  0.00    +0.000 OA
BRANCH   7   9
ATOM      9  C   UNL     1       7.225   6.915  17.161  0.00  0.00    +0.000 C 
ATOM     10  C   UNL     1       7.946   7.350  18.207  0.00  0.00    +0.000 C 
BRANCH  10  11
ATOM     11  O   UNL     1       8.413   6.546  19.240  0.00  0.00    +0.000 OA
ATOM     12  H   UNL     1       9.019   7.104  19.786  0.00  0.00    +0.000 HD
ENDBRANCH  10  11
BRANCH  10  13
ATOM     13  C   UNL     1       8.268   8.804  18.274  0.00  0.00    +0.000 C 
ATOM     14  O   UNL     1       7.810   9.663  17.539  0.00  0.00    +0.000 OA
BRANCH  13  15
ATOM     15  O   UNL     1       9.152   9.038  19.268  0.00  0.00    +0.000 OA
ATOM     16  H   UNL     1       9.168  10.001  19.465  0.00  0.00    +0.000 HD
ENDBRANCH  13  15
ENDBRANCH  10  13
ENDBRANCH   7   9
ENDBRANCH   4   7
BRANCH   1  17
ATOM     17  C   UNL     1       1.321   4.052  18.017  0.00  0.00    +0.000 C 
BRANCH  17  18
ATOM     18  C   UNL     1       1.154   2.994  19.112  0.00  0.00    +0.000 C 
BRANCH  18  20
ATOM     19  C   UNL     1       2.079   3.137  21.432  0.00  0.00    +0.000 C 
ATOM     20  C   UNL     1       0.976   3.607  20.498  0.00  0.00    +0.000 C 
ENDBRANCH  18  20
ENDBRANCH  17  18
ENDBRANCH   1  17
TORSDOF 8
ENDMDL
MODEL 6
REMARK VINA RESULT:      -6.7      1.184      1.445
REMARK  Name = 
REMARK  9 active torsions:
REMARK  status: ('A' for Active; 'I' for Inactive)
REMARK    1  A    between atoms: C_1  and  C_2
REMARK    2  A    between atoms: C_2  and  C_3
REMARK    3  A    between atoms: C_3  and  C_4
REMARK    4  A    between atoms: C_4  and  C_5
REMARK    5  A    between atoms: C_8  and  C_9
REMARK    6  A    between atoms: C_9  and  C_11
REMARK    7  A    between atoms: C_12  and  O_13
REMARK    8  A    between atoms: C_12  and  C_14
REMARK    9  A    between atoms: C_14  and  O_16
REMARK                            x       y       z     vdW  Elec       q    Type
REMARK                         _______ _______ _______ _____ _____    ______ ____
ROOT
ATOM      1  C   UNL     1       3.831   5.887  18.499  0.00  0.00    +0.000 A 
ATOM      2  C   UNL     1       4.104   6.781  17.455  0.00  0.00    +0.000 A 
ATOM      3  C   UNL     1       4.966   6.421  16.418  0.00  0.00    +0.000 A 
ATOM      4  C   UNL     1       5.578   5.164  16.415  0.00  0.00    +0.000 A 
ATOM      5  C   UNL     1       5.349   4.284  17.480  0.00  0.00    +0.000 A 
ATOM      6  C   UNL     1       4.478   4.644  18.513  0.00  0.00    +0.000 A 
ENDROOT
BRANCH   4   7
ATOM      7  C   UNL     1       6.462   4.830  15.268  0.00  0.00    +0.000 C 
ATOM      8  O   UNL     1       7.572   5.349  15.152  0.00  0.00    +0.000 OA
BRANCH   7   9
ATOM      9  C   UNL     1       5.969   3.895  14.229  0.00  0.00    +0.000 C 
ATOM     10  C   UNL     1       6.478   3.919  12.986  0.00  0.00    +0.000 C 
BRANCH  10  11
ATOM     11  O   UNL     1       7.477   4.783  12.554  0.00  0.00    +0.000 OA
ATOM     12  H   UNL     1       7.263   5.675  12.922  0.00  0.00    +0.000 HD
ENDBRANCH  10  11
BRANCH  10  13
ATOM     13  C   UNL     1       5.931   2.954  11.991  0.00  0.00    +0.000 C 
ATOM     14  O   UNL     1       4.780   2.931  11.589  0.00  0.00    +0.000 OA
BRANCH  13  15
ATOM     15  O   UNL     1       6.898   2.097  11.597  0.00  0.00    +0.000 OA
ATOM     16  H   UNL     1       7.776   2.517  11.734  0.00  0.00    +0.000 HD
ENDBRANCH  13  15
ENDBRANCH  10  13
ENDBRANCH   7   9
ENDBRANCH   4   7
BRANCH   1  17
ATOM     17  C   UNL     1       2.826   6.248  19.569  0.00  0.00    +0.000 C 
BRANCH  17  18
ATOM     18  C   UNL     1       2.607   5.067  20.520  0.00  0.00    +0.000 C 
BRANCH  18  20
ATOM     19  C   UNL     1       1.247   2.990  20.829  0.00  0.00    +0.000 C 
ATOM     20  C   UNL     1       1.226   4.437  20.364  0.00  0.00    +0.000 C 
ENDBRANCH  18  20
ENDBRANCH  17  18
ENDBRANCH   1  17
TORSDOF 8
ENDMDL
MODEL 7
REMARK VINA RESULT:      -6.7      1.504      2.237
REMARK  Name = 
REMARK  9 active torsions:
REMARK  status: ('A' for Active; 'I' for Inactive)
REMARK    1  A    between atoms: C_1  and  C_2
REMARK    2  A    between atoms: C_2  and  C_3
REMARK    3  A    between atoms: C_3  and  C_4
REMARK    4  A    between atoms: C_4  and  C_5
REMARK    5  A    between atoms: C_8  and  C_9
REMARK    6  A    between atoms: C_9  and  C_11
REMARK    7  A    between atoms: C_12  and  O_13
REMARK    8  A    between atoms: C_12  and  C_14
REMARK    9  A    between atoms: C_14  and  O_16
REMARK                            x       y       z     vdW  Elec       q    Type
REMARK                         _______ _______ _______ _____ _____    ______ ____
ROOT
ATOM      1  C   UNL     1       1.944   3.905  18.166  0.00  0.00    +0.000 A 
ATOM      2  C   UNL     1       2.147   5.267  18.423  0.00  0.00    +0.000 A 
ATOM      3  C   UNL     1       3.267   5.927  17.916  0.00  0.00    +0.000 A 
ATOM      4  C   UNL     1       4.209   5.231  17.152  0.00  0.00    +0.000 A 
ATOM      5  C   UNL     1       4.039   3.859  16.932  0.00  0.00    +0.000 A 
ATOM      6  C   UNL     1       2.910   3.202  17.434  0.00  0.00    +0.000 A 
ENDROOT
BRANCH   4   7
ATOM      7  C   UNL     1       5.365   5.997  16.616  0.00  0.00    +0.000 C 
ATOM      8  O   UNL     1       5.921   6.861  17.295  0.00  0.00    +0.000 OA
BRANCH   7   9
ATOM      9  C   UNL     1       5.813   5.744  15.227  0.00  0.00    +0.000 C 
ATOM     10  C   UNL     1       6.955   5.080  14.985  0.00  0.00    +0.000 C 
BRANCH  10  11
ATOM     11  O   UNL     1       7.807   4.582  15.963  0.00  0.00    +0.000 OA
ATOM     12  H   UNL     1       7.344   3.817  16.384  0.00  0.00    +0.000 HD
ENDBRANCH  10  11
BRANCH  10  13
ATOM     13  C   UNL     1       7.347   4.866  13.562  0.00  0.00    +0.000 C 
ATOM     14  O   UNL     1       6.833   4.063  12.801  0.00  0.00    +0.000 OA
BRANCH  13  15
ATOM     15  O   UNL     1       8.367   5.689  13.234  0.00  0.00    +0.000 OA
ATOM     16  H   UNL     1       8.917   5.259  12.540  0.00  0.00    +0.000 HD
ENDBRANCH  13  15
ENDBRANCH  10  13
ENDBRANCH   7   9
ENDBRANCH   4   7
BRANCH   1  17
ATOM     17  C   UNL     1       0.683   3.219  18.639  0.00  0.00    +0.000 C 
BRANCH  17  18
ATOM     18  C   UNL     1       0.998   2.235  19.770  0.00  0.00    +0.000 C 
BRANCH  18  20
ATOM     19  C   UNL     1       2.601   2.742  21.622  0.00  0.00    +0.000 C 
ATOM     20  C   UNL     1       1.180   2.928  21.117  0.00  0.00    +0.000 C 
ENDBRANCH  18  20
ENDBRANCH  17  18
ENDBRANCH   1  17
TORSDOF 8
ENDMDL
MODEL 8
REMARK VINA RESULT:      -6.7      3.927      7.258
REMARK  Name = 
REMARK  9 active torsions:
REMARK  status: ('A' for Active; 'I' for Inactive)
REMARK    1  A    between atoms: C_1  and  C_2
REMARK    2  A    between atoms: C_2  and  C_3
REMARK    3  A    between atoms: C_3  and  C_4
REMARK    4  A    between atoms: C_4  and  C_5
REMARK    5  A    between atoms: C_8  and  C_9
REMARK    6  A    between atoms: C_9  and  C_11
REMARK    7  A    between atoms: C_12  and  O_13
REMARK    8  A    between atoms: C_12  and  C_14
REMARK    9  A    between atoms: C_14  and  O_16
REMARK                            x       y       z     vdW  Elec       q    Type
REMARK                         _______ _______ _______ _____ _____    ______ ____
ROOT
ATOM      1  C   UNL     1       5.424   5.186  15.622  0.00  0.00    +0.000 A 
ATOM      2  C   UNL     1       5.161   6.464  16.133  0.00  0.00    +0.000 A 
ATOM      3  C   UNL     1       4.368   6.627  17.269  0.00  0.00    +0.000 A 
ATOM      4  C   UNL     1       3.815   5.512  17.908  0.00  0.00    +0.000 A 
ATOM      5  C   UNL     1       4.034   4.235  17.376  0.00  0.00    +0.000 A 
ATOM      6  C   UNL     1       4.837   4.075  16.242  0.00  0.00    +0.000 A 
ENDROOT
BRANCH   4   7
ATOM      7  C   UNL     1       3.004   5.749  19.130  0.00  0.00    +0.000 C 
ATOM      8  O   UNL     1       2.347   6.781  19.264  0.00  0.00    +0.000 OA
BRANCH   7   9
ATOM      9  C   UNL     1       3.034   4.744  20.219  0.00  0.00    +0.000 C 
ATOM     10  C   UNL     1       2.014   3.886  20.388  0.00  0.00    +0.000 C 
BRANCH  10  11
ATOM     11  O   UNL     1       0.870   3.846  19.601  0.00  0.00    +0.000 OA
ATOM     12  H   UNL     1       0.665   4.779  19.347  0.00  0.00    +0.000 HD
ENDBRANCH  10  11
BRANCH  10  13
ATOM     13  C   UNL     1       2.109   2.905  21.507  0.00  0.00    +0.000 C 
ATOM     14  O   UNL     1       1.201   2.608  22.265  0.00  0.00    +0.000 OA
BRANCH  13  15
ATOM     15  O   UNL     1       3.357   2.390  21.567  0.00  0.00    +0.000 OA
ATOM     16  H   UNL     1       4.002   3.124  21.682  0.00  0.00    +0.000 HD
ENDBRANCH  13  15
ENDBRANCH  10  13
ENDBRANCH   7   9
ENDBRANCH   4   7
BRANCH   1  17
ATOM     17  C   UNL     1       6.360   5.012  14.448  0.00  0.00    +0.000 C 
BRANCH  17  18
ATOM     18  C   UNL     1       6.193   3.620  13.830  0.00  0.00    +0.000 C 
BRANCH  18  20
ATOM     19  C   UNL     1       4.750   3.240  11.822  0.00  0.00    +0.000 C 
ATOM     20  C   UNL     1       6.129   3.658  12.306  0.00  0.00    +0.000 C 
ENDBRANCH  18  20
ENDBRANCH  17  18
ENDBRANCH   1  17
TORSDOF 8
ENDMDL
MODEL 9
REMARK VINA RESULT:      -6.7      2.480      4.044
REMARK  Name = 
REMARK  9 active torsions:
REMARK  status: ('A' for Active; 'I' for Inactive)
REMARK    1  A    between atoms: C_1  and  C_2
REMARK    2  A    between atoms: C_2  and  C_3
REMARK    3  A    between atoms: C_3  and  C_4
REMARK    4  A    between atoms: C_4  and  C_5
REMARK    5  A    between atoms: C_8  and  C_9
REMARK    6  A    between atoms: C_9  and  C_11
REMARK    7  A    between atoms: C_12  and  O_13
REMARK    8  A    between atoms: C_12  and  C_14
REMARK    9  A    between atoms: C_14  and  O_16
REMARK                            x       y       z     vdW  Elec       q    Type
REMARK                         _______ _______ _______ _____ _____    ______ ____
ROOT
ATOM      1  C   UNL     1       1.987   3.898  18.107  0.00  0.00    +0.000 A 
ATOM      2  C   UNL     1       2.901   3.279  17.244  0.00  0.00    +0.000 A 
ATOM      3  C   UNL     1       4.004   3.980  16.756  0.00  0.00    +0.000 A 
ATOM      4  C   UNL     1       4.204   5.317  17.113  0.00  0.00    +0.000 A 
ATOM      5  C   UNL     1       3.269   5.957  17.935  0.00  0.00    +0.000 A 
ATOM      6  C   UNL     1       2.169   5.249  18.431  0.00  0.00    +0.000 A 
ENDROOT
BRANCH   4   7
ATOM      7  C   UNL     1       5.413   6.000  16.582  0.00  0.00    +0.000 C 
ATOM      8  O   UNL     1       5.543   6.210  15.377  0.00  0.00    +0.000 OA
BRANCH   7   9
ATOM      9  C   UNL     1       6.493   6.382  17.522  0.00  0.00    +0.000 C 
ATOM     10  C   UNL     1       7.080   5.461  18.304  0.00  0.00    +0.000 C 
BRANCH  10  11
ATOM     11  O   UNL     1       6.755   4.110  18.321  0.00  0.00    +0.000 OA
ATOM     12  H   UNL     1       5.863   4.035  18.739  0.00  0.00    +0.000 HD
ENDBRANCH  10  11
BRANCH  10  13
ATOM     13  C   UNL     1       8.156   5.918  19.230  0.00  0.00    +0.000 C 
ATOM     14  O   UNL     1       8.661   5.244  20.112  0.00  0.00    +0.000 OA
BRANCH  13  15
ATOM     15  O   UNL     1       8.491   7.197  18.955  0.00  0.00    +0.000 OA
ATOM     16  H   UNL     1       7.714   7.656  18.562  0.00  0.00    +0.000 HD
ENDBRANCH  13  15
ENDBRANCH  10  13
ENDBRANCH   7   9
ENDBRANCH   4   7
BRANCH   1  17
ATOM     17  C   UNL     1       0.847   3.106  18.707  0.00  0.00    +0.000 C 
BRANCH  17  18
ATOM     18  C   UNL     1       0.604   3.530  20.159  0.00  0.00    +0.000 C 
BRANCH  18  20
ATOM     19  C   UNL     1       2.744   2.828  21.249  0.00  0.00    +0.000 C 
ATOM     20  C   UNL     1       1.247   2.578  21.163  0.00  0.00    +0.000 C 
ENDBRANCH  18  20
ENDBRANCH  17  18
ENDBRANCH   1  17
TORSDOF 8
ENDMDL
