MODEL 1
REMARK VINA RESULT:      -6.6      0.000      0.000
REMARK  Name = 
REMARK  9 active torsions:
REMARK  status: ('A' for Active; 'I' for Inactive)
REMARK    1  A    between atoms: C_1  and  C_2
REMARK    2  A    between atoms: C_2  and  C_3
REMARK    3  A    between atoms: C_2  and  N_4
REMARK    4  A    between atoms: N_7  and  C_8
REMARK    5  A    between atoms: C_8  and  C_9
REMARK    6  A    between atoms: C_9  and  N_10
REMARK    7  A    between atoms: N_10  and  C_11
REMARK    8  A    between atoms: C_11  and  C_12
REMARK    9  A    between atoms: C_18  and  C_19
REMARK                            x       y       z     vdW  Elec       q    Type
REMARK                         _______ _______ _______ _____ _____    ______ ____
ROOT
ATOM      1  N   UNL     1       6.349   5.779  18.793  0.00  0.00    +0.000 NA
ATOM      2  H   UNL     1       5.771   6.413  18.237  0.00  0.00    +0.000 HD
ENDROOT
BRANCH   1   3
ATOM      3  C   UNL     1       7.434   5.233  17.965  0.00  0.00    +0.000 C 
BRANCH   3   4
ATOM      4  C   UNL     1       7.439   5.783  16.521  0.00  0.00    +0.000 C 
BRANCH   4   8
ATOM      5  N   UNL     1       6.182   3.967  13.603  0.00  0.00    +0.000 N 
ATOM      6  C   UNL     1       5.181   3.542  14.560  0.00  0.00    +0.000 C 
ATOM      7  C   UNL     1       5.802   3.921  15.895  0.00  0.00    +0.000 C 
ATOM      8  N   UNL     1       6.736   4.967  15.543  0.00  0.00    +0.000 N 
ATOM      9  C   UNL     1       7.013   4.938  14.177  0.00  0.00    +0.000 C 
ATOM     10  O   UNL     1       7.845   5.603  13.584  0.00  0.00    +0.000 OA
BRANCH   5  12
ATOM     11  C   UNL     1       7.218   2.634  11.784  0.00  0.00    +0.000 C 
ATOM     12  C   UNL     1       6.152   3.657  12.178  0.00  0.00    +0.000 C 
ATOM     13  C   UNL     1       4.775   3.252  11.670  0.00  0.00    +0.000 C 
ENDBRANCH   5  12
ENDBRANCH   4   8
ENDBRANCH   3   4
ENDBRANCH   1   3
BRANCH   1  14
ATOM     14  C   UNL     1       5.516   4.697  19.356  0.00  0.00    +0.000 C 
BRANCH  14  15
ATOM     15  C   UNL     1       4.018   5.058  19.288  0.00  0.00    +0.000 C 
ATOM     16  O   UNL     1       3.663   6.243  19.283  0.00  0.00    +0.000 OA
ATOM     17  N   UNL     1       3.086   4.024  19.247  0.00  0.00    +0.000 N 
ATOM     18  C   UNL     1       1.679   4.338  19.101  0.00  0.00    +0.000 C 
ATOM     19  C   UNL     1       0.980   3.143  19.714  0.00  0.00    +0.000 C 
ATOM     20  C   UNL     1       1.881   1.958  19.362  0.00  0.00    +0.000 C 
ATOM     21  C   UNL     1       3.282   2.554  19.177  0.00  0.00    +0.000 C 
BRANCH  21  22
ATOM     22  C   UNL     1       4.267   2.059  20.223  0.00  0.00    +0.000 C 
ATOM     23  N   UNL     1       5.083   1.649  21.093  0.00  0.00    +0.000 NA
ENDBRANCH  21  22
ENDBRANCH  14  15
ENDBRANCH   1  14
TORSDOF 7
ENDMDL
MODEL 2
REMARK VINA RESULT:      -6.4      1.799      2.802
REMARK  Name = 
REMARK  9 active torsions:
REMARK  status: ('A' for Active; 'I' for Inactive)
REMARK    1  A    between atoms: C_1  and  C_2
REMARK    2  A    between atoms: C_2  and  C_3
REMARK    3  A    between atoms: C_2  and  N_4
REMARK    4  A    between atoms: N_7  and  C_8
REMARK    5  A    between atoms: C_8  and  C_9
REMARK    6  A    between atoms: C_9  and  N_10
REMARK    7  A    between atoms: N_10  and  C_11
REMARK    8  A    between atoms: C_11  and  C_12
REMARK    9  A    between atoms: C_18  and  C_19
REMARK                            x       y       z     vdW  Elec       q    Type
REMARK                         _______ _______ _______ _____ _____    ______ ____
ROOT
ATOM      1  N   UNL     1       6.538   4.449  18.354  0.00  0.00    +0.000 NA
ATOM      2  H   UNL     1       6.910   5.049  19.094  0.00  0.00    +0.000 HD
ENDROOT
BRANCH   1   3
ATOM      3  C   UNL     1       7.395   4.531  17.163  0.00  0.00    +0.000 C 
BRANCH   3   4
ATOM      4  C   UNL     1       6.819   5.439  16.054  0.00  0.00    +0.000 C 
BRANCH   4   8
ATOM      5  N   UNL     1       6.135   3.671  12.923  0.00  0.00    +0.000 N 
ATOM      6  C   UNL     1       7.394   4.282  12.547  0.00  0.00    +0.000 C 
ATOM      7  C   UNL     1       7.593   5.342  13.619  0.00  0.00    +0.000 C 
ATOM      8  N   UNL     1       6.795   4.855  14.722  0.00  0.00    +0.000 N 
ATOM      9  C   UNL     1       5.874   3.906  14.280  0.00  0.00    +0.000 C 
ATOM     10  O   UNL     1       4.981   3.393  14.932  0.00  0.00    +0.000 OA
BRANCH   5  12
ATOM     11  C   UNL     1       4.290   3.379  11.290  0.00  0.00    +0.000 C 
ATOM     12  C   UNL     1       5.400   2.714  12.104  0.00  0.00    +0.000 C 
ATOM     13  C   UNL     1       6.293   1.847  11.228  0.00  0.00    +0.000 C 
ENDBRANCH   5  12
ENDBRANCH   4   8
ENDBRANCH   3   4
ENDBRANCH   1   3
BRANCH   1  14
ATOM     14  C   UNL     1       5.150   4.839  18.034  0.00  0.00    +0.000 C 
BRANCH  14  15
ATOM     15  C   UNL     1       4.152   3.747  18.473  0.00  0.00    +0.000 C 
ATOM     16  O   UNL     1       4.267   2.591  18.046  0.00  0.00    +0.000 OA
ATOM     17  N   UNL     1       3.121   4.098  19.340  0.00  0.00    +0.000 N 
ATOM     18  C   UNL     1       2.221   3.073  19.830  0.00  0.00    +0.000 C 
ATOM     19  C   UNL     1       0.958   3.837  20.165  0.00  0.00    +0.000 C 
ATOM     20  C   UNL     1       1.459   5.189  20.674  0.00  0.00    +0.000 C 
ATOM     21  C   UNL     1       2.832   5.386  20.021  0.00  0.00    +0.000 C 
BRANCH  21  22
ATOM     22  C   UNL     1       2.853   6.558  19.055  0.00  0.00    +0.000 C 
ATOM     23  N   UNL     1       2.871   7.532  18.253  0.00  0.00    +0.000 NA
ENDBRANCH  21  22
ENDBRANCH  14  15
ENDBRANCH   1  14
TORSDOF 7
ENDMDL
MODEL 3
REMARK VINA RESULT:      -6.2      3.707      5.814
REMARK  Name = 
REMARK  9 active torsions:
REMARK  status: ('A' for Active; 'I' for Inactive)
REMARK    1  A    between atoms: C_1  and  C_2
REMARK    2  A    between atoms: C_2  and  C_3
REMARK    3  A    between atoms: C_2  and  N_4
REMARK    4  A    between atoms: N_7  and  C_8
REMARK    5  A    between atoms: C_8  and  C_9
REMARK    6  A    between atoms: C_9  and  N_10
REMARK    7  A    between atoms: N_10  and  C_11
REMARK    8  A    between atoms: C_11  and  C_12
REMARK    9  A    between atoms: C_18  and  C_19
REMARK                            x       y       z     vdW  Elec       q    Type
REMARK                         _______ _______ _______ _____ _____    ______ ____
ROOT
ATOM      1  N   UNL     1       1.642   5.289  20.161  0.00  0.00    +0.000 NA
ATOM      2  H   UNL     1       0.636   5.134  20.070  0.00  0.00    +0.000 HD
ENDROOT
BRANCH   1   3
ATOM      3  C   UNL     1       2.204   4.363  21.154  0.00  0.00    +0.000 C 
BRANCH   3   4
ATOM      4  C   UNL     1       3.134   3.294  20.538  0.00  0.00    +0.000 C 
BRANCH   4   8
ATOM      5  N   UNL     1       4.947   4.464  17.581  0.00  0.00    +0.000 N 
ATOM      6  C   UNL     1       3.910   3.711  16.906  0.00  0.00    +0.000 C 
ATOM      7  C   UNL     1       3.317   2.868  18.023  0.00  0.00    +0.000 C 
ATOM      8  N   UNL     1       3.656   3.610  19.217  0.00  0.00    +0.000 N 
ATOM      9  C   UNL     1       4.686   4.513  18.957  0.00  0.00    +0.000 C 
ATOM     10  O   UNL     1       5.280   5.200  19.771  0.00  0.00    +0.000 OA
BRANCH   5  12
ATOM     11  C   UNL     1       7.246   4.531  16.648  0.00  0.00    +0.000 C 
ATOM     12  C   UNL     1       5.944   5.290  16.910  0.00  0.00    +0.000 C 
ATOM     13  C   UNL     1       5.428   5.965  15.647  0.00  0.00    +0.000 C 
ENDBRANCH   5  12
ENDBRANCH   4   8
ENDBRANCH   3   4
ENDBRANCH   1   3
BRANCH   1  14
ATOM     14  C   UNL     1       1.906   6.693  20.538  0.00  0.00    +0.000 C 
BRANCH  14  15
ATOM     15  C   UNL     1       2.145   7.567  19.288  0.00  0.00    +0.000 C 
ATOM     16  O   UNL     1       2.870   7.158  18.373  0.00  0.00    +0.000 OA
ATOM     17  N   UNL     1       1.542   8.820  19.228  0.00  0.00    +0.000 N 
ATOM     18  C   UNL     1       1.685   9.623  18.031  0.00  0.00    +0.000 C 
ATOM     19  C   UNL     1       1.495  11.041  18.527  0.00  0.00    +0.000 C 
ATOM     20  C   UNL     1       0.458  10.914  19.644  0.00  0.00    +0.000 C 
ATOM     21  C   UNL     1       0.595   9.478  20.164  0.00  0.00    +0.000 C 
BRANCH  21  22
ATOM     22  C   UNL     1       1.084   9.425  21.601  0.00  0.00    +0.000 C 
ATOM     23  N   UNL     1       1.491   9.381  22.794  0.00  0.00    +0.000 NA
ENDBRANCH  21  22
ENDBRANCH  14  15
ENDBRANCH   1  14
TORSDOF 7
ENDMDL
MODEL 4
REMARK VINA RESULT:      -6.2      1.277      1.740
REMARK  Name = 
REMARK  9 active torsions:
REMARK  status: ('A' for Active; 'I' for Inactive)
REMARK    1  A    between atoms: C_1  and  C_2
REMARK    2  A    between atoms: C_2  and  C_3
REMARK    3  A    between atoms: C_2  and  N_4
REMARK    4  A    between atoms: N_7  and  C_8
REMARK    5  A    between atoms: C_8  and  C_9
REMARK    6  A    between atoms: C_9  and  N_10
REMARK    7  A    between atoms: N_10  and  C_11
REMARK    8  A    between atoms: C_11  and  C_12
REMARK    9  A    between atoms: C_18  and  C_19
REMARK                            x       y       z     vdW  Elec       q    Type
REMARK                         _______ _______ _______ _____ _____    ______ ____
ROOT
ATOM      1  N   UNL     1       5.375   4.510  17.455  0.00  0.00    +0.000 NA
ATOM      2  H   UNL     1       5.941   3.673  17.300  0.00  0.00    +0.000 HD
ENDROOT
BRANCH   1   3
ATOM      3  C   UNL     1       5.948   5.647  16.722  0.00  0.00    +0.000 C 
BRANCH   3   4
ATOM      4  C   UNL     1       7.257   5.300  15.978  0.00  0.00    +0.000 C 
BRANCH   4   8
ATOM      5  N   UNL     1       6.282   3.650  12.860  0.00  0.00    +0.000 N 
ATOM      6  C   UNL     1       7.403   4.414  12.350  0.00  0.00    +0.000 C 
ATOM      7  C   UNL     1       7.658   5.425  13.456  0.00  0.00    +0.000 C 
ATOM      8  N   UNL     1       7.088   4.793  14.625  0.00  0.00    +0.000 N 
ATOM      9  C   UNL     1       6.208   3.777  14.253  0.00  0.00    +0.000 C 
ATOM     10  O   UNL     1       5.479   3.135  14.989  0.00  0.00    +0.000 OA
BRANCH   5  12
ATOM     11  C   UNL     1       4.338   3.292  11.359  0.00  0.00    +0.000 C 
ATOM     12  C   UNL     1       5.528   2.668  12.089  0.00  0.00    +0.000 C 
ATOM     13  C   UNL     1       6.389   1.839  11.146  0.00  0.00    +0.000 C 
ENDBRANCH   5  12
ENDBRANCH   4   8
ENDBRANCH   3   4
ENDBRANCH   1   3
BRANCH   1  14
ATOM     14  C   UNL     1       5.289   4.802  18.901  0.00  0.00    +0.000 C 
BRANCH  14  15
ATOM     15  C   UNL     1       3.867   5.256  19.291  0.00  0.00    +0.000 C 
ATOM     16  O   UNL     1       3.611   6.460  19.420  0.00  0.00    +0.000 OA
ATOM     17  N   UNL     1       2.895   4.283  19.507  0.00  0.00    +0.000 N 
ATOM     18  C   UNL     1       1.533   4.687  19.794  0.00  0.00    +0.000 C 
ATOM     19  C   UNL     1       0.965   3.511  20.561  0.00  0.00    +0.000 C 
ATOM     20  C   UNL     1       1.636   2.290  19.930  0.00  0.00    +0.000 C 
ATOM     21  C   UNL     1       2.958   2.808  19.348  0.00  0.00    +0.000 C 
BRANCH  21  22
ATOM     22  C   UNL     1       4.170   2.211  20.042  0.00  0.00    +0.000 C 
ATOM     23  N   UNL     1       5.177   1.716  20.617  0.00  0.00    +0.000 NA
ENDBRANCH  21  22
ENDBRANCH  14  15
ENDBRANCH   1  14
TORSDOF 7
ENDMDL
MODEL 5
REMARK VINA RESULT:      -6.2      1.621      2.305
REMARK  Name = 
REMARK  9 active torsions:
REMARK  status: ('A' for Active; 'I' for Inactive)
REMARK    1  A    between atoms: C_1  and  C_2
REMARK    2  A    between atoms: C_2  and  C_3
REMARK    3  A    between atoms: C_2  and  N_4
REMARK    4  A    between atoms: N_7  and  C_8
REMARK    5  A    between atoms: C_8  and  C_9
REMARK    6  A    between atoms: C_9  and  N_10
REMARK    7  A    between atoms: N_10  and  C_11
REMARK    8  A    between atoms: C_11  and  C_12
REMARK    9  A    between atoms: C_18  and  C_19
REMARK                            x       y       z     vdW  Elec       q    Type
REMARK                         _______ _______ _______ _____ _____    ______ ____
ROOT
ATOM      1  N   UNL     1       5.823   4.678  18.997  0.00  0.00    +0.000 NA
ATOM      2  H   UNL     1       5.211   5.495  19.059  0.00  0.00    +0.000 HD
ENDROOT
BRANCH   1   3
ATOM      3  C   UNL     1       6.877   4.915  18.001  0.00  0.00    +0.000 C 
BRANCH   3   4
ATOM      4  C   UNL     1       6.412   5.788  16.814  0.00  0.00    +0.000 C 
BRANCH   4   8
ATOM      5  N   UNL     1       6.529   4.158  13.538  0.00  0.00    +0.000 N 
ATOM      6  C   UNL     1       5.150   3.864  13.869  0.00  0.00    +0.000 C 
ATOM      7  C   UNL     1       5.086   4.157  15.360  0.00  0.00    +0.000 C 
ATOM      8  N   UNL     1       6.184   5.073  15.567  0.00  0.00    +0.000 N 
ATOM      9  C   UNL     1       7.082   5.012  14.502  0.00  0.00    +0.000 C 
ATOM     10  O   UNL     1       8.165   5.566  14.425  0.00  0.00    +0.000 OA
BRANCH   5  12
ATOM     11  C   UNL     1       6.533   2.641  11.575  0.00  0.00    +0.000 C 
ATOM     12  C   UNL     1       7.158   3.858  12.257  0.00  0.00    +0.000 C 
ATOM     13  C   UNL     1       7.225   5.053  11.316  0.00  0.00    +0.000 C 
ENDBRANCH   5  12
ENDBRANCH   4   8
ENDBRANCH   3   4
ENDBRANCH   1   3
BRANCH   1  14
ATOM     14  C   UNL     1       5.033   3.477  18.657  0.00  0.00    +0.000 C 
BRANCH  14  15
ATOM     15  C   UNL     1       4.466   2.808  19.926  0.00  0.00    +0.000 C 
ATOM     16  O   UNL     1       5.132   1.960  20.533  0.00  0.00    +0.000 OA
ATOM     17  N   UNL     1       3.193   3.171  20.357  0.00  0.00    +0.000 N 
ATOM     18  C   UNL     1       2.673   2.617  21.590  0.00  0.00    +0.000 C 
ATOM     19  C   UNL     1       1.171   2.691  21.410  0.00  0.00    +0.000 C 
ATOM     20  C   UNL     1       0.950   3.973  20.606  0.00  0.00    +0.000 C 
ATOM     21  C   UNL     1       2.256   4.197  19.832  0.00  0.00    +0.000 C 
BRANCH  21  22
ATOM     22  C   UNL     1       2.067   4.082  18.329  0.00  0.00    +0.000 C 
ATOM     23  N   UNL     1       1.911   3.987  17.081  0.00  0.00    +0.000 NA
ENDBRANCH  21  22
ENDBRANCH  14  15
ENDBRANCH   1  14
TORSDOF 7
ENDMDL
MODEL 6
REMARK VINA RESULT:      -6.1      3.842      7.321
REMARK  Name = 
REMARK  9 active torsions:
REMARK  status: ('A' for Active; 'I' for Inactive)
REMARK    1  A    between atoms: C_1  and  C_2
REMARK    2  A    between atoms: C_2  and  C_3
REMARK    3  A    between atoms: C_2  and  N_4
REMARK    4  A    between atoms: N_7  and  C_8
REMARK    5  A    between atoms: C_8  and  C_9
REMARK    6  A    between atoms: C_9  and  N_10
REMARK    7  A    between atoms: N_10  and  C_11
REMARK    8  A    between atoms: C_11  and  C_12
REMARK    9  A    between atoms: C_18  and  C_19
REMARK                            x       y       z     vdW  Elec       q    Type
REMARK                         _______ _______ _______ _____ _____    ______ ____
ROOT
ATOM      1  N   UNL     1       2.657   4.374  19.493  0.00  0.00    +0.000 NA
ATOM      2  H   UNL     1       2.074   3.585  19.201  0.00  0.00    +0.000 HD
ENDROOT
BRANCH   1   3
ATOM      3  C   UNL     1       2.313   5.568  18.708  0.00  0.00    +0.000 C 
BRANCH   3   4
ATOM      4  C   UNL     1       2.967   6.862  19.242  0.00  0.00    +0.000 C 
BRANCH   4   8
ATOM      5  N   UNL     1       0.594   9.615  19.672  0.00  0.00    +0.000 N 
ATOM      6  C   UNL     1       0.725   9.233  21.064  0.00  0.00    +0.000 C 
ATOM      7  C   UNL     1       1.387   7.866  20.982  0.00  0.00    +0.000 C 
ATOM      8  N   UNL     1       2.039   7.888  19.692  0.00  0.00    +0.000 N 
ATOM      9  C   UNL     1       1.504   8.894  18.889  0.00  0.00    +0.000 C 
ATOM     10  O   UNL     1       1.750   9.099  17.712  0.00  0.00    +0.000 OA
BRANCH   5  12
ATOM     11  C   UNL     1       0.759  11.930  18.797  0.00  0.00    +0.000 C 
ATOM     12  C   UNL     1      -0.155  10.772  19.197  0.00  0.00    +0.000 C 
ATOM     13  C   UNL     1      -1.154  10.443  18.096  0.00  0.00    +0.000 C 
ENDBRANCH   5  12
ENDBRANCH   4   8
ENDBRANCH   3   4
ENDBRANCH   1   3
BRANCH   1  14
ATOM     14  C   UNL     1       4.086   4.032  19.338  0.00  0.00    +0.000 C 
BRANCH  14  15
ATOM     15  C   UNL     1       4.396   3.590  17.892  0.00  0.00    +0.000 C 
ATOM     16  O   UNL     1       3.844   2.591  17.415  0.00  0.00    +0.000 OA
ATOM     17  N   UNL     1       5.316   4.330  17.154  0.00  0.00    +0.000 N 
ATOM     18  C   UNL     1       5.563   3.983  15.770  0.00  0.00    +0.000 C 
ATOM     19  C   UNL     1       6.961   4.505  15.513  0.00  0.00    +0.000 C 
ATOM     20  C   UNL     1       7.048   5.778  16.356  0.00  0.00    +0.000 C 
ATOM     21  C   UNL     1       6.039   5.582  17.495  0.00  0.00    +0.000 C 
BRANCH  21  22
ATOM     22  C   UNL     1       6.708   5.502  18.856  0.00  0.00    +0.000 C 
ATOM     23  N   UNL     1       7.263   5.435  19.987  0.00  0.00    +0.000 NA
ENDBRANCH  21  22
ENDBRANCH  14  15
ENDBRANCH   1  14
TORSDOF 7
ENDMDL
MODEL 7
REMARK VINA RESULT:      -6.1      1.895      2.671
REMARK  Name = 
REMARK  9 active torsions:
REMARK  status: ('A' for Active; 'I' for Inactive)
REMARK    1  A    between atoms: C_1  and  C_2
REMARK    2  A    between atoms: C_2  and  C_3
REMARK    3  A    between atoms: C_2  and  N_4
REMARK    4  A    between atoms: N_7  and  C_8
REMARK    5  A    between atoms: C_8  and  C_9
REMARK    6  A    between atoms: C_9  and  N_10
REMARK    7  A    between atoms: N_10  and  C_11
REMARK    8  A    between atoms: C_11  and  C_12
REMARK    9  A    between atoms: C_18  and  C_19
REMARK                            x       y       z     vdW  Elec       q    Type
REMARK                         _______ _______ _______ _____ _____    ______ ____
ROOT
ATOM      1  N   UNL     1       5.676   3.946  18.782  0.00  0.00    +0.000 NA
ATOM      2  H   UNL     1       6.260   3.350  18.192  0.00  0.00    +0.000 HD
ENDROOT
BRANCH   1   3
ATOM      3  C   UNL     1       6.482   5.039  19.345  0.00  0.00    +0.000 C 
BRANCH   3   4
ATOM      4  C   UNL     1       6.758   6.179  18.340  0.00  0.00    +0.000 C 
BRANCH   4   8
ATOM      5  N   UNL     1       6.224   4.997  14.917  0.00  0.00    +0.000 N 
ATOM      6  C   UNL     1       5.232   6.053  14.930  0.00  0.00    +0.000 C 
ATOM      7  C   UNL     1       5.091   6.370  16.411  0.00  0.00    +0.000 C 
ATOM      8  N   UNL     1       6.343   5.914  16.971  0.00  0.00    +0.000 N 
ATOM      9  C   UNL     1       6.979   5.033  16.097  0.00  0.00    +0.000 C 
ATOM     10  O   UNL     1       7.987   4.383  16.317  0.00  0.00    +0.000 OA
BRANCH   5  12
ATOM     11  C   UNL     1       5.352   3.671  13.009  0.00  0.00    +0.000 C 
ATOM     12  C   UNL     1       6.581   4.209  13.743  0.00  0.00    +0.000 C 
ATOM     13  C   UNL     1       7.531   4.925  12.792  0.00  0.00    +0.000 C 
ENDBRANCH   5  12
ENDBRANCH   4   8
ENDBRANCH   3   4
ENDBRANCH   1   3
BRANCH   1  14
ATOM     14  C   UNL     1       5.052   3.143  19.853  0.00  0.00    +0.000 C 
BRANCH  14  15
ATOM     15  C   UNL     1       3.918   2.258  19.293  0.00  0.00    +0.000 C 
ATOM     16  O   UNL     1       4.187   1.234  18.652  0.00  0.00    +0.000 OA
ATOM     17  N   UNL     1       2.600   2.647  19.515  0.00  0.00    +0.000 N 
ATOM     18  C   UNL     1       1.520   1.791  19.070  0.00  0.00    +0.000 C 
ATOM     19  C   UNL     1       0.359   2.746  18.886  0.00  0.00    +0.000 C 
ATOM     20  C   UNL     1       0.548   3.787  19.991  0.00  0.00    +0.000 C 
ATOM     21  C   UNL     1       2.051   3.782  20.300  0.00  0.00    +0.000 C 
BRANCH  21  22
ATOM     22  C   UNL     1       2.721   5.099  19.944  0.00  0.00    +0.000 C 
ATOM     23  N   UNL     1       3.277   6.192  19.649  0.00  0.00    +0.000 NA
ENDBRANCH  21  22
ENDBRANCH  14  15
ENDBRANCH   1  14
TORSDOF 7
ENDMDL
MODEL 8
REMARK VINA RESULT:      -6.0      1.788      2.214
REMARK  Name = 
REMARK  9 active torsions:
REMARK  status: ('A' for Active; 'I' for Inactive)
REMARK    1  A    between atoms: C_1  and  C_2
REMARK    2  A    between atoms: C_2  and  C_3
REMARK    3  A    between atoms: C_2  and  N_4
REMARK    4  A    between atoms: N_7  and  C_8
REMARK    5  A    between atoms: C_8  and  C_9
REMARK    6  A    between atoms: C_9  and  N_10
REMARK    7  A    between atoms: N_10  and  C_11
REMARK    8  A    between atoms: C_11  and  C_12
REMARK    9  A    between atoms: C_18  and  C_19
REMARK                            x       y       z     vdW  Elec       q    Type
REMARK                         _______ _______ _______ _____ _____    ______ ____
ROOT
ATOM      1  N   UNL     1       4.981   5.309  17.457  0.00  0.00    +0.000 NA
ATOM      2  H   UNL     1       5.295   5.572  18.394  0.00  0.00    +0.000 HD
ENDROOT
BRANCH   1   3
ATOM      3  C   UNL     1       5.659   6.138  16.450  0.00  0.00    +0.000 C 
BRANCH   3   4
ATOM      4  C   UNL     1       6.965   5.509  15.917  0.00  0.00    +0.000 C 
BRANCH   4   8
ATOM      5  N   UNL     1       6.114   3.692  12.856  0.00  0.00    +0.000 N 
ATOM      6  C   UNL     1       7.353   4.292  12.405  0.00  0.00    +0.000 C 
ATOM      7  C   UNL     1       7.611   5.368  13.448  0.00  0.00    +0.000 C 
ATOM      8  N   UNL     1       6.870   4.902  14.598  0.00  0.00    +0.000 N 
ATOM      9  C   UNL     1       5.925   3.950  14.220  0.00  0.00    +0.000 C 
ATOM     10  O   UNL     1       5.066   3.450  14.926  0.00  0.00    +0.000 OA
BRANCH   5  12
ATOM     11  C   UNL     1       4.259   3.393  11.235  0.00  0.00    +0.000 C 
ATOM     12  C   UNL     1       5.335   2.724  12.092  0.00  0.00    +0.000 C 
ATOM     13  C   UNL     1       6.186   1.765  11.272  0.00  0.00    +0.000 C 
ENDBRANCH   5  12
ENDBRANCH   4   8
ENDBRANCH   3   4
ENDBRANCH   1   3
BRANCH   1  14
ATOM     14  C   UNL     1       3.514   5.450  17.357  0.00  0.00    +0.000 C 
BRANCH  14  15
ATOM     15  C   UNL     1       2.882   5.670  18.748  0.00  0.00    +0.000 C 
ATOM     16  O   UNL     1       3.086   6.724  19.365  0.00  0.00    +0.000 OA
ATOM     17  N   UNL     1       2.098   4.656  19.290  0.00  0.00    +0.000 N 
ATOM     18  C   UNL     1       1.429   4.872  20.557  0.00  0.00    +0.000 C 
ATOM     19  C   UNL     1       1.245   3.473  21.107  0.00  0.00    +0.000 C 
ATOM     20  C   UNL     1       0.995   2.610  19.869  0.00  0.00    +0.000 C 
ATOM     21  C   UNL     1       1.670   3.356  18.711  0.00  0.00    +0.000 C 
BRANCH  21  22
ATOM     22  C   UNL     1       2.838   2.582  18.124  0.00  0.00    +0.000 C 
ATOM     23  N   UNL     1       3.808   1.940  17.637  0.00  0.00    +0.000 NA
ENDBRANCH  21  22
ENDBRANCH  14  15
ENDBRANCH   1  14
TORSDOF 7
ENDMDL
MODEL 9
REMARK VINA RESULT:      -6.0      3.831      7.425
REMARK  Name = 
REMARK  9 active torsions:
REMARK  status: ('A' for Active; 'I' for Inactive)
REMARK    1  A    between atoms: C_1  and  C_2
REMARK    2  A    between atoms: C_2  and  C_3
REMARK    3  A    between atoms: C_2  and  N_4
REMARK    4  A    between atoms: N_7  and  C_8
REMARK    5  A    between atoms: C_8  and  C_9
REMARK    6  A    between atoms: C_9  and  N_10
REMARK    7  A    between atoms: N_10  and  C_11
REMARK    8  A    between atoms: C_11  and  C_12
REMARK    9  A    between atoms: C_18  and  C_19
REMARK                            x       y       z     vdW  Elec       q    Type
REMARK                         _______ _______ _______ _____ _____    ______ ____
ROOT
ATOM      1  N   UNL     1       3.334   4.268  19.399  0.00  0.00    +0.000 NA
ATOM      2  H   UNL     1       2.731   3.607  18.904  0.00  0.00    +0.000 HD
ENDROOT
BRANCH   1   3
ATOM      3  C   UNL     1       2.537   5.398  19.895  0.00  0.00    +0.000 C 
BRANCH   3   4
ATOM      4  C   UNL     1       2.947   6.755  19.279  0.00  0.00    +0.000 C 
BRANCH   4   8
ATOM      5  N   UNL     1       0.736   9.671  19.344  0.00  0.00    +0.000 N 
ATOM      6  C   UNL     1       0.777   9.409  20.768  0.00  0.00    +0.000 C 
ATOM      7  C   UNL     1       1.353   8.003  20.840  0.00  0.00    +0.000 C 
ATOM      8  N   UNL     1       2.066   7.870  19.590  0.00  0.00    +0.000 N 
ATOM      9  C   UNL     1       1.635   8.830  18.675  0.00  0.00    +0.000 C 
ATOM     10  O   UNL     1       1.948   8.914  17.500  0.00  0.00    +0.000 OA
BRANCH   5  12
ATOM     11  C   UNL     1      -1.212  10.445  18.015  0.00  0.00    +0.000 C 
ATOM     12  C   UNL     1       0.085  10.823  18.731  0.00  0.00    +0.000 C 
ATOM     13  C   UNL     1      -0.124  11.988  19.689  0.00  0.00    +0.000 C 
ENDBRANCH   5  12
ENDBRANCH   4   8
ENDBRANCH   3   4
ENDBRANCH   1   3
BRANCH   1  14
ATOM     14  C   UNL     1       4.415   4.733  18.506  0.00  0.00    +0.000 C 
BRANCH  14  15
ATOM     15  C   UNL     1       4.204   4.219  17.066  0.00  0.00    +0.000 C 
ATOM     16  O   UNL     1       3.185   3.579  16.777  0.00  0.00    +0.000 OA
ATOM     17  N   UNL     1       5.188   4.480  16.117  0.00  0.00    +0.000 N 
ATOM     18  C   UNL     1       4.976   4.079  14.741  0.00  0.00    +0.000 C 
ATOM     19  C   UNL     1       6.379   3.924  14.192  0.00  0.00    +0.000 C 
ATOM     20  C   UNL     1       7.184   5.013  14.904  0.00  0.00    +0.000 C 
ATOM     21  C   UNL     1       6.440   5.272  16.221  0.00  0.00    +0.000 C 
BRANCH  21  22
ATOM     22  C   UNL     1       7.262   4.883  17.438  0.00  0.00    +0.000 C 
ATOM     23  N   UNL     1       7.944   4.560  18.448  0.00  0.00    +0.000 NA
ENDBRANCH  21  22
ENDBRANCH  14  15
ENDBRANCH   1  14
TORSDOF 7
ENDMDL
