MODEL 1
REMARK VINA RESULT:      -7.6      0.000      0.000
REMARK  Name = 
REMARK  5 active torsions:
REMARK  status: ('A' for Active; 'I' for Inactive)
REMARK    1  A    between atoms: C_1  and  C_2
REMARK    2  A    between atoms: C_4  and  C_5
REMARK    3  A    between atoms: C_12  and  C_13
REMARK    4  A    between atoms: C_13  and  C_14
REMARK    5  A    between atoms: C_14  and  N_15
REMARK                            x       y       z     vdW  Elec       q    Type
REMARK                         _______ _______ _______ _____ _____    ______ ____
ROOT
ATOM      1  C   UNL     1       7.904   7.317  18.238  0.00  0.00    +0.000 C 
ATOM      2  C   UNL     1       7.084   6.330  17.510  0.00  0.00    +0.000 A 
ATOM      3  O   UNL     1       7.414   6.121  16.198  0.00  0.00    +0.000 OA
ATOM      4  C   UNL     1       6.530   5.167  15.771  0.00  0.00    +0.000 A 
ATOM      5  N   UNL     1       5.679   4.780  16.696  0.00  0.00    +0.000 NA
ATOM      6  C   UNL     1       6.025   5.508  17.817  0.00  0.00    +0.000 A 
ENDROOT
BRANCH   4   7
ATOM      7  C   UNL     1       6.638   4.733  14.382  0.00  0.00    +0.000 A 
ATOM      8  C   UNL     1       5.809   3.735  13.853  0.00  0.00    +0.000 A 
ATOM      9  C   UNL     1       5.953   3.317  12.528  0.00  0.00    +0.000 A 
ATOM     10  C   UNL     1       6.926   3.896  11.716  0.00  0.00    +0.000 A 
ATOM     11  C   UNL     1       7.749   4.901  12.222  0.00  0.00    +0.000 A 
ATOM     12  C   UNL     1       7.604   5.318  13.547  0.00  0.00    +0.000 A 
ENDBRANCH   4   7
BRANCH   6  13
ATOM     13  C   UNL     1       5.286   5.249  19.078  0.00  0.00    +0.000 C 
BRANCH  13  14
ATOM     14  C   UNL     1       4.655   3.859  19.235  0.00  0.00    +0.000 C 
BRANCH  14  15
ATOM     15  N   UNL     1       3.196   3.959  19.301  0.00  0.00    +0.000 NA
ATOM     16  C   UNL     1       2.498   2.678  19.336  0.00  0.00    +0.000 C 
ATOM     17  C   UNL     1       1.074   3.164  19.535  0.00  0.00    +0.000 C 
ATOM     18  C   UNL     1       1.224   4.285  20.557  0.00  0.00    +0.000 C 
ATOM     19  C   UNL     1       2.681   4.720  20.444  0.00  0.00    +0.000 C 
ENDBRANCH  14  15
ENDBRANCH  13  14
ENDBRANCH   6  13
TORSDOF 4
ENDMDL
MODEL 2
REMARK VINA RESULT:      -7.5      0.746      1.472
REMARK  Name = 
REMARK  5 active torsions:
REMARK  status: ('A' for Active; 'I' for Inactive)
REMARK    1  A    between atoms: C_1  and  C_2
REMARK    2  A    between atoms: C_4  and  C_5
REMARK    3  A    between atoms: C_12  and  C_13
REMARK    4  A    between atoms: C_13  and  C_14
REMARK    5  A    between atoms: C_14  and  N_15
REMARK                            x       y       z     vdW  Elec       q    Type
REMARK                         _______ _______ _______ _____ _____    ______ ____
ROOT
ATOM      1  C   UNL     1       7.916   7.534  18.118  0.00  0.00    +0.000 C 
ATOM      2  C   UNL     1       7.204   6.423  17.459  0.00  0.00    +0.000 A 
ATOM      3  O   UNL     1       7.460   6.248  16.126  0.00  0.00    +0.000 OA
ATOM      4  C   UNL     1       6.703   5.164  15.772  0.00  0.00    +0.000 A 
ATOM      5  N   UNL     1       5.997   4.663  16.762  0.00  0.00    +0.000 NA
ATOM      6  C   UNL     1       6.312   5.451  17.850  0.00  0.00    +0.000 A 
ENDROOT
BRANCH   4   7
ATOM      7  C   UNL     1       6.769   4.733  14.379  0.00  0.00    +0.000 A 
ATOM      8  C   UNL     1       7.700   5.275  13.481  0.00  0.00    +0.000 A 
ATOM      9  C   UNL     1       7.723   4.866  12.146  0.00  0.00    +0.000 A 
ATOM     10  C   UNL     1       6.819   3.908  11.694  0.00  0.00    +0.000 A 
ATOM     11  C   UNL     1       5.898   3.348  12.576  0.00  0.00    +0.000 A 
ATOM     12  C   UNL     1       5.875   3.757  13.912  0.00  0.00    +0.000 A 
ENDBRANCH   4   7
BRANCH   6  13
ATOM     13  C   UNL     1       5.722   5.100  19.166  0.00  0.00    +0.000 C 
BRANCH  13  14
ATOM     14  C   UNL     1       4.245   5.457  19.378  0.00  0.00    +0.000 C 
BRANCH  14  15
ATOM     15  N   UNL     1       3.387   4.314  19.061  0.00  0.00    +0.000 NA
ATOM     16  C   UNL     1       2.709   3.723  20.210  0.00  0.00    +0.000 C 
ATOM     17  C   UNL     1       1.841   2.700  19.499  0.00  0.00    +0.000 C 
ATOM     18  C   UNL     1       1.332   3.457  18.278  0.00  0.00    +0.000 C 
ATOM     19  C   UNL     1       2.334   4.588  18.078  0.00  0.00    +0.000 C 
ENDBRANCH  14  15
ENDBRANCH  13  14
ENDBRANCH   6  13
TORSDOF 4
ENDMDL
MODEL 3
REMARK VINA RESULT:      -7.5      0.521      1.224
REMARK  Name = 
REMARK  5 active torsions:
REMARK  status: ('A' for Active; 'I' for Inactive)
REMARK    1  A    between atoms: C_1  and  C_2
REMARK    2  A    between atoms: C_4  and  C_5
REMARK    3  A    between atoms: C_12  and  C_13
REMARK    4  A    between atoms: C_13  and  C_14
REMARK    5  A    between atoms: C_14  and  N_15
REMARK                            x       y       z     vdW  Elec       q    Type
REMARK                         _______ _______ _______ _____ _____    ______ ____
ROOT
ATOM      1  C   UNL     1       7.984   6.968  18.511  0.00  0.00    +0.000 C 
ATOM      2  C   UNL     1       7.170   6.039  17.705  0.00  0.00    +0.000 A 
ATOM      3  O   UNL     1       7.509   5.930  16.383  0.00  0.00    +0.000 OA
ATOM      4  C   UNL     1       6.629   5.011  15.879  0.00  0.00    +0.000 A 
ATOM      5  N   UNL     1       5.772   4.554  16.766  0.00  0.00    +0.000 NA
ATOM      6  C   UNL     1       6.110   5.195  17.941  0.00  0.00    +0.000 A 
ENDROOT
BRANCH   4   7
ATOM      7  C   UNL     1       6.748   4.684  14.462  0.00  0.00    +0.000 A 
ATOM      8  C   UNL     1       7.686   5.317  13.634  0.00  0.00    +0.000 A 
ATOM      9  C   UNL     1       7.759   5.007  12.274  0.00  0.00    +0.000 A 
ATOM     10  C   UNL     1       6.898   4.059  11.727  0.00  0.00    +0.000 A 
ATOM     11  C   UNL     1       5.971   3.409  12.539  0.00  0.00    +0.000 A 
ATOM     12  C   UNL     1       5.897   3.719  13.898  0.00  0.00    +0.000 A 
ENDBRANCH   4   7
BRANCH   6  13
ATOM     13  C   UNL     1       5.362   4.840  19.174  0.00  0.00    +0.000 C 
BRANCH  13  14
ATOM     14  C   UNL     1       4.650   3.481  19.182  0.00  0.00    +0.000 C 
BRANCH  14  15
ATOM     15  N   UNL     1       3.216   3.651  19.419  0.00  0.00    +0.000 NA
ATOM     16  C   UNL     1       2.356   2.835  18.568  0.00  0.00    +0.000 C 
ATOM     17  C   UNL     1       1.004   3.164  19.174  0.00  0.00    +0.000 C 
ATOM     18  C   UNL     1       1.279   3.157  20.673  0.00  0.00    +0.000 C 
ATOM     19  C   UNL     1       2.781   3.382  20.793  0.00  0.00    +0.000 C 
ENDBRANCH  14  15
ENDBRANCH  13  14
ENDBRANCH   6  13
TORSDOF 4
ENDMDL
MODEL 4
REMARK VINA RESULT:      -7.4      0.775      1.155
REMARK  Name = 
REMARK  5 active torsions:
REMARK  status: ('A' for Active; 'I' for Inactive)
REMARK    1  A    between atoms: C_1  and  C_2
REMARK    2  A    between atoms: C_4  and  C_5
REMARK    3  A    between atoms: C_12  and  C_13
REMARK    4  A    between atoms: C_13  and  C_14
REMARK    5  A    between atoms: C_14  and  N_15
REMARK                            x       y       z     vdW  Elec       q    Type
REMARK                         _______ _______ _______ _____ _____    ______ ____
ROOT
ATOM      1  C   UNL     1       8.059   6.307  18.937  0.00  0.00    +0.000 C 
ATOM      2  C   UNL     1       7.074   5.745  17.995  0.00  0.00    +0.000 A 
ATOM      3  O   UNL     1       7.505   5.556  16.710  0.00  0.00    +0.000 OA
ATOM      4  C   UNL     1       6.426   5.019  16.062  0.00  0.00    +0.000 A 
ATOM      5  N   UNL     1       5.366   4.872  16.828  0.00  0.00    +0.000 NA
ATOM      6  C   UNL     1       5.766   5.323  18.069  0.00  0.00    +0.000 A 
ENDROOT
BRANCH   4   7
ATOM      7  C   UNL     1       6.588   4.707  14.646  0.00  0.00    +0.000 A 
ATOM      8  C   UNL     1       5.780   3.758  14.002  0.00  0.00    +0.000 A 
ATOM      9  C   UNL     1       5.976   3.456  12.652  0.00  0.00    +0.000 A 
ATOM     10  C   UNL     1       6.978   4.101  11.931  0.00  0.00    +0.000 A 
ATOM     11  C   UNL     1       7.779   5.057  12.552  0.00  0.00    +0.000 A 
ATOM     12  C   UNL     1       7.583   5.359  13.901  0.00  0.00    +0.000 A 
ENDBRANCH   4   7
BRANCH   6  13
ATOM     13  C   UNL     1       4.804   5.225  19.195  0.00  0.00    +0.000 C 
BRANCH  13  14
ATOM     14  C   UNL     1       3.314   5.320  18.841  0.00  0.00    +0.000 C 
BRANCH  14  15
ATOM     15  N   UNL     1       2.582   4.170  19.376  0.00  0.00    +0.000 NA
ATOM     16  C   UNL     1       1.875   4.426  20.626  0.00  0.00    +0.000 C 
ATOM     17  C   UNL     1       1.152   3.101  20.790  0.00  0.00    +0.000 C 
ATOM     18  C   UNL     1       0.671   2.787  19.378  0.00  0.00    +0.000 C 
ATOM     19  C   UNL     1       1.583   3.599  18.467  0.00  0.00    +0.000 C 
ENDBRANCH  14  15
ENDBRANCH  13  14
ENDBRANCH   6  13
TORSDOF 4
ENDMDL
MODEL 5
REMARK VINA RESULT:      -7.4      0.973      1.511
REMARK  Name = 
REMARK  5 active torsions:
REMARK  status: ('A' for Active; 'I' for Inactive)
REMARK    1  A    between atoms: C_1  and  C_2
REMARK    2  A    between atoms: C_4  and  C_5
REMARK    3  A    between atoms: C_12  and  C_13
REMARK    4  A    between atoms: C_13  and  C_14
REMARK    5  A    between atoms: C_14  and  N_15
REMARK                            x       y       z     vdW  Elec       q    Type
REMARK                         _______ _______ _______ _____ _____    ______ ____
ROOT
ATOM      1  C   UNL     1       7.792   5.633  19.099  0.00  0.00    +0.000 C 
ATOM      2  C   UNL     1       6.845   5.430  17.986  0.00  0.00    +0.000 A 
ATOM      3  O   UNL     1       7.399   5.164  16.763  0.00  0.00    +0.000 OA
ATOM      4  C   UNL     1       6.324   5.004  15.929  0.00  0.00    +0.000 A 
ATOM      5  N   UNL     1       5.162   5.159  16.525  0.00  0.00    +0.000 NA
ATOM      6  C   UNL     1       5.477   5.424  17.842  0.00  0.00    +0.000 A 
ENDROOT
BRANCH   4   7
ATOM      7  C   UNL     1       6.608   4.707  14.529  0.00  0.00    +0.000 A 
ATOM      8  C   UNL     1       7.578   5.414  13.805  0.00  0.00    +0.000 A 
ATOM      9  C   UNL     1       7.810   5.130  12.458  0.00  0.00    +0.000 A 
ATOM     10  C   UNL     1       7.076   4.132  11.819  0.00  0.00    +0.000 A 
ATOM     11  C   UNL     1       6.119   3.409  12.527  0.00  0.00    +0.000 A 
ATOM     12  C   UNL     1       5.887   3.694  13.875  0.00  0.00    +0.000 A 
ENDBRANCH   4   7
BRANCH   6  13
ATOM     13  C   UNL     1       4.364   5.583  18.812  0.00  0.00    +0.000 C 
BRANCH  13  14
ATOM     14  C   UNL     1       2.943   5.603  18.233  0.00  0.00    +0.000 C 
BRANCH  14  15
ATOM     15  N   UNL     1       2.013   4.904  19.124  0.00  0.00    +0.000 NA
ATOM     16  C   UNL     1       1.692   3.539  18.721  0.00  0.00    +0.000 C 
ATOM     17  C   UNL     1       0.850   3.110  19.908  0.00  0.00    +0.000 C 
ATOM     18  C   UNL     1       1.606   3.683  21.101  0.00  0.00    +0.000 C 
ATOM     19  C   UNL     1       2.449   4.812  20.520  0.00  0.00    +0.000 C 
ENDBRANCH  14  15
ENDBRANCH  13  14
ENDBRANCH   6  13
TORSDOF 4
ENDMDL
MODEL 6
REMARK VINA RESULT:      -7.4      1.003      1.588
REMARK  Name = 
REMARK  5 active torsions:
REMARK  status: ('A' for Active; 'I' for Inactive)
REMARK    1  A    between atoms: C_1  and  C_2
REMARK    2  A    between atoms: C_4  and  C_5
REMARK    3  A    between atoms: C_12  and  C_13
REMARK    4  A    between atoms: C_13  and  C_14
REMARK    5  A    between atoms: C_14  and  N_15
REMARK                            x       y       z     vdW  Elec       q    Type
REMARK                         _______ _______ _______ _____ _____    ______ ____
ROOT
ATOM      1  C   UNL     1       7.588   5.949  18.918  0.00  0.00    +0.000 C 
ATOM      2  C   UNL     1       6.877   5.186  17.876  0.00  0.00    +0.000 A 
ATOM      3  O   UNL     1       7.330   5.346  16.594  0.00  0.00    +0.000 OA
ATOM      4  C   UNL     1       6.527   4.531  15.843  0.00  0.00    +0.000 A 
ATOM      5  N   UNL     1       5.614   3.894  16.542  0.00  0.00    +0.000 NA
ATOM      6  C   UNL     1       5.829   4.295  17.845  0.00  0.00    +0.000 A 
ENDROOT
BRANCH   4   7
ATOM      7  C   UNL     1       6.776   4.494  14.405  0.00  0.00    +0.000 A 
ATOM      8  C   UNL     1       7.664   5.385  13.786  0.00  0.00    +0.000 A 
ATOM      9  C   UNL     1       7.863   5.347  12.404  0.00  0.00    +0.000 A 
ATOM     10  C   UNL     1       7.179   4.416  11.626  0.00  0.00    +0.000 A 
ATOM     11  C   UNL     1       6.304   3.513  12.227  0.00  0.00    +0.000 A 
ATOM     12  C   UNL     1       6.106   3.551  13.609  0.00  0.00    +0.000 A 
ENDBRANCH   4   7
BRANCH   6  13
ATOM     13  C   UNL     1       4.992   3.691  18.913  0.00  0.00    +0.000 C 
BRANCH  13  14
ATOM     14  C   UNL     1       3.846   2.778  18.458  0.00  0.00    +0.000 C 
BRANCH  14  15
ATOM     15  N   UNL     1       2.756   2.792  19.435  0.00  0.00    +0.000 NA
ATOM     16  C   UNL     1       3.186   2.839  20.828  0.00  0.00    +0.000 C 
ATOM     17  C   UNL     1       1.838   2.975  21.512  0.00  0.00    +0.000 C 
ATOM     18  C   UNL     1       1.094   3.969  20.627  0.00  0.00    +0.000 C 
ATOM     19  C   UNL     1       1.801   3.893  19.279  0.00  0.00    +0.000 C 
ENDBRANCH  14  15
ENDBRANCH  13  14
ENDBRANCH   6  13
TORSDOF 4
ENDMDL
MODEL 7
REMARK VINA RESULT:      -7.3      1.374      1.699
REMARK  Name = 
REMARK  5 active torsions:
REMARK  status: ('A' for Active; 'I' for Inactive)
REMARK    1  A    between atoms: C_1  and  C_2
REMARK    2  A    between atoms: C_4  and  C_5
REMARK    3  A    between atoms: C_12  and  C_13
REMARK    4  A    between atoms: C_13  and  C_14
REMARK    5  A    between atoms: C_14  and  N_15
REMARK                            x       y       z     vdW  Elec       q    Type
REMARK                         _______ _______ _______ _____ _____    ______ ____
ROOT
ATOM      1  C   UNL     1       3.783   7.252  17.686  0.00  0.00    +0.000 C 
ATOM      2  C   UNL     1       4.517   6.060  17.221  0.00  0.00    +0.000 A 
ATOM      3  O   UNL     1       4.897   6.060  15.906  0.00  0.00    +0.000 OA
ATOM      4  C   UNL     1       5.561   4.874  15.742  0.00  0.00    +0.000 A 
ATOM      5  N   UNL     1       5.614   4.140  16.832  0.00  0.00    +0.000 NA
ATOM      6  C   UNL     1       4.958   4.887  17.789  0.00  0.00    +0.000 A 
ENDROOT
BRANCH   4   7
ATOM      7  C   UNL     1       6.092   4.588  14.413  0.00  0.00    +0.000 A 
ATOM      8  C   UNL     1       5.473   3.670  13.553  0.00  0.00    +0.000 A 
ATOM      9  C   UNL     1       6.018   3.392  12.297  0.00  0.00    +0.000 A 
ATOM     10  C   UNL     1       7.187   4.030  11.887  0.00  0.00    +0.000 A 
ATOM     11  C   UNL     1       7.806   4.956  12.724  0.00  0.00    +0.000 A 
ATOM     12  C   UNL     1       7.261   5.234  13.979  0.00  0.00    +0.000 A 
ENDBRANCH   4   7
BRANCH   6  13
ATOM     13  C   UNL     1       4.901   4.359  19.175  0.00  0.00    +0.000 C 
BRANCH  13  14
ATOM     14  C   UNL     1       4.459   2.899  19.340  0.00  0.00    +0.000 C 
BRANCH  14  15
ATOM     15  N   UNL     1       3.075   2.828  19.812  0.00  0.00    +0.000 NA
ATOM     16  C   UNL     1       2.539   4.087  20.320  0.00  0.00    +0.000 C 
ATOM     17  C   UNL     1       1.102   3.671  20.576  0.00  0.00    +0.000 C 
ATOM     18  C   UNL     1       0.759   2.820  19.360  0.00  0.00    +0.000 C 
ATOM     19  C   UNL     1       2.107   2.359  18.816  0.00  0.00    +0.000 C 
ENDBRANCH  14  15
ENDBRANCH  13  14
ENDBRANCH   6  13
TORSDOF 4
ENDMDL
MODEL 8
REMARK VINA RESULT:      -7.1      1.061      1.790
REMARK  Name = 
REMARK  5 active torsions:
REMARK  status: ('A' for Active; 'I' for Inactive)
REMARK    1  A    between atoms: C_1  and  C_2
REMARK    2  A    between atoms: C_4  and  C_5
REMARK    3  A    between atoms: C_12  and  C_13
REMARK    4  A    between atoms: C_13  and  C_14
REMARK    5  A    between atoms: C_14  and  N_15
REMARK                            x       y       z     vdW  Elec       q    Type
REMARK                         _______ _______ _______ _____ _____    ______ ____
ROOT
ATOM      1  C   UNL     1       7.721   5.786  19.003  0.00  0.00    +0.000 C 
ATOM      2  C   UNL     1       6.787   5.654  17.869  0.00  0.00    +0.000 A 
ATOM      3  O   UNL     1       7.333   5.249  16.681  0.00  0.00    +0.000 OA
ATOM      4  C   UNL     1       6.271   5.191  15.819  0.00  0.00    +0.000 A 
ATOM      5  N   UNL     1       5.125   5.535  16.364  0.00  0.00    +0.000 NA
ATOM      6  C   UNL     1       5.436   5.826  17.677  0.00  0.00    +0.000 A 
ENDROOT
BRANCH   4   7
ATOM      7  C   UNL     1       6.550   4.781  14.446  0.00  0.00    +0.000 A 
ATOM      8  C   UNL     1       7.574   5.373  13.693  0.00  0.00    +0.000 A 
ATOM      9  C   UNL     1       7.801   4.983  12.371  0.00  0.00    +0.000 A 
ATOM     10  C   UNL     1       7.010   3.996  11.788  0.00  0.00    +0.000 A 
ATOM     11  C   UNL     1       5.999   3.387  12.528  0.00  0.00    +0.000 A 
ATOM     12  C   UNL     1       5.771   3.776  13.850  0.00  0.00    +0.000 A 
ENDBRANCH   4   7
BRANCH   6  13
ATOM     13  C   UNL     1       4.328   6.189  18.597  0.00  0.00    +0.000 C 
BRANCH  13  14
ATOM     14  C   UNL     1       3.835   5.091  19.549  0.00  0.00    +0.000 C 
BRANCH  14  15
ATOM     15  N   UNL     1       3.512   3.871  18.807  0.00  0.00    +0.000 NA
ATOM     16  C   UNL     1       4.044   2.644  19.391  0.00  0.00    +0.000 C 
ATOM     17  C   UNL     1       3.413   1.622  18.462  0.00  0.00    +0.000 C 
ATOM     18  C   UNL     1       1.994   2.145  18.275  0.00  0.00    +0.000 C 
ATOM     19  C   UNL     1       2.079   3.629  18.614  0.00  0.00    +0.000 C 
ENDBRANCH  14  15
ENDBRANCH  13  14
ENDBRANCH   6  13
TORSDOF 4
ENDMDL
MODEL 9
REMARK VINA RESULT:      -7.1      1.447      6.763
REMARK  Name = 
REMARK  5 active torsions:
REMARK  status: ('A' for Active; 'I' for Inactive)
REMARK    1  A    between atoms: C_1  and  C_2
REMARK    2  A    between atoms: C_4  and  C_5
REMARK    3  A    between atoms: C_12  and  C_13
REMARK    4  A    between atoms: C_13  and  C_14
REMARK    5  A    between atoms: C_14  and  N_15
REMARK                            x       y       z     vdW  Elec       q    Type
REMARK                         _______ _______ _______ _____ _____    ______ ____
ROOT
ATOM      1  C   UNL     1       7.583   5.995  19.301  0.00  0.00    +0.000 C 
ATOM      2  C   UNL     1       6.499   5.222  18.666  0.00  0.00    +0.000 A 
ATOM      3  O   UNL     1       5.349   5.084  19.394  0.00  0.00    +0.000 OA
ATOM      4  C   UNL     1       4.518   4.357  18.585  0.00  0.00    +0.000 A 
ATOM      5  N   UNL     1       5.056   4.025  17.432  0.00  0.00    +0.000 NA
ATOM      6  C   UNL     1       6.320   4.578  17.464  0.00  0.00    +0.000 A 
ENDROOT
BRANCH   4   7
ATOM      7  C   UNL     1       3.190   4.044  19.104  0.00  0.00    +0.000 A 
ATOM      8  C   UNL     1       2.737   4.556  20.328  0.00  0.00    +0.000 A 
ATOM      9  C   UNL     1       1.473   4.217  20.817  0.00  0.00    +0.000 A 
ATOM     10  C   UNL     1       0.647   3.366  20.086  0.00  0.00    +0.000 A 
ATOM     11  C   UNL     1       1.076   2.861  18.860  0.00  0.00    +0.000 A 
ATOM     12  C   UNL     1       2.340   3.200  18.372  0.00  0.00    +0.000 A 
ENDBRANCH   4   7
BRANCH   6  13
ATOM     13  C   UNL     1       7.177   4.440  16.259  0.00  0.00    +0.000 C 
BRANCH  13  14
ATOM     14  C   UNL     1       6.697   5.148  14.986  0.00  0.00    +0.000 C 
BRANCH  14  15
ATOM     15  N   UNL     1       6.705   4.227  13.848  0.00  0.00    +0.000 NA
ATOM     16  C   UNL     1       5.383   3.869  13.344  0.00  0.00    +0.000 C 
ATOM     17  C   UNL     1       5.783   3.047  12.132  0.00  0.00    +0.000 C 
ATOM     18  C   UNL     1       6.936   3.842  11.532  0.00  0.00    +0.000 C 
ATOM     19  C   UNL     1       7.460   4.694  12.682  0.00  0.00    +0.000 C 
ENDBRANCH  14  15
ENDBRANCH  13  14
ENDBRANCH   6  13
TORSDOF 4
ENDMDL
