MODEL 1
REMARK VINA RESULT:      -8.1      0.000      0.000
REMARK  Name = 
REMARK  10 active torsions:
REMARK  status: ('A' for Active; 'I' for Inactive)
REMARK    1  A    between atoms: C_1  and  N_2
REMARK    2  A    between atoms: N_2  and  C_3
REMARK    3  A    between atoms: N_2  and  C_4
REMARK    4  A    between atoms: C_4  and  C_5
REMARK    5  A    between atoms: C_5  and  C_6
REMARK    6  A    between atoms: C_10  and  C_11
REMARK    7  A    between atoms: C_11  and  N_12
REMARK    8  A    between atoms: C_14  and  C_15
REMARK    9  A    between atoms: C_20  and  N_21
REMARK   10  A    between atoms: C_22  and  C_24
REMARK                            x       y       z     vdW  Elec       q    Type
REMARK                         _______ _______ _______ _____ _____    ______ ____
ROOT
ATOM      1  C   UNL     1       2.109   6.607  20.043  0.00  0.00    +0.000 A 
ATOM      2  C   UNL     1       1.782   5.556  20.899  0.00  0.00    +0.000 A 
ATOM      3  C   UNL     1       2.394   4.314  20.743  0.00  0.00    +0.000 A 
ATOM      4  C   UNL     1       3.337   4.092  19.726  0.00  0.00    +0.000 A 
ATOM      5 CL   UNL     1       4.185   2.595  19.878  0.00  0.00    +0.000 Cl
ATOM      6  C   UNL     1       3.626   5.108  18.794  0.00  0.00    +0.000 A 
ATOM      7  C   UNL     1       3.020   6.372  18.996  0.00  0.00    +0.000 A 
ENDROOT
BRANCH   1  10
ATOM      8  N   UNL     1       0.467   9.604  21.206  0.00  0.00    +0.000 N 
ATOM      9  C   UNL     1       0.831   8.301  21.403  0.00  0.00    +0.000 A 
ATOM     10  C   UNL     1       1.511   7.911  20.269  0.00  0.00    +0.000 A 
ATOM     11  C   UNL     1       1.495   9.068  19.449  0.00  0.00    +0.000 A 
ATOM     12  N   UNL     1       0.861  10.096  20.018  0.00  0.00    +0.000 NA
BRANCH   8  13
ATOM     13  C   UNL     1      -0.323  10.434  22.105  0.00  0.00    +0.000 C 
BRANCH  13  18
ATOM     14  C   UNL     1      -3.275  12.950  22.938  0.00  0.00    +0.000 C 
ATOM     15  O   UNL     1      -4.272  12.305  22.617  0.00  0.00    +0.000 OA
ATOM     16  N   UNL     1      -2.119  12.934  22.204  0.00  0.00    +0.000 N 
ATOM     17  C   UNL     1      -1.849  12.183  20.990  0.00  0.00    +0.000 C 
ATOM     18  C   UNL     1      -0.471  11.859  21.588  0.00  0.00    +0.000 C 
ATOM     19  C   UNL     1      -0.736  12.938  22.654  0.00  0.00    +0.000 C 
BRANCH  14  20
ATOM     20  C   UNL     1      -3.274  13.858  24.149  0.00  0.00    +0.000 C 
BRANCH  20  21
ATOM     21  C   UNL     1      -3.347  15.321  23.697  0.00  0.00    +0.000 C 
BRANCH  21  23
ATOM     22  C   UNL     1      -2.727  17.489  24.529  0.00  0.00    +0.000 C 
ATOM     23  N   UNL     1      -2.224  16.160  24.158  0.00  0.00    +0.000 NA
ATOM     24  C   UNL     1      -1.528  15.569  25.304  0.00  0.00    +0.000 C 
ENDBRANCH  21  23
ENDBRANCH  20  21
ENDBRANCH  14  20
ENDBRANCH  13  18
ENDBRANCH   8  13
ENDBRANCH   1  10
BRANCH   6  25
ATOM     25  N   UNL     1       4.479   5.030  17.658  0.00  0.00    +0.000 N 
ATOM     26  C   UNL     1       5.845   4.843  17.598  0.00  0.00    +0.000 C 
ATOM     27  O   UNL     1       6.620   4.690  18.529  0.00  0.00    +0.000 OA
ATOM     28  H   UNL     1       4.029   4.937  16.749  0.00  0.00    +0.000 HD
BRANCH  26  29
ATOM     29  C   UNL     1       6.340   4.736  16.227  0.00  0.00    +0.000 A 
ATOM     30  C   UNL     1       5.830   3.905  15.254  0.00  0.00    +0.000 A 
ATOM     31  O   UNL     1       6.490   4.158  14.093  0.00  0.00    +0.000 OA
ATOM     32  C   UNL     1       7.382   5.129  14.426  0.00  0.00    +0.000 A 
ATOM     33  N   UNL     1       8.124   5.601  13.424  0.00  0.00    +0.000 N 
ATOM     34  N   UNL     1       7.355   5.507  15.681  0.00  0.00    +0.000 NA
ATOM     35  H   UNL     1       7.761   5.454  12.489  0.00  0.00    +0.000 HD
ATOM     36  H   UNL     1       8.543   6.511  13.566  0.00  0.00    +0.000 HD
ENDBRANCH  26  29
ENDBRANCH   6  25
TORSDOF 8
ENDMDL
MODEL 2
REMARK VINA RESULT:      -8.0      1.493      2.129
REMARK  Name = 
REMARK  10 active torsions:
REMARK  status: ('A' for Active; 'I' for Inactive)
REMARK    1  A    between atoms: C_1  and  N_2
REMARK    2  A    between atoms: N_2  and  C_3
REMARK    3  A    between atoms: N_2  and  C_4
REMARK    4  A    between atoms: C_4  and  C_5
REMARK    5  A    between atoms: C_5  and  C_6
REMARK    6  A    between atoms: C_10  and  C_11
REMARK    7  A    between atoms: C_11  and  N_12
REMARK    8  A    between atoms: C_14  and  C_15
REMARK    9  A    between atoms: C_20  and  N_21
REMARK   10  A    between atoms: C_22  and  C_24
REMARK                            x       y       z     vdW  Elec       q    Type
REMARK                         _______ _______ _______ _____ _____    ______ ____
ROOT
ATOM      1  C   UNL     1       2.162   6.561  19.928  0.00  0.00    +0.000 A 
ATOM      2  C   UNL     1       1.822   5.511  20.780  0.00  0.00    +0.000 A 
ATOM      3  C   UNL     1       2.433   4.268  20.631  0.00  0.00    +0.000 A 
ATOM      4  C   UNL     1       3.386   4.043  19.624  0.00  0.00    +0.000 A 
ATOM      5 CL   UNL     1       4.227   2.543  19.785  0.00  0.00    +0.000 Cl
ATOM      6  C   UNL     1       3.689   5.057  18.695  0.00  0.00    +0.000 A 
ATOM      7  C   UNL     1       3.084   6.323  18.891  0.00  0.00    +0.000 A 
ENDROOT
BRANCH   1  10
ATOM      8  N   UNL     1       0.450   9.538  21.040  0.00  0.00    +0.000 N 
ATOM      9  C   UNL     1       0.766   8.219  21.213  0.00  0.00    +0.000 A 
ATOM     10  C   UNL     1       1.566   7.867  20.147  0.00  0.00    +0.000 A 
ATOM     11  C   UNL     1       1.666   9.061  19.389  0.00  0.00    +0.000 A 
ATOM     12  N   UNL     1       0.989  10.076  19.930  0.00  0.00    +0.000 NA
BRANCH   8  13
ATOM     13  C   UNL     1      -0.423  10.344  21.882  0.00  0.00    +0.000 C 
BRANCH  13  18
ATOM     14  C   UNL     1      -3.277  13.018  21.213  0.00  0.00    +0.000 C 
ATOM     15  O   UNL     1      -3.870  12.538  20.248  0.00  0.00    +0.000 OA
ATOM     16  N   UNL     1      -1.913  12.983  21.332  0.00  0.00    +0.000 N 
ATOM     17  C   UNL     1      -0.957  12.391  20.413  0.00  0.00    +0.000 C 
ATOM     18  C   UNL     1      -0.228  11.836  21.646  0.00  0.00    +0.000 C 
ATOM     19  C   UNL     1      -1.091  12.772  22.513  0.00  0.00    +0.000 C 
BRANCH  14  20
ATOM     20  C   UNL     1      -4.017  13.736  22.320  0.00  0.00    +0.000 C 
BRANCH  20  21
ATOM     21  C   UNL     1      -5.525  13.691  22.046  0.00  0.00    +0.000 C 
BRANCH  21  23
ATOM     22  C   UNL     1      -6.286  12.714  24.106  0.00  0.00    +0.000 C 
ATOM     23  N   UNL     1      -6.221  12.538  22.649  0.00  0.00    +0.000 NA
ATOM     24  C   UNL     1      -7.578  12.374  22.121  0.00  0.00    +0.000 C 
ENDBRANCH  21  23
ENDBRANCH  20  21
ENDBRANCH  14  20
ENDBRANCH  13  18
ENDBRANCH   8  13
ENDBRANCH   1  10
BRANCH   6  25
ATOM     25  N   UNL     1       4.554   4.977  17.568  0.00  0.00    +0.000 N 
ATOM     26  C   UNL     1       5.911   4.734  17.522  0.00  0.00    +0.000 C 
ATOM     27  O   UNL     1       6.665   4.520  18.457  0.00  0.00    +0.000 OA
ATOM     28  H   UNL     1       4.113   4.931  16.651  0.00  0.00    +0.000 HD
BRANCH  26  29
ATOM     29  C   UNL     1       6.421   4.646  16.154  0.00  0.00    +0.000 A 
ATOM     30  C   UNL     1       6.035   3.717  15.214  0.00  0.00    +0.000 A 
ATOM     31  O   UNL     1       6.658   4.016  14.043  0.00  0.00    +0.000 OA
ATOM     32  C   UNL     1       7.403   5.114  14.338  0.00  0.00    +0.000 A 
ATOM     33  N   UNL     1       8.075   5.649  13.317  0.00  0.00    +0.000 N 
ATOM     34  N   UNL     1       7.319   5.531  15.578  0.00  0.00    +0.000 NA
ATOM     35  H   UNL     1       7.740   5.418  12.390  0.00  0.00    +0.000 HD
ATOM     36  H   UNL     1       8.361   6.613  13.425  0.00  0.00    +0.000 HD
ENDBRANCH  26  29
ENDBRANCH   6  25
TORSDOF 8
ENDMDL
MODEL 3
REMARK VINA RESULT:      -7.8      3.582      4.496
REMARK  Name = 
REMARK  10 active torsions:
REMARK  status: ('A' for Active; 'I' for Inactive)
REMARK    1  A    between atoms: C_1  and  N_2
REMARK    2  A    between atoms: N_2  and  C_3
REMARK    3  A    between atoms: N_2  and  C_4
REMARK    4  A    between atoms: C_4  and  C_5
REMARK    5  A    between atoms: C_5  and  C_6
REMARK    6  A    between atoms: C_10  and  C_11
REMARK    7  A    between atoms: C_11  and  N_12
REMARK    8  A    between atoms: C_14  and  C_15
REMARK    9  A    between atoms: C_20  and  N_21
REMARK   10  A    between atoms: C_22  and  C_24
REMARK                            x       y       z     vdW  Elec       q    Type
REMARK                         _______ _______ _______ _____ _____    ______ ____
ROOT
ATOM      1  C   UNL     1       1.830   6.828  20.318  0.00  0.00    +0.000 A 
ATOM      2  C   UNL     1       1.182   5.750  20.921  0.00  0.00    +0.000 A 
ATOM      3  C   UNL     1       1.520   4.447  20.567  0.00  0.00    +0.000 A 
ATOM      4  C   UNL     1       2.504   4.189  19.598  0.00  0.00    +0.000 A 
ATOM      5 CL   UNL     1       2.978   2.531  19.510  0.00  0.00    +0.000 Cl
ATOM      6  C   UNL     1       3.117   5.255  18.910  0.00  0.00    +0.000 A 
ATOM      7  C   UNL     1       2.784   6.571  19.315  0.00  0.00    +0.000 A 
ENDROOT
BRANCH   1  10
ATOM      8  N   UNL     1       0.906  10.289  20.755  0.00  0.00    +0.000 N 
ATOM      9  C   UNL     1       1.133   9.219  19.936  0.00  0.00    +0.000 A 
ATOM     10  C   UNL     1       1.512   8.176  20.754  0.00  0.00    +0.000 A 
ATOM     11  C   UNL     1       1.480   8.737  22.055  0.00  0.00    +0.000 A 
ATOM     12  N   UNL     1       1.112  10.020  22.057  0.00  0.00    +0.000 NA
BRANCH   8  13
ATOM     13  C   UNL     1       0.538  11.638  20.347  0.00  0.00    +0.000 C 
BRANCH  13  18
ATOM     14  C   UNL     1       2.316  14.731  18.610  0.00  0.00    +0.000 C 
ATOM     15  O   UNL     1       1.699  15.688  19.077  0.00  0.00    +0.000 OA
ATOM     16  N   UNL     1       1.698  13.565  18.243  0.00  0.00    +0.000 N 
ATOM     17  C   UNL     1       0.287  13.238  18.344  0.00  0.00    +0.000 C 
ATOM     18  C   UNL     1       0.721  11.854  18.850  0.00  0.00    +0.000 C 
ATOM     19  C   UNL     1       2.151  12.190  18.389  0.00  0.00    +0.000 C 
BRANCH  14  20
ATOM     20  C   UNL     1       3.806  14.796  18.357  0.00  0.00    +0.000 C 
BRANCH  20  21
ATOM     21  C   UNL     1       4.552  14.901  19.692  0.00  0.00    +0.000 C 
BRANCH  21  23
ATOM     22  C   UNL     1       5.524  16.957  18.915  0.00  0.00    +0.000 C 
ATOM     23  N   UNL     1       5.787  15.708  19.640  0.00  0.00    +0.000 NA
ATOM     24  C   UNL     1       6.299  16.022  20.976  0.00  0.00    +0.000 C 
ENDBRANCH  21  23
ENDBRANCH  20  21
ENDBRANCH  14  20
ENDBRANCH  13  18
ENDBRANCH   8  13
ENDBRANCH   1  10
BRANCH   6  25
ATOM     25  N   UNL     1       4.059   5.177  17.846  0.00  0.00    +0.000 N 
ATOM     26  C   UNL     1       5.372   4.757  17.869  0.00  0.00    +0.000 C 
ATOM     27  O   UNL     1       6.009   4.342  18.824  0.00  0.00    +0.000 OA
ATOM     28  H   UNL     1       3.697   5.291  16.901  0.00  0.00    +0.000 HD
BRANCH  26  29
ATOM     29  C   UNL     1       5.984   4.747  16.541  0.00  0.00    +0.000 A 
ATOM     30  C   UNL     1       7.102   5.460  16.169  0.00  0.00    +0.000 A 
ATOM     31  O   UNL     1       7.415   5.120  14.891  0.00  0.00    +0.000 OA
ATOM     32  C   UNL     1       6.458   4.219  14.546  0.00  0.00    +0.000 A 
ATOM     33  N   UNL     1       6.582   3.677  13.333  0.00  0.00    +0.000 N 
ATOM     34  N   UNL     1       5.568   3.964  15.475  0.00  0.00    +0.000 NA
ATOM     35  H   UNL     1       7.504   3.720  12.916  0.00  0.00    +0.000 HD
ATOM     36  H   UNL     1       6.099   2.801  13.182  0.00  0.00    +0.000 HD
ENDBRANCH  26  29
ENDBRANCH   6  25
TORSDOF 8
ENDMDL
MODEL 4
REMARK VINA RESULT:      -7.8      0.781      1.108
REMARK  Name = 
REMARK  10 active torsions:
REMARK  status: ('A' for Active; 'I' for Inactive)
REMARK    1  A    between atoms: C_1  and  N_2
REMARK    2  A    between atoms: N_2  and  C_3
REMARK    3  A    between atoms: N_2  and  C_4
REMARK    4  A    between atoms: C_4  and  C_5
REMARK    5  A    between atoms: C_5  and  C_6
REMARK    6  A    between atoms: C_10  and  C_11
REMARK    7  A    between atoms: C_11  and  N_12
REMARK    8  A    between atoms: C_14  and  C_15
REMARK    9  A    between atoms: C_20  and  N_21
REMARK   10  A    between atoms: C_22  and  C_24
REMARK                            x       y       z     vdW  Elec       q    Type
REMARK                         _______ _______ _______ _____ _____    ______ ____
ROOT
ATOM      1  C   UNL     1       2.096   6.665  19.988  0.00  0.00    +0.000 A 
ATOM      2  C   UNL     1       1.733   5.633  20.851  0.00  0.00    +0.000 A 
ATOM      3  C   UNL     1       2.317   4.376  20.719  0.00  0.00    +0.000 A 
ATOM      4  C   UNL     1       3.269   4.119  19.718  0.00  0.00    +0.000 A 
ATOM      5 CL   UNL     1       4.078   2.604  19.900  0.00  0.00    +0.000 Cl
ATOM      6  C   UNL     1       3.596   5.116  18.778  0.00  0.00    +0.000 A 
ATOM      7  C   UNL     1       3.017   6.397  18.957  0.00  0.00    +0.000 A 
ENDROOT
BRANCH   1  10
ATOM      8  N   UNL     1       0.551   9.729  21.107  0.00  0.00    +0.000 N 
ATOM      9  C   UNL     1       0.908   8.430  21.338  0.00  0.00    +0.000 A 
ATOM     10  C   UNL     1       1.527   7.987  20.189  0.00  0.00    +0.000 A 
ATOM     11  C   UNL     1       1.486   9.110  19.326  0.00  0.00    +0.000 A 
ATOM     12  N   UNL     1       0.893  10.169  19.883  0.00  0.00    +0.000 NA
BRANCH   8  13
ATOM     13  C   UNL     1      -0.184  10.606  22.009  0.00  0.00    +0.000 C 
BRANCH  13  18
ATOM     14  C   UNL     1      -3.270  12.994  22.723  0.00  0.00    +0.000 C 
ATOM     15  O   UNL     1      -4.231  12.272  22.460  0.00  0.00    +0.000 OA
ATOM     16  N   UNL     1      -2.124  12.997  21.973  0.00  0.00    +0.000 N 
ATOM     17  C   UNL     1      -1.824  12.186  20.806  0.00  0.00    +0.000 C 
ATOM     18  C   UNL     1      -0.423  11.982  21.402  0.00  0.00    +0.000 C 
ATOM     19  C   UNL     1      -0.738  13.112  22.400  0.00  0.00    +0.000 C 
BRANCH  14  20
ATOM     20  C   UNL     1      -3.309  13.978  23.871  0.00  0.00    +0.000 C 
BRANCH  20  21
ATOM     21  C   UNL     1      -3.208  15.409  23.329  0.00  0.00    +0.000 C 
BRANCH  21  23
ATOM     22  C   UNL     1      -4.851  16.032  21.689  0.00  0.00    +0.000 C 
ATOM     23  N   UNL     1      -4.507  16.075  23.117  0.00  0.00    +0.000 NA
ATOM     24  C   UNL     1      -5.582  15.451  23.892  0.00  0.00    +0.000 C 
ENDBRANCH  21  23
ENDBRANCH  20  21
ENDBRANCH  14  20
ENDBRANCH  13  18
ENDBRANCH   8  13
ENDBRANCH   1  10
BRANCH   6  25
ATOM     25  N   UNL     1       4.462   5.004  17.656  0.00  0.00    +0.000 N 
ATOM     26  C   UNL     1       5.841   4.963  17.614  0.00  0.00    +0.000 C 
ATOM     27  O   UNL     1       6.619   5.002  18.553  0.00  0.00    +0.000 OA
ATOM     28  H   UNL     1       4.034   4.760  16.764  0.00  0.00    +0.000 HD
BRANCH  26  29
ATOM     29  C   UNL     1       6.357   4.756  16.262  0.00  0.00    +0.000 A 
ATOM     30  C   UNL     1       5.968   3.754  15.400  0.00  0.00    +0.000 A 
ATOM     31  O   UNL     1       6.600   3.949  14.213  0.00  0.00    +0.000 OA
ATOM     32  C   UNL     1       7.355   5.061  14.419  0.00  0.00    +0.000 A 
ATOM     33  N   UNL     1       8.037   5.501  13.361  0.00  0.00    +0.000 N 
ATOM     34  N   UNL     1       7.268   5.581  15.619  0.00  0.00    +0.000 NA
ATOM     35  H   UNL     1       7.705   5.196  12.454  0.00  0.00    +0.000 HD
ATOM     36  H   UNL     1       8.333   6.468  13.390  0.00  0.00    +0.000 HD
ENDBRANCH  26  29
ENDBRANCH   6  25
TORSDOF 8
ENDMDL
MODEL 5
REMARK VINA RESULT:      -7.8      2.851      3.308
REMARK  Name = 
REMARK  10 active torsions:
REMARK  status: ('A' for Active; 'I' for Inactive)
REMARK    1  A    between atoms: C_1  and  N_2
REMARK    2  A    between atoms: N_2  and  C_3
REMARK    3  A    between atoms: N_2  and  C_4
REMARK    4  A    between atoms: C_4  and  C_5
REMARK    5  A    between atoms: C_5  and  C_6
REMARK    6  A    between atoms: C_10  and  C_11
REMARK    7  A    between atoms: C_11  and  N_12
REMARK    8  A    between atoms: C_14  and  C_15
REMARK    9  A    between atoms: C_20  and  N_21
REMARK   10  A    between atoms: C_22  and  C_24
REMARK                            x       y       z     vdW  Elec       q    Type
REMARK                         _______ _______ _______ _____ _____    ______ ____
ROOT
ATOM      1  C   UNL     1       2.172   6.602  19.980  0.00  0.00    +0.000 A 
ATOM      2  C   UNL     1       1.768   5.543  20.791  0.00  0.00    +0.000 A 
ATOM      3  C   UNL     1       2.312   4.274  20.604  0.00  0.00    +0.000 A 
ATOM      4  C   UNL     1       3.262   4.033  19.599  0.00  0.00    +0.000 A 
ATOM      5 CL   UNL     1       4.020   2.485  19.714  0.00  0.00    +0.000 Cl
ATOM      6  C   UNL     1       3.629   5.061  18.709  0.00  0.00    +0.000 A 
ATOM      7  C   UNL     1       3.092   6.350  18.943  0.00  0.00    +0.000 A 
ENDROOT
BRANCH   1  10
ATOM      8  N   UNL     1       0.905   9.982  19.960  0.00  0.00    +0.000 N 
ATOM      9  C   UNL     1       1.430   8.910  19.293  0.00  0.00    +0.000 A 
ATOM     10  C   UNL     1       1.646   7.930  20.239  0.00  0.00    +0.000 A 
ATOM     11  C   UNL     1       1.213   8.526  21.450  0.00  0.00    +0.000 A 
ATOM     12  N   UNL     1       0.763   9.772  21.281  0.00  0.00    +0.000 NA
BRANCH   8  13
ATOM     13  C   UNL     1       0.564  11.280  19.395  0.00  0.00    +0.000 C 
BRANCH  13  18
ATOM     14  C   UNL     1       0.551  15.246  19.498  0.00  0.00    +0.000 C 
ATOM     15  O   UNL     1      -0.246  15.531  18.605  0.00  0.00    +0.000 OA
ATOM     16  N   UNL     1       1.458  14.227  19.378  0.00  0.00    +0.000 N 
ATOM     17  C   UNL     1       1.635  13.324  18.254  0.00  0.00    +0.000 C 
ATOM     18  C   UNL     1       1.778  12.192  19.282  0.00  0.00    +0.000 C 
ATOM     19  C   UNL     1       1.914  13.270  20.374  0.00  0.00    +0.000 C 
BRANCH  14  20
ATOM     20  C   UNL     1       0.620  16.042  20.782  0.00  0.00    +0.000 C 
BRANCH  20  21
ATOM     21  C   UNL     1       1.813  17.005  20.729  0.00  0.00    +0.000 C 
BRANCH  21  23
ATOM     22  C   UNL     1       4.134  16.400  20.881  0.00  0.00    +0.000 C 
ATOM     23  N   UNL     1       2.913  16.666  21.652  0.00  0.00    +0.000 NA
ATOM     24  C   UNL     1       3.174  17.737  22.617  0.00  0.00    +0.000 C 
ENDBRANCH  21  23
ENDBRANCH  20  21
ENDBRANCH  14  20
ENDBRANCH  13  18
ENDBRANCH   8  13
ENDBRANCH   1  10
BRANCH   6  25
ATOM     25  N   UNL     1       4.500   4.972  17.587  0.00  0.00    +0.000 N 
ATOM     26  C   UNL     1       5.848   4.680  17.546  0.00  0.00    +0.000 C 
ATOM     27  O   UNL     1       6.586   4.418  18.483  0.00  0.00    +0.000 OA
ATOM     28  H   UNL     1       4.067   4.962  16.666  0.00  0.00    +0.000 HD
BRANCH  26  29
ATOM     29  C   UNL     1       6.366   4.603  16.181  0.00  0.00    +0.000 A 
ATOM     30  C   UNL     1       5.963   3.701  15.221  0.00  0.00    +0.000 A 
ATOM     31  O   UNL     1       6.603   4.004  14.061  0.00  0.00    +0.000 OA
ATOM     32  C   UNL     1       7.376   5.076  14.381  0.00  0.00    +0.000 A 
ATOM     33  N   UNL     1       8.070   5.610  13.375  0.00  0.00    +0.000 N 
ATOM     34  N   UNL     1       7.293   5.473  15.628  0.00  0.00    +0.000 NA
ATOM     35  H   UNL     1       7.736   5.404  12.441  0.00  0.00    +0.000 HD
ATOM     36  H   UNL     1       8.382   6.564  13.502  0.00  0.00    +0.000 HD
ENDBRANCH  26  29
ENDBRANCH   6  25
TORSDOF 8
ENDMDL
MODEL 6
REMARK VINA RESULT:      -7.8      1.856      2.384
REMARK  Name = 
REMARK  10 active torsions:
REMARK  status: ('A' for Active; 'I' for Inactive)
REMARK    1  A    between atoms: C_1  and  N_2
REMARK    2  A    between atoms: N_2  and  C_3
REMARK    3  A    between atoms: N_2  and  C_4
REMARK    4  A    between atoms: C_4  and  C_5
REMARK    5  A    between atoms: C_5  and  C_6
REMARK    6  A    between atoms: C_10  and  C_11
REMARK    7  A    between atoms: C_11  and  N_12
REMARK    8  A    between atoms: C_14  and  C_15
REMARK    9  A    between atoms: C_20  and  N_21
REMARK   10  A    between atoms: C_22  and  C_24
REMARK                            x       y       z     vdW  Elec       q    Type
REMARK                         _______ _______ _______ _____ _____    ______ ____
ROOT
ATOM      1  C   UNL     1       2.203   6.576  19.937  0.00  0.00    +0.000 A 
ATOM      2  C   UNL     1       1.846   5.524  20.779  0.00  0.00    +0.000 A 
ATOM      3  C   UNL     1       2.427   4.270  20.612  0.00  0.00    +0.000 A 
ATOM      4  C   UNL     1       3.369   4.036  19.597  0.00  0.00    +0.000 A 
ATOM      5 CL   UNL     1       4.178   2.516  19.736  0.00  0.00    +0.000 Cl
ATOM      6  C   UNL     1       3.688   5.054  18.677  0.00  0.00    +0.000 A 
ATOM      7  C   UNL     1       3.113   6.330  18.891  0.00  0.00    +0.000 A 
ENDROOT
BRANCH   1  10
ATOM      8  N   UNL     1       0.763   9.651  21.165  0.00  0.00    +0.000 N 
ATOM      9  C   UNL     1       1.182   8.368  21.386  0.00  0.00    +0.000 A 
ATOM     10  C   UNL     1       1.637   7.893  20.174  0.00  0.00    +0.000 A 
ATOM     11  C   UNL     1       1.443   8.982  19.288  0.00  0.00    +0.000 A 
ATOM     12  N   UNL     1       0.912  10.050  19.889  0.00  0.00    +0.000 NA
BRANCH   8  13
ATOM     13  C   UNL     1       0.148  10.546  22.134  0.00  0.00    +0.000 C 
BRANCH  13  18
ATOM     14  C   UNL     1      -0.815  14.325  22.868  0.00  0.00    +0.000 C 
ATOM     15  O   UNL     1      -0.908  14.341  24.095  0.00  0.00    +0.000 OA
ATOM     16  N   UNL     1      -1.270  13.280  22.109  0.00  0.00    +0.000 N 
ATOM     17  C   UNL     1      -1.895  12.053  22.570  0.00  0.00    +0.000 C 
ATOM     18  C   UNL     1      -1.027  11.313  21.541  0.00  0.00    +0.000 C 
ATOM     19  C   UNL     1      -0.691  12.680  20.916  0.00  0.00    +0.000 C 
BRANCH  14  20
ATOM     20  C   UNL     1      -0.232  15.492  22.103  0.00  0.00    +0.000 C 
BRANCH  20  21
ATOM     21  C   UNL     1       1.295  15.484  22.232  0.00  0.00    +0.000 C 
BRANCH  21  23
ATOM     22  C   UNL     1       1.883  16.168  20.004  0.00  0.00    +0.000 C 
ATOM     23  N   UNL     1       2.011  15.097  21.001  0.00  0.00    +0.000 NA
ATOM     24  C   UNL     1       3.430  14.831  21.246  0.00  0.00    +0.000 C 
ENDBRANCH  21  23
ENDBRANCH  20  21
ENDBRANCH  14  20
ENDBRANCH  13  18
ENDBRANCH   8  13
ENDBRANCH   1  10
BRANCH   6  25
ATOM     25  N   UNL     1       4.544   4.967  17.544  0.00  0.00    +0.000 N 
ATOM     26  C   UNL     1       5.894   4.687  17.485  0.00  0.00    +0.000 C 
ATOM     27  O   UNL     1       6.647   4.437  18.413  0.00  0.00    +0.000 OA
ATOM     28  H   UNL     1       4.098   4.947  16.629  0.00  0.00    +0.000 HD
BRANCH  26  29
ATOM     29  C   UNL     1       6.393   4.607  16.114  0.00  0.00    +0.000 A 
ATOM     30  C   UNL     1       5.956   3.722  15.153  0.00  0.00    +0.000 A 
ATOM     31  O   UNL     1       6.589   4.018  13.987  0.00  0.00    +0.000 OA
ATOM     32  C   UNL     1       7.393   5.067  14.304  0.00  0.00    +0.000 A 
ATOM     33  N   UNL     1       8.088   5.591  13.294  0.00  0.00    +0.000 N 
ATOM     34  N   UNL     1       7.336   5.457  15.556  0.00  0.00    +0.000 NA
ATOM     35  H   UNL     1       7.738   5.401  12.363  0.00  0.00    +0.000 HD
ATOM     36  H   UNL     1       8.425   6.536  13.424  0.00  0.00    +0.000 HD
ENDBRANCH  26  29
ENDBRANCH   6  25
TORSDOF 8
ENDMDL
MODEL 7
REMARK VINA RESULT:      -7.8      3.517      4.233
REMARK  Name = 
REMARK  10 active torsions:
REMARK  status: ('A' for Active; 'I' for Inactive)
REMARK    1  A    between atoms: C_1  and  N_2
REMARK    2  A    between atoms: N_2  and  C_3
REMARK    3  A    between atoms: N_2  and  C_4
REMARK    4  A    between atoms: C_4  and  C_5
REMARK    5  A    between atoms: C_5  and  C_6
REMARK    6  A    between atoms: C_10  and  C_11
REMARK    7  A    between atoms: C_11  and  N_12
REMARK    8  A    between atoms: C_14  and  C_15
REMARK    9  A    between atoms: C_20  and  N_21
REMARK   10  A    between atoms: C_22  and  C_24
REMARK                            x       y       z     vdW  Elec       q    Type
REMARK                         _______ _______ _______ _____ _____    ______ ____
ROOT
ATOM      1  C   UNL     1       1.939   6.677  20.158  0.00  0.00    +0.000 A 
ATOM      2  C   UNL     1       1.305   5.588  20.754  0.00  0.00    +0.000 A 
ATOM      3  C   UNL     1       1.632   4.291  20.366  0.00  0.00    +0.000 A 
ATOM      4  C   UNL     1       2.592   4.054  19.368  0.00  0.00    +0.000 A 
ATOM      5 CL   UNL     1       3.061   2.397  19.235  0.00  0.00    +0.000 Cl
ATOM      6  C   UNL     1       3.189   5.132  18.687  0.00  0.00    +0.000 A 
ATOM      7  C   UNL     1       2.868   6.440  19.127  0.00  0.00    +0.000 A 
ENDROOT
BRANCH   1  10
ATOM      8  N   UNL     1       1.040  10.133  20.687  0.00  0.00    +0.000 N 
ATOM      9  C   UNL     1       1.254   9.081  19.840  0.00  0.00    +0.000 A 
ATOM     10  C   UNL     1       1.634   8.016  20.630  0.00  0.00    +0.000 A 
ATOM     11  C   UNL     1       1.616   8.545  21.944  0.00  0.00    +0.000 A 
ATOM     12  N   UNL     1       1.256   9.830  21.980  0.00  0.00    +0.000 NA
BRANCH   8  13
ATOM     13  C   UNL     1       0.678  11.493  20.315  0.00  0.00    +0.000 C 
BRANCH  13  18
ATOM     14  C   UNL     1       1.921  14.857  18.617  0.00  0.00    +0.000 C 
ATOM     15  O   UNL     1       1.137  15.689  19.073  0.00  0.00    +0.000 OA
ATOM     16  N   UNL     1       1.524  13.602  18.237  0.00  0.00    +0.000 N 
ATOM     17  C   UNL     1       0.190  13.033  18.309  0.00  0.00    +0.000 C 
ATOM     18  C   UNL     1       0.850  11.744  18.823  0.00  0.00    +0.000 C 
ATOM     19  C   UNL     1       2.208  12.328  18.391  0.00  0.00    +0.000 C 
BRANCH  14  20
ATOM     20  C   UNL     1       3.381  15.183  18.394  0.00  0.00    +0.000 C 
BRANCH  20  21
ATOM     21  C   UNL     1       3.957  15.854  19.647  0.00  0.00    +0.000 C 
BRANCH  21  23
ATOM     22  C   UNL     1       4.514  17.974  20.632  0.00  0.00    +0.000 C 
ATOM     23  N   UNL     1       4.576  17.171  19.404  0.00  0.00    +0.000 NA
ATOM     24  C   UNL     1       5.971  17.055  18.972  0.00  0.00    +0.000 C 
ENDBRANCH  21  23
ENDBRANCH  20  21
ENDBRANCH  14  20
ENDBRANCH  13  18
ENDBRANCH   8  13
ENDBRANCH   1  10
BRANCH   6  25
ATOM     25  N   UNL     1       4.105   5.076  17.600  0.00  0.00    +0.000 N 
ATOM     26  C   UNL     1       5.441   4.732  17.597  0.00  0.00    +0.000 C 
ATOM     27  O   UNL     1       6.126   4.384  18.545  0.00  0.00    +0.000 OA
ATOM     28  H   UNL     1       3.712   5.140  16.662  0.00  0.00    +0.000 HD
BRANCH  26  29
ATOM     29  C   UNL     1       6.016   4.717  16.253  0.00  0.00    +0.000 A 
ATOM     30  C   UNL     1       5.448   4.126  15.145  0.00  0.00    +0.000 A 
ATOM     31  O   UNL     1       6.230   4.404  14.069  0.00  0.00    +0.000 OA
ATOM     32  C   UNL     1       7.247   5.146  14.584  0.00  0.00    +0.000 A 
ATOM     33  N   UNL     1       8.135   5.603  13.700  0.00  0.00    +0.000 N 
ATOM     34  N   UNL     1       7.188   5.355  15.877  0.00  0.00    +0.000 NA
ATOM     35  H   UNL     1       7.826   5.647  12.736  0.00  0.00    +0.000 HD
ATOM     36  H   UNL     1       8.691   6.395  13.993  0.00  0.00    +0.000 HD
ENDBRANCH  26  29
ENDBRANCH   6  25
TORSDOF 8
ENDMDL
MODEL 8
REMARK VINA RESULT:      -7.8      2.388      3.131
REMARK  Name = 
REMARK  10 active torsions:
REMARK  status: ('A' for Active; 'I' for Inactive)
REMARK    1  A    between atoms: C_1  and  N_2
REMARK    2  A    between atoms: N_2  and  C_3
REMARK    3  A    between atoms: N_2  and  C_4
REMARK    4  A    between atoms: C_4  and  C_5
REMARK    5  A    between atoms: C_5  and  C_6
REMARK    6  A    between atoms: C_10  and  C_11
REMARK    7  A    between atoms: C_11  and  N_12
REMARK    8  A    between atoms: C_14  and  C_15
REMARK    9  A    between atoms: C_20  and  N_21
REMARK   10  A    between atoms: C_22  and  C_24
REMARK                            x       y       z     vdW  Elec       q    Type
REMARK                         _______ _______ _______ _____ _____    ______ ____
ROOT
ATOM      1  C   UNL     1       2.161   6.415  20.046  0.00  0.00    +0.000 A 
ATOM      2  C   UNL     1       1.782   5.340  20.849  0.00  0.00    +0.000 A 
ATOM      3  C   UNL     1       2.349   4.084  20.645  0.00  0.00    +0.000 A 
ATOM      4  C   UNL     1       3.298   3.871  19.632  0.00  0.00    +0.000 A 
ATOM      5 CL   UNL     1       4.086   2.337  19.726  0.00  0.00    +0.000 Cl
ATOM      6  C   UNL     1       3.639   4.915  18.750  0.00  0.00    +0.000 A 
ATOM      7  C   UNL     1       3.079   6.192  19.001  0.00  0.00    +0.000 A 
ENDROOT
BRANCH   1  10
ATOM      8  N   UNL     1       1.042   9.845  20.133  0.00  0.00    +0.000 N 
ATOM      9  C   UNL     1       1.725   8.838  19.510  0.00  0.00    +0.000 A 
ATOM     10  C   UNL     1       1.611   7.730  20.322  0.00  0.00    +0.000 A 
ATOM     11  C   UNL     1       0.834   8.189  21.415  0.00  0.00    +0.000 A 
ATOM     12  N   UNL     1       0.488   9.473  21.301  0.00  0.00    +0.000 NA
BRANCH   8  13
ATOM     13  C   UNL     1       0.926  11.227  19.687  0.00  0.00    +0.000 C 
BRANCH  13  18
ATOM     14  C   UNL     1      -0.737  14.798  20.156  0.00  0.00    +0.000 C 
ATOM     15  O   UNL     1      -0.522  15.037  21.344  0.00  0.00    +0.000 OA
ATOM     16  N   UNL     1      -1.091  13.554  19.707  0.00  0.00    +0.000 N 
ATOM     17  C   UNL     1      -1.253  12.340  20.489  0.00  0.00    +0.000 C 
ATOM     18  C   UNL     1      -0.512  11.605  19.362  0.00  0.00    +0.000 C 
ATOM     19  C   UNL     1      -0.697  12.861  18.490  0.00  0.00    +0.000 C 
BRANCH  14  20
ATOM     20  C   UNL     1      -0.676  15.885  19.106  0.00  0.00    +0.000 C 
BRANCH  20  21
ATOM     21  C   UNL     1       0.783  16.138  18.708  0.00  0.00    +0.000 C 
BRANCH  21  23
ATOM     22  C   UNL     1       2.639  14.612  18.746  0.00  0.00    +0.000 C 
ATOM     23  N   UNL     1       1.776  15.468  19.570  0.00  0.00    +0.000 NA
ATOM     24  C   UNL     1       2.605  16.426  20.306  0.00  0.00    +0.000 C 
ENDBRANCH  21  23
ENDBRANCH  20  21
ENDBRANCH  14  20
ENDBRANCH  13  18
ENDBRANCH   8  13
ENDBRANCH   1  10
BRANCH   6  25
ATOM     25  N   UNL     1       4.505   4.855  17.622  0.00  0.00    +0.000 N 
ATOM     26  C   UNL     1       5.865   4.633  17.573  0.00  0.00    +0.000 C 
ATOM     27  O   UNL     1       6.623   4.424  18.507  0.00  0.00    +0.000 OA
ATOM     28  H   UNL     1       4.065   4.809  16.705  0.00  0.00    +0.000 HD
BRANCH  26  29
ATOM     29  C   UNL     1       6.376   4.562  16.205  0.00  0.00    +0.000 A 
ATOM     30  C   UNL     1       5.998   3.638  15.256  0.00  0.00    +0.000 A 
ATOM     31  O   UNL     1       6.618   3.953  14.089  0.00  0.00    +0.000 OA
ATOM     32  C   UNL     1       7.355   5.055  14.393  0.00  0.00    +0.000 A 
ATOM     33  N   UNL     1       8.022   5.605  13.378  0.00  0.00    +0.000 N 
ATOM     34  N   UNL     1       7.267   5.460  15.638  0.00  0.00    +0.000 NA
ATOM     35  H   UNL     1       7.689   5.379  12.448  0.00  0.00    +0.000 HD
ATOM     36  H   UNL     1       8.301   6.570  13.494  0.00  0.00    +0.000 HD
ENDBRANCH  26  29
ENDBRANCH   6  25
TORSDOF 8
ENDMDL
MODEL 9
REMARK VINA RESULT:      -7.7      3.326      4.104
REMARK  Name = 
REMARK  10 active torsions:
REMARK  status: ('A' for Active; 'I' for Inactive)
REMARK    1  A    between atoms: C_1  and  N_2
REMARK    2  A    between atoms: N_2  and  C_3
REMARK    3  A    between atoms: N_2  and  C_4
REMARK    4  A    between atoms: C_4  and  C_5
REMARK    5  A    between atoms: C_5  and  C_6
REMARK    6  A    between atoms: C_10  and  C_11
REMARK    7  A    between atoms: C_11  and  N_12
REMARK    8  A    between atoms: C_14  and  C_15
REMARK    9  A    between atoms: C_20  and  N_21
REMARK   10  A    between atoms: C_22  and  C_24
REMARK                            x       y       z     vdW  Elec       q    Type
REMARK                         _______ _______ _______ _____ _____    ______ ____
ROOT
ATOM      1  C   UNL     1       1.905   6.874  20.322  0.00  0.00    +0.000 A 
ATOM      2  C   UNL     1       1.370   5.799  21.031  0.00  0.00    +0.000 A 
ATOM      3  C   UNL     1       1.803   4.503  20.763  0.00  0.00    +0.000 A 
ATOM      4  C   UNL     1       2.770   4.250  19.777  0.00  0.00    +0.000 A 
ATOM      5 CL   UNL     1       3.377   2.633  19.795  0.00  0.00    +0.000 Cl
ATOM      6  C   UNL     1       3.268   5.304  18.986  0.00  0.00    +0.000 A 
ATOM      7  C   UNL     1       2.842   6.617  19.303  0.00  0.00    +0.000 A 
ENDROOT
BRANCH   1  10
ATOM      8  N   UNL     1       0.638  10.246  20.556  0.00  0.00    +0.000 N 
ATOM      9  C   UNL     1       0.873   9.118  19.820  0.00  0.00    +0.000 A 
ATOM     10  C   UNL     1       1.491   8.223  20.668  0.00  0.00    +0.000 A 
ATOM     11  C   UNL     1       1.580   8.924  21.896  0.00  0.00    +0.000 A 
ATOM     12  N   UNL     1       1.062  10.153  21.829  0.00  0.00    +0.000 NA
BRANCH   8  13
ATOM     13  C   UNL     1       0.053  11.492  20.080  0.00  0.00    +0.000 C 
BRANCH  13  18
ATOM     14  C   UNL     1       1.184  15.289  19.863  0.00  0.00    +0.000 C 
ATOM     15  O   UNL     1       0.114  15.890  19.953  0.00  0.00    +0.000 OA
ATOM     16  N   UNL     1       1.322  14.136  19.138  0.00  0.00    +0.000 N 
ATOM     17  C   UNL     1       0.296  13.425  18.395  0.00  0.00    +0.000 C 
ATOM     18  C   UNL     1       0.883  12.128  18.972  0.00  0.00    +0.000 C 
ATOM     19  C   UNL     1       2.105  12.945  19.431  0.00  0.00    +0.000 C 
BRANCH  14  20
ATOM     20  C   UNL     1       2.445  15.817  20.510  0.00  0.00    +0.000 C 
BRANCH  20  21
ATOM     21  C   UNL     1       3.230  16.660  19.498  0.00  0.00    +0.000 C 
BRANCH  21  23
ATOM     22  C   UNL     1       4.211  15.500  17.634  0.00  0.00    +0.000 C 
ATOM     23  N   UNL     1       4.456  16.016  18.987  0.00  0.00    +0.000 NA
ATOM     24  C   UNL     1       5.592  16.941  18.953  0.00  0.00    +0.000 C 
ENDBRANCH  21  23
ENDBRANCH  20  21
ENDBRANCH  14  20
ENDBRANCH  13  18
ENDBRANCH   8  13
ENDBRANCH   1  10
BRANCH   6  25
ATOM     25  N   UNL     1       4.176   5.219  17.893  0.00  0.00    +0.000 N 
ATOM     26  C   UNL     1       5.493   4.808  17.879  0.00  0.00    +0.000 C 
ATOM     27  O   UNL     1       6.163   4.412  18.819  0.00  0.00    +0.000 OA
ATOM     28  H   UNL     1       3.784   5.316  16.959  0.00  0.00    +0.000 HD
BRANCH  26  29
ATOM     29  C   UNL     1       6.061   4.785  16.532  0.00  0.00    +0.000 A 
ATOM     30  C   UNL     1       7.171   5.489  16.119  0.00  0.00    +0.000 A 
ATOM     31  O   UNL     1       7.441   5.136  14.835  0.00  0.00    +0.000 OA
ATOM     32  C   UNL     1       6.468   4.238  14.527  0.00  0.00    +0.000 A 
ATOM     33  N   UNL     1       6.550   3.687  13.316  0.00  0.00    +0.000 N 
ATOM     34  N   UNL     1       5.607   3.996  15.487  0.00  0.00    +0.000 NA
ATOM     35  H   UNL     1       7.459   3.720  12.869  0.00  0.00    +0.000 HD
ATOM     36  H   UNL     1       6.058   2.812  13.187  0.00  0.00    +0.000 HD
ENDBRANCH  26  29
ENDBRANCH   6  25
TORSDOF 8
ENDMDL
