MODEL 1
REMARK VINA RESULT:      -6.7      0.000      0.000
REMARK  Name = 
REMARK  12 active torsions:
REMARK  status: ('A' for Active; 'I' for Inactive)
REMARK    1  A    between atoms: C_1  and  C_2
REMARK    2  A    between atoms: C_2  and  O_3
REMARK    3  A    between atoms: O_3  and  C_4
REMARK    4  A    between atoms: N_9  and  C_10
REMARK    5  A    between atoms: C_10  and  C_11
REMARK    6  A    between atoms: N_13  and  C_14
REMARK    7  A    between atoms: C_16  and  O_17
REMARK    8  A    between atoms: O_17  and  C_18
REMARK    9  A    between atoms: C_18  and  C_19
REMARK   10  A    between atoms: C_22  and  O_23
REMARK   11  A    between atoms: O_23  and  C_24
REMARK   12  A    between atoms: C_24  and  C_25
REMARK                            x       y       z     vdW  Elec       q    Type
REMARK                         _______ _______ _______ _____ _____    ______ ____
ROOT
ATOM      1  C   UNL     1       2.131   8.262  18.478  0.00  0.00    +0.000 C 
ATOM      2  O   UNL     1       2.468   8.679  17.370  0.00  0.00    +0.000 OA
ATOM      3  N   UNL     1       2.572   7.063  19.046  0.00  0.00    +0.000 N 
ATOM      4  H   UNL     1       1.909   6.657  19.700  0.00  0.00    +0.000 HD
ENDROOT
BRANCH   3   5
ATOM      5  C   UNL     1       3.360   6.091  18.346  0.00  0.00    +0.000 A 
ATOM      6  C   UNL     1       4.694   6.403  18.015  0.00  0.00    +0.000 A 
ATOM      7  C   UNL     1       5.478   5.541  17.222  0.00  0.00    +0.000 A 
ATOM      8  C   UNL     1       4.952   4.317  16.825  0.00  0.00    +0.000 A 
ATOM      9  C   UNL     1       3.638   4.006  17.122  0.00  0.00    +0.000 A 
ATOM     10  C   UNL     1       2.812   4.890  17.827  0.00  0.00    +0.000 A 
BRANCH   7  11
ATOM     11  O   UNL     1       6.724   5.990  16.848  0.00  0.00    +0.000 OA
BRANCH  11  12
ATOM     12  C   UNL     1       7.493   6.597  17.896  0.00  0.00    +0.000 C 
ATOM     13  C   UNL     1       7.840   8.030  17.544  0.00  0.00    +0.000 C 
ENDBRANCH  11  12
ENDBRANCH   7  11
BRANCH  10  14
ATOM     14  O   UNL     1       1.530   4.428  17.831  0.00  0.00    +0.000 OA
BRANCH  14  15
ATOM     15  C   UNL     1       1.158   3.320  18.607  0.00  0.00    +0.000 C 
ATOM     16  C   UNL     1       0.930   3.820  20.026  0.00  0.00    +0.000 C 
ENDBRANCH  14  15
ENDBRANCH  10  14
ENDBRANCH   3   5
BRANCH   1  17
ATOM     17  C   UNL     1       1.244   9.127  19.421  0.00  0.00    +0.000 C 
BRANCH  17  23
ATOM     18  C   UNL     1      -2.462  12.448  20.491  0.00  0.00    +0.000 C 
ATOM     19  O   UNL     1      -3.510  12.479  19.858  0.00  0.00    +0.000 OA
ATOM     20  N   UNL     1      -1.439  11.555  20.244  0.00  0.00    +0.000 N 
ATOM     21  C   UNL     1      -1.547  10.616  19.134  0.00  0.00    +0.000 C 
ATOM     22  C   UNL     1      -0.282  10.645  18.236  0.00  0.00    +0.000 C 
ATOM     23  N   UNL     1       1.027  10.516  18.944  0.00  0.00    +0.000 NA
ATOM     24  C   UNL     1       1.035  11.534  20.026  0.00  0.00    +0.000 C 
ATOM     25  C   UNL     1      -0.177  11.501  20.986  0.00  0.00    +0.000 C 
BRANCH  18  26
ATOM     26  O   UNL     1      -2.148  13.352  21.463  0.00  0.00    +0.000 OA
BRANCH  26  28
ATOM     27  C   UNL     1      -3.059  12.283  23.393  0.00  0.00    +0.000 C 
ATOM     28  C   UNL     1      -3.136  13.505  22.493  0.00  0.00    +0.000 C 
ENDBRANCH  26  28
ENDBRANCH  18  26
ENDBRANCH  17  23
ENDBRANCH   1  17
TORSDOF 9
ENDMDL
MODEL 2
REMARK VINA RESULT:      -6.5      1.612      1.931
REMARK  Name = 
REMARK  12 active torsions:
REMARK  status: ('A' for Active; 'I' for Inactive)
REMARK    1  A    between atoms: C_1  and  C_2
REMARK    2  A    between atoms: C_2  and  O_3
REMARK    3  A    between atoms: O_3  and  C_4
REMARK    4  A    between atoms: N_9  and  C_10
REMARK    5  A    between atoms: C_10  and  C_11
REMARK    6  A    between atoms: N_13  and  C_14
REMARK    7  A    between atoms: C_16  and  O_17
REMARK    8  A    between atoms: O_17  and  C_18
REMARK    9  A    between atoms: C_18  and  C_19
REMARK   10  A    between atoms: C_22  and  O_23
REMARK   11  A    between atoms: O_23  and  C_24
REMARK   12  A    between atoms: C_24  and  C_25
REMARK                            x       y       z     vdW  Elec       q    Type
REMARK                         _______ _______ _______ _____ _____    ______ ____
ROOT
ATOM      1  C   UNL     1       2.138   6.247  20.169  0.00  0.00    +0.000 C 
ATOM      2  O   UNL     1       2.591   5.306  20.821  0.00  0.00    +0.000 OA
ATOM      3  N   UNL     1       2.397   6.475  18.814  0.00  0.00    +0.000 N 
ATOM      4  H   UNL     1       2.343   7.456  18.551  0.00  0.00    +0.000 HD
ENDROOT
BRANCH   3   5
ATOM      5  C   UNL     1       3.346   5.724  18.045  0.00  0.00    +0.000 A 
ATOM      6  C   UNL     1       4.595   6.303  17.748  0.00  0.00    +0.000 A 
ATOM      7  C   UNL     1       5.519   5.666  16.895  0.00  0.00    +0.000 A 
ATOM      8  C   UNL     1       5.225   4.401  16.400  0.00  0.00    +0.000 A 
ATOM      9  C   UNL     1       3.995   3.829  16.664  0.00  0.00    +0.000 A 
ATOM     10  C   UNL     1       3.026   4.487  17.431  0.00  0.00    +0.000 A 
BRANCH   7  11
ATOM     11  O   UNL     1       6.657   6.366  16.565  0.00  0.00    +0.000 OA
BRANCH  11  12
ATOM     12  C   UNL     1       7.484   6.744  17.675  0.00  0.00    +0.000 C 
ATOM     13  C   UNL     1       7.803   8.225  17.625  0.00  0.00    +0.000 C 
ENDBRANCH  11  12
ENDBRANCH   7  11
BRANCH  10  14
ATOM     14  O   UNL     1       1.851   3.795  17.390  0.00  0.00    +0.000 OA
BRANCH  14  15
ATOM     15  C   UNL     1       1.313   3.207  18.544  0.00  0.00    +0.000 C 
ATOM     16  C   UNL     1       2.172   1.994  18.873  0.00  0.00    +0.000 C 
ENDBRANCH  14  15
ENDBRANCH  10  14
ENDBRANCH   3   5
BRANCH   1  17
ATOM     17  C   UNL     1       1.106   7.229  20.796  0.00  0.00    +0.000 C 
BRANCH  17  23
ATOM     18  C   UNL     1      -1.350  11.598  21.687  0.00  0.00    +0.000 C 
ATOM     19  O   UNL     1      -1.754  12.313  20.778  0.00  0.00    +0.000 OA
ATOM     20  N   UNL     1      -0.694  10.400  21.490  0.00  0.00    +0.000 N 
ATOM     21  C   UNL     1      -0.391   9.952  20.136  0.00  0.00    +0.000 C 
ATOM     22  C   UNL     1       1.099   9.549  19.987  0.00  0.00    +0.000 C 
ATOM     23  N   UNL     1       1.627   8.601  21.014  0.00  0.00    +0.000 NA
ATOM     24  C   UNL     1       1.290   9.172  22.343  0.00  0.00    +0.000 C 
ATOM     25  C   UNL     1      -0.199   9.530  22.560  0.00  0.00    +0.000 C 
BRANCH  18  26
ATOM     26  O   UNL     1      -1.425  11.946  23.004  0.00  0.00    +0.000 OA
BRANCH  26  28
ATOM     27  C   UNL     1      -2.376  13.980  23.811  0.00  0.00    +0.000 C 
ATOM     28  C   UNL     1      -2.667  12.546  23.404  0.00  0.00    +0.000 C 
ENDBRANCH  26  28
ENDBRANCH  18  26
ENDBRANCH  17  23
ENDBRANCH   1  17
TORSDOF 9
ENDMDL
MODEL 3
REMARK VINA RESULT:      -6.4      1.547      2.046
REMARK  Name = 
REMARK  12 active torsions:
REMARK  status: ('A' for Active; 'I' for Inactive)
REMARK    1  A    between atoms: C_1  and  C_2
REMARK    2  A    between atoms: C_2  and  O_3
REMARK    3  A    between atoms: O_3  and  C_4
REMARK    4  A    between atoms: N_9  and  C_10
REMARK    5  A    between atoms: C_10  and  C_11
REMARK    6  A    between atoms: N_13  and  C_14
REMARK    7  A    between atoms: C_16  and  O_17
REMARK    8  A    between atoms: O_17  and  C_18
REMARK    9  A    between atoms: C_18  and  C_19
REMARK   10  A    between atoms: C_22  and  O_23
REMARK   11  A    between atoms: O_23  and  C_24
REMARK   12  A    between atoms: C_24  and  C_25
REMARK                            x       y       z     vdW  Elec       q    Type
REMARK                         _______ _______ _______ _____ _____    ______ ____
ROOT
ATOM      1  C   UNL     1       2.130   7.458  19.740  0.00  0.00    +0.000 C 
ATOM      2  O   UNL     1       2.169   7.976  18.624  0.00  0.00    +0.000 OA
ATOM      3  N   UNL     1       2.711   6.229  20.069  0.00  0.00    +0.000 N 
ATOM      4  H   UNL     1       2.240   5.751  20.832  0.00  0.00    +0.000 HD
ENDROOT
BRANCH   3   5
ATOM      5  C   UNL     1       3.298   5.341  19.108  0.00  0.00    +0.000 A 
ATOM      6  C   UNL     1       4.594   5.615  18.628  0.00  0.00    +0.000 A 
ATOM      7  C   UNL     1       5.175   4.852  17.595  0.00  0.00    +0.000 A 
ATOM      8  C   UNL     1       4.486   3.754  17.094  0.00  0.00    +0.000 A 
ATOM      9  C   UNL     1       3.205   3.486  17.537  0.00  0.00    +0.000 A 
ATOM     10  C   UNL     1       2.573   4.288  18.495  0.00  0.00    +0.000 A 
BRANCH   7  11
ATOM     11  O   UNL     1       6.391   5.274  17.109  0.00  0.00    +0.000 OA
BRANCH  11  12
ATOM     12  C   UNL     1       7.474   5.225  18.050  0.00  0.00    +0.000 C 
ATOM     13  C   UNL     1       7.931   6.624  18.412  0.00  0.00    +0.000 C 
ENDBRANCH  11  12
ENDBRANCH   7  11
BRANCH  10  14
ATOM     14  O   UNL     1       1.266   3.920  18.623  0.00  0.00    +0.000 OA
BRANCH  14  15
ATOM     15  C   UNL     1       0.908   2.717  19.248  0.00  0.00    +0.000 C 
ATOM     16  C   UNL     1       1.225   2.866  20.729  0.00  0.00    +0.000 C 
ENDBRANCH  14  15
ENDBRANCH  10  14
ENDBRANCH   3   5
BRANCH   1  17
ATOM     17  C   UNL     1       1.511   8.216  20.951  0.00  0.00    +0.000 C 
BRANCH  17  23
ATOM     18  C   UNL     1      -0.860  12.450  22.489  0.00  0.00    +0.000 C 
ATOM     19  O   UNL     1      -1.418  12.523  23.577  0.00  0.00    +0.000 OA
ATOM     20  N   UNL     1      -0.193  11.328  22.040  0.00  0.00    +0.000 N 
ATOM     21  C   UNL     1      -0.180  10.117  22.852  0.00  0.00    +0.000 C 
ATOM     22  C   UNL     1      -0.598   8.871  22.028  0.00  0.00    +0.000 C 
ATOM     23  N   UNL     1       0.117   8.674  20.731  0.00  0.00    +0.000 NA
ATOM     24  C   UNL     1       0.012   9.952  19.981  0.00  0.00    +0.000 C 
ATOM     25  C   UNL     1       0.478  11.215  20.743  0.00  0.00    +0.000 C 
BRANCH  18  26
ATOM     26  O   UNL     1      -0.905  13.443  21.555  0.00  0.00    +0.000 OA
BRANCH  26  28
ATOM     27  C   UNL     1      -2.915  14.720  21.389  0.00  0.00    +0.000 C 
ATOM     28  C   UNL     1      -2.140  13.539  20.829  0.00  0.00    +0.000 C 
ENDBRANCH  26  28
ENDBRANCH  18  26
ENDBRANCH  17  23
ENDBRANCH   1  17
TORSDOF 9
ENDMDL
MODEL 4
REMARK VINA RESULT:      -6.4      1.737      2.339
REMARK  Name = 
REMARK  12 active torsions:
REMARK  status: ('A' for Active; 'I' for Inactive)
REMARK    1  A    between atoms: C_1  and  C_2
REMARK    2  A    between atoms: C_2  and  O_3
REMARK    3  A    between atoms: O_3  and  C_4
REMARK    4  A    between atoms: N_9  and  C_10
REMARK    5  A    between atoms: C_10  and  C_11
REMARK    6  A    between atoms: N_13  and  C_14
REMARK    7  A    between atoms: C_16  and  O_17
REMARK    8  A    between atoms: O_17  and  C_18
REMARK    9  A    between atoms: C_18  and  C_19
REMARK   10  A    between atoms: C_22  and  O_23
REMARK   11  A    between atoms: O_23  and  C_24
REMARK   12  A    between atoms: C_24  and  C_25
REMARK                            x       y       z     vdW  Elec       q    Type
REMARK                         _______ _______ _______ _____ _____    ______ ____
ROOT
ATOM      1  C   UNL     1       1.940   7.865  19.782  0.00  0.00    +0.000 C 
ATOM      2  O   UNL     1       1.984   8.371  18.660  0.00  0.00    +0.000 OA
ATOM      3  N   UNL     1       2.465   6.612  20.111  0.00  0.00    +0.000 N 
ATOM      4  H   UNL     1       1.986   6.164  20.887  0.00  0.00    +0.000 HD
ENDROOT
BRANCH   3   5
ATOM      5  C   UNL     1       2.990   5.688  19.147  0.00  0.00    +0.000 A 
ATOM      6  C   UNL     1       4.148   6.040  18.425  0.00  0.00    +0.000 A 
ATOM      7  C   UNL     1       4.639   5.231  17.380  0.00  0.00    +0.000 A 
ATOM      8  C   UNL     1       4.016   4.018  17.111  0.00  0.00    +0.000 A 
ATOM      9  C   UNL     1       2.867   3.670  17.794  0.00  0.00    +0.000 A 
ATOM     10  C   UNL     1       2.308   4.504  18.770  0.00  0.00    +0.000 A 
BRANCH   7  11
ATOM     11  O   UNL     1       5.700   5.720  16.652  0.00  0.00    +0.000 OA
BRANCH  11  12
ATOM     12  C   UNL     1       5.611   5.517  15.234  0.00  0.00    +0.000 C 
ATOM     13  C   UNL     1       6.787   4.701  14.736  0.00  0.00    +0.000 C 
ENDBRANCH  11  12
ENDBRANCH   7  11
BRANCH  10  14
ATOM     14  O   UNL     1       1.094   4.019  19.158  0.00  0.00    +0.000 OA
BRANCH  14  15
ATOM     15  C   UNL     1       0.971   2.748  19.739  0.00  0.00    +0.000 C 
ATOM     16  C   UNL     1       1.363   2.882  21.204  0.00  0.00    +0.000 C 
ENDBRANCH  14  15
ENDBRANCH  10  14
ENDBRANCH   3   5
BRANCH   1  17
ATOM     17  C   UNL     1       1.381   8.663  20.996  0.00  0.00    +0.000 C 
BRANCH  17  23
ATOM     18  C   UNL     1      -1.890  12.273  22.472  0.00  0.00    +0.000 C 
ATOM     19  O   UNL     1      -2.188  12.438  23.649  0.00  0.00    +0.000 OA
ATOM     20  N   UNL     1      -0.997  11.317  22.031  0.00  0.00    +0.000 N 
ATOM     21  C   UNL     1      -0.397  10.390  22.982  0.00  0.00    +0.000 C 
ATOM     22  C   UNL     1      -0.536   8.918  22.512  0.00  0.00    +0.000 C 
ATOM     23  N   UNL     1      -0.098   8.634  21.112  0.00  0.00    +0.000 NA
ATOM     24  C   UNL     1      -0.792   9.612  20.235  0.00  0.00    +0.000 C 
ATOM     25  C   UNL     1      -0.628  11.099  20.630  0.00  0.00    +0.000 C 
BRANCH  18  26
ATOM     26  O   UNL     1      -2.473  12.960  21.448  0.00  0.00    +0.000 OA
BRANCH  26  28
ATOM     27  C   UNL     1      -4.268  12.624  19.911  0.00  0.00    +0.000 C 
ATOM     28  C   UNL     1      -3.901  12.838  21.370  0.00  0.00    +0.000 C 
ENDBRANCH  26  28
ENDBRANCH  18  26
ENDBRANCH  17  23
ENDBRANCH   1  17
TORSDOF 9
ENDMDL
MODEL 5
REMARK VINA RESULT:      -6.3      1.912      2.294
REMARK  Name = 
REMARK  12 active torsions:
REMARK  status: ('A' for Active; 'I' for Inactive)
REMARK    1  A    between atoms: C_1  and  C_2
REMARK    2  A    between atoms: C_2  and  O_3
REMARK    3  A    between atoms: O_3  and  C_4
REMARK    4  A    between atoms: N_9  and  C_10
REMARK    5  A    between atoms: C_10  and  C_11
REMARK    6  A    between atoms: N_13  and  C_14
REMARK    7  A    between atoms: C_16  and  O_17
REMARK    8  A    between atoms: O_17  and  C_18
REMARK    9  A    between atoms: C_18  and  C_19
REMARK   10  A    between atoms: C_22  and  O_23
REMARK   11  A    between atoms: O_23  and  C_24
REMARK   12  A    between atoms: C_24  and  C_25
REMARK                            x       y       z     vdW  Elec       q    Type
REMARK                         _______ _______ _______ _____ _____    ______ ____
ROOT
ATOM      1  C   UNL     1       2.225   7.382  19.497  0.00  0.00    +0.000 C 
ATOM      2  O   UNL     1       2.115   7.665  18.303  0.00  0.00    +0.000 OA
ATOM      3  N   UNL     1       2.891   6.256  19.990  0.00  0.00    +0.000 N 
ATOM      4  H   UNL     1       2.530   5.932  20.883  0.00  0.00    +0.000 HD
ENDROOT
BRANCH   3   5
ATOM      5  C   UNL     1       3.404   5.205  19.160  0.00  0.00    +0.000 A 
ATOM      6  C   UNL     1       4.715   5.313  18.654  0.00  0.00    +0.000 A 
ATOM      7  C   UNL     1       5.231   4.376  17.736  0.00  0.00    +0.000 A 
ATOM      8  C   UNL     1       4.459   3.276  17.384  0.00  0.00    +0.000 A 
ATOM      9  C   UNL     1       3.163   3.167  17.853  0.00  0.00    +0.000 A 
ATOM     10  C   UNL     1       2.599   4.137  18.691  0.00  0.00    +0.000 A 
BRANCH   7  11
ATOM     11  O   UNL     1       6.473   4.636  17.203  0.00  0.00    +0.000 OA
BRANCH  11  12
ATOM     12  C   UNL     1       6.608   4.348  15.804  0.00  0.00    +0.000 C 
ATOM     13  C   UNL     1       5.817   5.339  14.974  0.00  0.00    +0.000 C 
ENDBRANCH  11  12
ENDBRANCH   7  11
BRANCH  10  14
ATOM     14  O   UNL     1       1.269   3.888  18.861  0.00  0.00    +0.000 OA
BRANCH  14  15
ATOM     15  C   UNL     1       0.824   2.763  19.571  0.00  0.00    +0.000 C 
ATOM     16  C   UNL     1       1.253   2.946  21.020  0.00  0.00    +0.000 C 
ENDBRANCH  14  15
ENDBRANCH  10  14
ENDBRANCH   3   5
BRANCH   1  17
ATOM     17  C   UNL     1       1.713   8.355  20.598  0.00  0.00    +0.000 C 
BRANCH  17  23
ATOM     18  C   UNL     1      -0.738  12.441  22.390  0.00  0.00    +0.000 C 
ATOM     19  O   UNL     1      -1.287  12.441  23.486  0.00  0.00    +0.000 OA
ATOM     20  N   UNL     1      -0.050  11.361  21.874  0.00  0.00    +0.000 N 
ATOM     21  C   UNL     1      -0.002  10.108  22.617  0.00  0.00    +0.000 C 
ATOM     22  C   UNL     1      -0.400   8.900  21.729  0.00  0.00    +0.000 C 
ATOM     23  N   UNL     1       0.306   8.792  20.416  0.00  0.00    +0.000 NA
ATOM     24  C   UNL     1       0.165  10.107  19.740  0.00  0.00    +0.000 C 
ATOM     25  C   UNL     1       0.610  11.336  20.567  0.00  0.00    +0.000 C 
BRANCH  18  26
ATOM     26  O   UNL     1      -0.815  13.483  21.514  0.00  0.00    +0.000 OA
BRANCH  26  28
ATOM     27  C   UNL     1      -2.244  15.387  21.690  0.00  0.00    +0.000 C 
ATOM     28  C   UNL     1      -0.919  14.781  22.120  0.00  0.00    +0.000 C 
ENDBRANCH  26  28
ENDBRANCH  18  26
ENDBRANCH  17  23
ENDBRANCH   1  17
TORSDOF 9
ENDMDL
MODEL 6
REMARK VINA RESULT:      -6.3      1.394      1.901
REMARK  Name = 
REMARK  12 active torsions:
REMARK  status: ('A' for Active; 'I' for Inactive)
REMARK    1  A    between atoms: C_1  and  C_2
REMARK    2  A    between atoms: C_2  and  O_3
REMARK    3  A    between atoms: O_3  and  C_4
REMARK    4  A    between atoms: N_9  and  C_10
REMARK    5  A    between atoms: C_10  and  C_11
REMARK    6  A    between atoms: N_13  and  C_14
REMARK    7  A    between atoms: C_16  and  O_17
REMARK    8  A    between atoms: O_17  and  C_18
REMARK    9  A    between atoms: C_18  and  C_19
REMARK   10  A    between atoms: C_22  and  O_23
REMARK   11  A    between atoms: O_23  and  C_24
REMARK   12  A    between atoms: C_24  and  C_25
REMARK                            x       y       z     vdW  Elec       q    Type
REMARK                         _______ _______ _______ _____ _____    ______ ____
ROOT
ATOM      1  C   UNL     1       2.142   8.229  18.430  0.00  0.00    +0.000 C 
ATOM      2  O   UNL     1       2.448   8.604  17.298  0.00  0.00    +0.000 OA
ATOM      3  N   UNL     1       2.583   7.041  19.022  0.00  0.00    +0.000 N 
ATOM      4  H   UNL     1       1.935   6.669  19.711  0.00  0.00    +0.000 HD
ENDROOT
BRANCH   3   5
ATOM      5  C   UNL     1       3.329   6.033  18.328  0.00  0.00    +0.000 A 
ATOM      6  C   UNL     1       4.658   6.307  17.948  0.00  0.00    +0.000 A 
ATOM      7  C   UNL     1       5.400   5.405  17.158  0.00  0.00    +0.000 A 
ATOM      8  C   UNL     1       4.836   4.182  16.814  0.00  0.00    +0.000 A 
ATOM      9  C   UNL     1       3.526   3.908  17.159  0.00  0.00    +0.000 A 
ATOM     10  C   UNL     1       2.741   4.830  17.862  0.00  0.00    +0.000 A 
BRANCH   7  11
ATOM     11  O   UNL     1       6.643   5.816  16.734  0.00  0.00    +0.000 OA
BRANCH  11  12
ATOM     12  C   UNL     1       7.305   6.749  17.600  0.00  0.00    +0.000 C 
ATOM     13  C   UNL     1       7.909   6.035  18.793  0.00  0.00    +0.000 C 
ENDBRANCH  11  12
ENDBRANCH   7  11
BRANCH  10  14
ATOM     14  O   UNL     1       1.449   4.395  17.917  0.00  0.00    +0.000 OA
BRANCH  14  15
ATOM     15  C   UNL     1       1.092   3.274  18.681  0.00  0.00    +0.000 C 
ATOM     16  C   UNL     1       0.965   3.735  20.126  0.00  0.00    +0.000 C 
ENDBRANCH  14  15
ENDBRANCH  10  14
ENDBRANCH   3   5
BRANCH   1  17
ATOM     17  C   UNL     1       1.304   9.141  19.374  0.00  0.00    +0.000 C 
BRANCH  17  23
ATOM     18  C   UNL     1      -0.676  13.470  21.177  0.00  0.00    +0.000 C 
ATOM     19  O   UNL     1      -1.815  13.526  21.625  0.00  0.00    +0.000 OA
ATOM     20  N   UNL     1      -0.095  12.315  20.693  0.00  0.00    +0.000 N 
ATOM     21  C   UNL     1      -0.870  11.081  20.638  0.00  0.00    +0.000 C 
ATOM     22  C   UNL     1      -0.791  10.418  19.238  0.00  0.00    +0.000 C 
ATOM     23  N   UNL     1       0.582  10.234  18.677  0.00  0.00    +0.000 NA
ATOM     24  C   UNL     1       1.261  11.553  18.756  0.00  0.00    +0.000 C 
ATOM     25  C   UNL     1       1.262  12.223  20.150  0.00  0.00    +0.000 C 
BRANCH  18  26
ATOM     26  O   UNL     1       0.125  14.564  21.025  0.00  0.00    +0.000 OA
BRANCH  26  28
ATOM     27  C   UNL     1       0.461  15.703  18.955  0.00  0.00    +0.000 C 
ATOM     28  C   UNL     1      -0.415  15.601  20.192  0.00  0.00    +0.000 C 
ENDBRANCH  26  28
ENDBRANCH  18  26
ENDBRANCH  17  23
ENDBRANCH   1  17
TORSDOF 9
ENDMDL
MODEL 7
REMARK VINA RESULT:      -6.3      1.247      3.814
REMARK  Name = 
REMARK  12 active torsions:
REMARK  status: ('A' for Active; 'I' for Inactive)
REMARK    1  A    between atoms: C_1  and  C_2
REMARK    2  A    between atoms: C_2  and  O_3
REMARK    3  A    between atoms: O_3  and  C_4
REMARK    4  A    between atoms: N_9  and  C_10
REMARK    5  A    between atoms: C_10  and  C_11
REMARK    6  A    between atoms: N_13  and  C_14
REMARK    7  A    between atoms: C_16  and  O_17
REMARK    8  A    between atoms: O_17  and  C_18
REMARK    9  A    between atoms: C_18  and  C_19
REMARK   10  A    between atoms: C_22  and  O_23
REMARK   11  A    between atoms: O_23  and  C_24
REMARK   12  A    between atoms: C_24  and  C_25
REMARK                            x       y       z     vdW  Elec       q    Type
REMARK                         _______ _______ _______ _____ _____    ______ ____
ROOT
ATOM      1  C   UNL     1       2.249   8.450  18.227  0.00  0.00    +0.000 C 
ATOM      2  O   UNL     1       2.476   8.611  17.027  0.00  0.00    +0.000 OA
ATOM      3  N   UNL     1       2.508   7.272  18.935  0.00  0.00    +0.000 N 
ATOM      4  H   UNL     1       1.893   7.137  19.732  0.00  0.00    +0.000 HD
ENDROOT
BRANCH   3   5
ATOM      5  C   UNL     1       2.935   6.049  18.321  0.00  0.00    +0.000 A 
ATOM      6  C   UNL     1       2.013   4.990  18.195  0.00  0.00    +0.000 A 
ATOM      7  C   UNL     1       2.405   3.725  17.714  0.00  0.00    +0.000 A 
ATOM      8  C   UNL     1       3.711   3.539  17.278  0.00  0.00    +0.000 A 
ATOM      9  C   UNL     1       4.633   4.560  17.416  0.00  0.00    +0.000 A 
ATOM     10  C   UNL     1       4.287   5.794  17.979  0.00  0.00    +0.000 A 
BRANCH   7  11
ATOM     11  O   UNL     1       1.464   2.721  17.746  0.00  0.00    +0.000 OA
BRANCH  11  12
ATOM     12  C   UNL     1       0.738   2.605  18.978  0.00  0.00    +0.000 C 
ATOM     13  C   UNL     1       1.680   2.314  20.129  0.00  0.00    +0.000 C 
ENDBRANCH  11  12
ENDBRANCH   7  11
BRANCH  10  14
ATOM     14  O   UNL     1       5.406   6.552  18.164  0.00  0.00    +0.000 OA
BRANCH  14  15
ATOM     15  C   UNL     1       6.105   7.093  17.076  0.00  0.00    +0.000 C 
ATOM     16  C   UNL     1       7.564   7.215  17.493  0.00  0.00    +0.000 C 
ENDBRANCH  14  15
ENDBRANCH  10  14
ENDBRANCH   3   5
BRANCH   1  17
ATOM     17  C   UNL     1       1.746   9.629  19.109  0.00  0.00    +0.000 C 
BRANCH  17  23
ATOM     18  C   UNL     1      -1.081  12.503  22.218  0.00  0.00    +0.000 C 
ATOM     19  O   UNL     1      -1.231  12.225  23.402  0.00  0.00    +0.000 OA
ATOM     20  N   UNL     1      -0.311  11.761  21.345  0.00  0.00    +0.000 N 
ATOM     21  C   UNL     1       0.327  10.533  21.804  0.00  0.00    +0.000 C 
ATOM     22  C   UNL     1       0.035   9.345  20.850  0.00  0.00    +0.000 C 
ATOM     23  N   UNL     1       0.291   9.592  19.399  0.00  0.00    +0.000 NA
ATOM     24  C   UNL     1      -0.429  10.842  19.040  0.00  0.00    +0.000 C 
ATOM     25  C   UNL     1      -0.119  12.070  19.926  0.00  0.00    +0.000 C 
BRANCH  18  26
ATOM     26  O   UNL     1      -1.726  13.535  21.603  0.00  0.00    +0.000 OA
BRANCH  26  28
ATOM     27  C   UNL     1      -3.746  12.848  20.532  0.00  0.00    +0.000 C 
ATOM     28  C   UNL     1      -3.154  13.534  21.752  0.00  0.00    +0.000 C 
ENDBRANCH  26  28
ENDBRANCH  18  26
ENDBRANCH  17  23
ENDBRANCH   1  17
TORSDOF 9
ENDMDL
MODEL 8
REMARK VINA RESULT:      -6.2      1.499      3.857
REMARK  Name = 
REMARK  12 active torsions:
REMARK  status: ('A' for Active; 'I' for Inactive)
REMARK    1  A    between atoms: C_1  and  C_2
REMARK    2  A    between atoms: C_2  and  O_3
REMARK    3  A    between atoms: O_3  and  C_4
REMARK    4  A    between atoms: N_9  and  C_10
REMARK    5  A    between atoms: C_10  and  C_11
REMARK    6  A    between atoms: N_13  and  C_14
REMARK    7  A    between atoms: C_16  and  O_17
REMARK    8  A    between atoms: O_17  and  C_18
REMARK    9  A    between atoms: C_18  and  C_19
REMARK   10  A    between atoms: C_22  and  O_23
REMARK   11  A    between atoms: O_23  and  C_24
REMARK   12  A    between atoms: C_24  and  C_25
REMARK                            x       y       z     vdW  Elec       q    Type
REMARK                         _______ _______ _______ _____ _____    ______ ____
ROOT
ATOM      1  C   UNL     1       2.083   8.669  18.239  0.00  0.00    +0.000 C 
ATOM      2  O   UNL     1       2.098   8.830  17.018  0.00  0.00    +0.000 OA
ATOM      3  N   UNL     1       2.483   7.499  18.892  0.00  0.00    +0.000 N 
ATOM      4  H   UNL     1       2.017   7.354  19.783  0.00  0.00    +0.000 HD
ENDROOT
BRANCH   3   5
ATOM      5  C   UNL     1       2.823   6.282  18.214  0.00  0.00    +0.000 A 
ATOM      6  C   UNL     1       1.932   5.192  18.281  0.00  0.00    +0.000 A 
ATOM      7  C   UNL     1       2.265   3.933  17.741  0.00  0.00    +0.000 A 
ATOM      8  C   UNL     1       3.465   3.785  17.055  0.00  0.00    +0.000 A 
ATOM      9  C   UNL     1       4.359   4.838  17.000  0.00  0.00    +0.000 A 
ATOM     10  C   UNL     1       4.089   6.067  17.613  0.00  0.00    +0.000 A 
BRANCH   7  11
ATOM     11  O   UNL     1       1.385   2.899  17.966  0.00  0.00    +0.000 OA
BRANCH  11  12
ATOM     12  C   UNL     1       1.717   2.046  19.071  0.00  0.00    +0.000 C 
ATOM     13  C   UNL     1       1.240   2.650  20.376  0.00  0.00    +0.000 C 
ENDBRANCH  11  12
ENDBRANCH   7  11
BRANCH  10  14
ATOM     14  O   UNL     1       5.194   6.864  17.566  0.00  0.00    +0.000 OA
BRANCH  14  15
ATOM     15  C   UNL     1       6.447   6.349  17.202  0.00  0.00    +0.000 C 
ATOM     16  C   UNL     1       7.486   7.408  17.544  0.00  0.00    +0.000 C 
ENDBRANCH  14  15
ENDBRANCH  10  14
ENDBRANCH   3   5
BRANCH   1  17
ATOM     17  C   UNL     1       1.715   9.841  19.194  0.00  0.00    +0.000 C 
BRANCH  17  23
ATOM     18  C   UNL     1      -0.913  12.692  22.493  0.00  0.00    +0.000 C 
ATOM     19  O   UNL     1      -1.326  12.242  23.555  0.00  0.00    +0.000 OA
ATOM     20  N   UNL     1      -0.184  11.958  21.578  0.00  0.00    +0.000 N 
ATOM     21  C   UNL     1       0.080  10.546  21.825  0.00  0.00    +0.000 C 
ATOM     22  C   UNL     1      -0.294   9.672  20.598  0.00  0.00    +0.000 C 
ATOM     23  N   UNL     1       0.260  10.117  19.284  0.00  0.00    +0.000 NA
ATOM     24  C   UNL     1      -0.094  11.551  19.129  0.00  0.00    +0.000 C 
ATOM     25  C   UNL     1       0.317  12.472  20.301  0.00  0.00    +0.000 C 
BRANCH  18  26
ATOM     26  O   UNL     1      -1.199  13.950  22.050  0.00  0.00    +0.000 OA
BRANCH  26  28
ATOM     27  C   UNL     1      -1.861  15.998  23.080  0.00  0.00    +0.000 C 
ATOM     28  C   UNL     1      -0.721  15.012  22.889  0.00  0.00    +0.000 C 
ENDBRANCH  26  28
ENDBRANCH  18  26
ENDBRANCH  17  23
ENDBRANCH   1  17
TORSDOF 9
ENDMDL
MODEL 9
REMARK VINA RESULT:      -6.2      1.158      1.344
REMARK  Name = 
REMARK  12 active torsions:
REMARK  status: ('A' for Active; 'I' for Inactive)
REMARK    1  A    between atoms: C_1  and  C_2
REMARK    2  A    between atoms: C_2  and  O_3
REMARK    3  A    between atoms: O_3  and  C_4
REMARK    4  A    between atoms: N_9  and  C_10
REMARK    5  A    between atoms: C_10  and  C_11
REMARK    6  A    between atoms: N_13  and  C_14
REMARK    7  A    between atoms: C_16  and  O_17
REMARK    8  A    between atoms: O_17  and  C_18
REMARK    9  A    between atoms: C_18  and  C_19
REMARK   10  A    between atoms: C_22  and  O_23
REMARK   11  A    between atoms: O_23  and  C_24
REMARK   12  A    between atoms: C_24  and  C_25
REMARK                            x       y       z     vdW  Elec       q    Type
REMARK                         _______ _______ _______ _____ _____    ______ ____
ROOT
ATOM      1  C   UNL     1       1.839   8.071  19.212  0.00  0.00    +0.000 C 
ATOM      2  O   UNL     1       2.137   7.534  20.279  0.00  0.00    +0.000 OA
ATOM      3  N   UNL     1       2.290   7.652  17.956  0.00  0.00    +0.000 N 
ATOM      4  H   UNL     1       2.338   8.403  17.273  0.00  0.00    +0.000 HD
ENDROOT
BRANCH   3   5
ATOM      5  C   UNL     1       3.278   6.632  17.762  0.00  0.00    +0.000 A 
ATOM      6  C   UNL     1       4.579   7.007  17.368  0.00  0.00    +0.000 A 
ATOM      7  C   UNL     1       5.557   6.045  17.043  0.00  0.00    +0.000 A 
ATOM      8  C   UNL     1       5.258   4.696  17.193  0.00  0.00    +0.000 A 
ATOM      9  C   UNL     1       3.981   4.311  17.556  0.00  0.00    +0.000 A 
ATOM     10  C   UNL     1       2.967   5.249  17.791  0.00  0.00    +0.000 A 
BRANCH   7  11
ATOM     11  O   UNL     1       6.755   6.508  16.550  0.00  0.00    +0.000 OA
BRANCH  11  12
ATOM     12  C   UNL     1       7.485   7.372  17.433  0.00  0.00    +0.000 C 
ATOM     13  C   UNL     1       7.973   6.608  18.646  0.00  0.00    +0.000 C 
ENDBRANCH  11  12
ENDBRANCH   7  11
BRANCH  10  14
ATOM     14  O   UNL     1       1.773   4.612  17.954  0.00  0.00    +0.000 OA
BRANCH  14  15
ATOM     15  C   UNL     1       1.436   3.998  19.169  0.00  0.00    +0.000 C 
ATOM     16  C   UNL     1       0.886   2.618  18.840  0.00  0.00    +0.000 C 
ENDBRANCH  14  15
ENDBRANCH  10  14
ENDBRANCH   3   5
BRANCH   1  17
ATOM     17  C   UNL     1       0.803   9.231  19.164  0.00  0.00    +0.000 C 
BRANCH  17  23
ATOM     18  C   UNL     1      -1.937  12.734  21.643  0.00  0.00    +0.000 C 
ATOM     19  O   UNL     1      -2.419  13.705  21.072  0.00  0.00    +0.000 OA
ATOM     20  N   UNL     1      -1.202  11.754  21.007  0.00  0.00    +0.000 N 
ATOM     21  C   UNL     1      -0.907  11.875  19.584  0.00  0.00    +0.000 C 
ATOM     22  C   UNL     1       0.603  11.677  19.293  0.00  0.00    +0.000 C 
ATOM     23  N   UNL     1       1.229  10.456  19.885  0.00  0.00    +0.000 NA
ATOM     24  C   UNL     1       0.891  10.455  21.331  0.00  0.00    +0.000 C 
ATOM     25  C   UNL     1      -0.613  10.586  21.667  0.00  0.00    +0.000 C 
BRANCH  18  26
ATOM     26  O   UNL     1      -1.998  12.551  22.993  0.00  0.00    +0.000 OA
BRANCH  26  28
ATOM     27  C   UNL     1      -3.606  13.618  24.398  0.00  0.00    +0.000 C 
ATOM     28  C   UNL     1      -3.323  12.406  23.527  0.00  0.00    +0.000 C 
ENDBRANCH  26  28
ENDBRANCH  18  26
ENDBRANCH  17  23
ENDBRANCH   1  17
TORSDOF 9
ENDMDL
