MODEL 1
REMARK VINA RESULT:      -8.1      0.000      0.000
REMARK  Name = 
REMARK  4 active torsions:
REMARK  status: ('A' for Active; 'I' for Inactive)
REMARK    1  A    between atoms: C_2  and  C_16
REMARK    2  A    between atoms: N_3  and  C_4
REMARK    3  A    between atoms: C_8  and  C_9
REMARK    4  A    between atoms: N_11  and  C_12
REMARK                            x       y       z     vdW  Elec       q    Type
REMARK                         _______ _______ _______ _____ _____    ______ ____
ROOT
ATOM      1  C   UNL     1       5.385   6.152  17.372  0.00  0.00    +0.000 A 
ATOM      2  C   UNL     1       6.258   5.557  18.287  0.00  0.00    +0.000 A 
ATOM      3  C   UNL     1       7.277   4.705  17.862  0.00  0.00    +0.000 A 
ATOM      4  C   UNL     1       7.440   4.442  16.507  0.00  0.00    +0.000 A 
ATOM      5  C   UNL     1       6.571   5.024  15.575  0.00  0.00    +0.000 A 
ATOM      6  C   UNL     1       5.521   5.848  16.014  0.00  0.00    +0.000 A 
ENDROOT
BRANCH   1   9
ATOM      7  O   UNL     1       2.950   5.583  18.881  0.00  0.00    +0.000 OA
ATOM      8  C   UNL     1       3.229   6.708  18.471  0.00  0.00    +0.000 C 
ATOM      9  N   UNL     1       4.369   7.054  17.765  0.00  0.00    +0.000 N 
ATOM     10  H   UNL     1       4.535   8.030  17.559  0.00  0.00    +0.000 HD
BRANCH   8  11
ATOM     11  C   UNL     1       2.261   7.797  18.776  0.00  0.00    +0.000 A 
ATOM     12  C   UNL     1       1.830   8.729  17.827  0.00  0.00    +0.000 A 
ATOM     13  C   UNL     1       0.948   9.746  18.202  0.00  0.00    +0.000 A 
ATOM     14  C   UNL     1       0.504   9.842  19.523  0.00  0.00    +0.000 A 
ATOM     15  C   UNL     1       0.939   8.925  20.477  0.00  0.00    +0.000 A 
ATOM     16  C   UNL     1       1.818   7.908  20.105  0.00  0.00    +0.000 A 
ENDBRANCH   8  11
ENDBRANCH   1   9
BRANCH   5  17
ATOM     17  C   UNL     1       6.740   4.786  14.114  0.00  0.00    +0.000 C 
ATOM     18  O   UNL     1       7.588   5.413  13.489  0.00  0.00    +0.000 OA
ATOM     19  N   UNL     1       5.922   3.812  13.564  0.00  0.00    +0.000 N 
ATOM     20  H   UNL     1       5.380   3.222  14.177  0.00  0.00    +0.000 HD
BRANCH  19  21
ATOM     21  C   UNL     1       5.951   3.477  12.176  0.00  0.00    +0.000 C 
ATOM     22  C   UNL     1       5.650   2.075  11.718  0.00  0.00    +0.000 C 
ATOM     23  C   UNL     1       4.673   3.179  11.443  0.00  0.00    +0.000 C 
ENDBRANCH  19  21
ENDBRANCH   5  17
TORSDOF 4
ENDMDL
MODEL 2
REMARK VINA RESULT:      -8.0      0.139      1.064
REMARK  Name = 
REMARK  4 active torsions:
REMARK  status: ('A' for Active; 'I' for Inactive)
REMARK    1  A    between atoms: C_2  and  C_16
REMARK    2  A    between atoms: N_3  and  C_4
REMARK    3  A    between atoms: C_8  and  C_9
REMARK    4  A    between atoms: N_11  and  C_12
REMARK                            x       y       z     vdW  Elec       q    Type
REMARK                         _______ _______ _______ _____ _____    ______ ____
ROOT
ATOM      1  C   UNL     1       5.436   6.150  17.414  0.00  0.00    +0.000 A 
ATOM      2  C   UNL     1       6.332   5.541  18.297  0.00  0.00    +0.000 A 
ATOM      3  C   UNL     1       7.331   4.686  17.835  0.00  0.00    +0.000 A 
ATOM      4  C   UNL     1       7.452   4.434  16.474  0.00  0.00    +0.000 A 
ATOM      5  C   UNL     1       6.560   5.030  15.573  0.00  0.00    +0.000 A 
ATOM      6  C   UNL     1       5.530   5.858  16.049  0.00  0.00    +0.000 A 
ENDROOT
BRANCH   1   9
ATOM      7  O   UNL     1       2.848   5.545  18.623  0.00  0.00    +0.000 OA
ATOM      8  C   UNL     1       3.222   6.694  18.398  0.00  0.00    +0.000 C 
ATOM      9  N   UNL     1       4.439   7.056  17.844  0.00  0.00    +0.000 N 
ATOM     10  H   UNL     1       4.675   8.038  17.791  0.00  0.00    +0.000 HD
BRANCH   8  11
ATOM     11  C   UNL     1       2.291   7.793  18.773  0.00  0.00    +0.000 A 
ATOM     12  C   UNL     1       1.811   7.983  20.073  0.00  0.00    +0.000 A 
ATOM     13  C   UNL     1       0.908   9.017  20.336  0.00  0.00    +0.000 A 
ATOM     14  C   UNL     1       0.478   9.855  19.306  0.00  0.00    +0.000 A 
ATOM     15  C   UNL     1       0.942   9.665  18.006  0.00  0.00    +0.000 A 
ATOM     16  C   UNL     1       1.843   8.634  17.741  0.00  0.00    +0.000 A 
ENDBRANCH   8  11
ENDBRANCH   1   9
BRANCH   5  17
ATOM     17  C   UNL     1       6.684   4.803  14.105  0.00  0.00    +0.000 C 
ATOM     18  O   UNL     1       7.572   5.366  13.475  0.00  0.00    +0.000 OA
ATOM     19  N   UNL     1       5.776   3.912  13.555  0.00  0.00    +0.000 N 
ATOM     20  H   UNL     1       5.195   3.361  14.168  0.00  0.00    +0.000 HD
BRANCH  19  21
ATOM     21  C   UNL     1       5.753   3.601  12.161  0.00  0.00    +0.000 C 
ATOM     22  C   UNL     1       5.601   2.177  11.696  0.00  0.00    +0.000 C 
ATOM     23  C   UNL     1       4.476   3.151  11.508  0.00  0.00    +0.000 C 
ENDBRANCH  19  21
ENDBRANCH   5  17
TORSDOF 4
ENDMDL
MODEL 3
REMARK VINA RESULT:      -7.8      3.028      3.693
REMARK  Name = 
REMARK  4 active torsions:
REMARK  status: ('A' for Active; 'I' for Inactive)
REMARK    1  A    between atoms: C_2  and  C_16
REMARK    2  A    between atoms: N_3  and  C_4
REMARK    3  A    between atoms: C_8  and  C_9
REMARK    4  A    between atoms: N_11  and  C_12
REMARK                            x       y       z     vdW  Elec       q    Type
REMARK                         _______ _______ _______ _____ _____    ______ ____
ROOT
ATOM      1  C   UNL     1       5.606   4.077  16.459  0.00  0.00    +0.000 A 
ATOM      2  C   UNL     1       6.670   4.949  16.704  0.00  0.00    +0.000 A 
ATOM      3  C   UNL     1       7.516   5.362  15.675  0.00  0.00    +0.000 A 
ATOM      4  C   UNL     1       7.300   4.909  14.379  0.00  0.00    +0.000 A 
ATOM      5  C   UNL     1       6.243   4.029  14.114  0.00  0.00    +0.000 A 
ATOM      6  C   UNL     1       5.420   3.586  15.163  0.00  0.00    +0.000 A 
ENDROOT
BRANCH   1   9
ATOM      7  O   UNL     1       3.331   5.554  17.544  0.00  0.00    +0.000 OA
ATOM      8  C   UNL     1       3.650   4.438  17.947  0.00  0.00    +0.000 C 
ATOM      9  N   UNL     1       4.703   3.673  17.471  0.00  0.00    +0.000 N 
ATOM     10  H   UNL     1       4.814   2.730  17.817  0.00  0.00    +0.000 HD
BRANCH   8  11
ATOM     11  C   UNL     1       2.819   3.848  19.032  0.00  0.00    +0.000 A 
ATOM     12  C   UNL     1       1.439   4.052  19.139  0.00  0.00    +0.000 A 
ATOM     13  C   UNL     1       0.736   3.495  20.210  0.00  0.00    +0.000 A 
ATOM     14  C   UNL     1       1.405   2.743  21.178  0.00  0.00    +0.000 A 
ATOM     15  C   UNL     1       2.781   2.547  21.085  0.00  0.00    +0.000 A 
ATOM     16  C   UNL     1       3.485   3.101  20.017  0.00  0.00    +0.000 A 
ENDBRANCH   8  11
ENDBRANCH   1   9
BRANCH   5  17
ATOM     17  C   UNL     1       5.969   3.552  12.729  0.00  0.00    +0.000 C 
ATOM     18  O   UNL     1       6.900   3.222  12.004  0.00  0.00    +0.000 OA
ATOM     19  N   UNL     1       4.631   3.481  12.371  0.00  0.00    +0.000 N 
ATOM     20  H   UNL     1       3.925   3.601  13.081  0.00  0.00    +0.000 HD
BRANCH  19  21
ATOM     21  C   UNL     1       4.205   3.058  11.075  0.00  0.00    +0.000 C 
ATOM     22  C   UNL     1       2.745   2.830  10.785  0.00  0.00    +0.000 C 
ATOM     23  C   UNL     1       3.455   4.006  10.180  0.00  0.00    +0.000 C 
ENDBRANCH  19  21
ENDBRANCH   5  17
TORSDOF 4
ENDMDL
MODEL 4
REMARK VINA RESULT:      -7.7      2.059      8.044
REMARK  Name = 
REMARK  4 active torsions:
REMARK  status: ('A' for Active; 'I' for Inactive)
REMARK    1  A    between atoms: C_2  and  C_16
REMARK    2  A    between atoms: N_3  and  C_4
REMARK    3  A    between atoms: C_8  and  C_9
REMARK    4  A    between atoms: N_11  and  C_12
REMARK                            x       y       z     vdW  Elec       q    Type
REMARK                         _______ _______ _______ _____ _____    ______ ____
ROOT
ATOM      1  C   UNL     1       4.138   4.690  17.550  0.00  0.00    +0.000 A 
ATOM      2  C   UNL     1       4.096   3.676  18.510  0.00  0.00    +0.000 A 
ATOM      3  C   UNL     1       3.479   3.877  19.744  0.00  0.00    +0.000 A 
ATOM      4  C   UNL     1       2.887   5.101  20.031  0.00  0.00    +0.000 A 
ATOM      5  C   UNL     1       2.924   6.133  19.084  0.00  0.00    +0.000 A 
ATOM      6  C   UNL     1       3.583   5.937  17.859  0.00  0.00    +0.000 A 
ENDROOT
BRANCH   1   9
ATOM      7  O   UNL     1       6.843   5.366  16.679  0.00  0.00    +0.000 OA
ATOM      8  C   UNL     1       6.009   4.867  15.926  0.00  0.00    +0.000 C 
ATOM      9  N   UNL     1       4.717   4.506  16.272  0.00  0.00    +0.000 N 
ATOM     10  H   UNL     1       4.150   4.018  15.592  0.00  0.00    +0.000 HD
BRANCH   8  11
ATOM     11  C   UNL     1       6.434   4.610  14.523  0.00  0.00    +0.000 A 
ATOM     12  C   UNL     1       7.485   5.293  13.902  0.00  0.00    +0.000 A 
ATOM     13  C   UNL     1       7.798   5.021  12.567  0.00  0.00    +0.000 A 
ATOM     14  C   UNL     1       7.060   4.078  11.849  0.00  0.00    +0.000 A 
ATOM     15  C   UNL     1       6.003   3.404  12.457  0.00  0.00    +0.000 A 
ATOM     16  C   UNL     1       5.689   3.673  13.788  0.00  0.00    +0.000 A 
ENDBRANCH   8  11
ENDBRANCH   1   9
BRANCH   5  17
ATOM     17  C   UNL     1       2.271   7.445  19.350  0.00  0.00    +0.000 C 
ATOM     18  O   UNL     1       2.198   8.281  18.457  0.00  0.00    +0.000 OA
ATOM     19  N   UNL     1       1.746   7.609  20.623  0.00  0.00    +0.000 N 
ATOM     20  H   UNL     1       1.691   6.812  21.238  0.00  0.00    +0.000 HD
BRANCH  19  21
ATOM     21  C   UNL     1       1.103   8.814  21.039  0.00  0.00    +0.000 C 
ATOM     22  C   UNL     1      -0.224   8.770  21.749  0.00  0.00    +0.000 C 
ATOM     23  C   UNL     1       1.014   9.157  22.501  0.00  0.00    +0.000 C 
ENDBRANCH  19  21
ENDBRANCH   5  17
TORSDOF 4
ENDMDL
MODEL 5
REMARK VINA RESULT:      -7.6      2.073      8.085
REMARK  Name = 
REMARK  4 active torsions:
REMARK  status: ('A' for Active; 'I' for Inactive)
REMARK    1  A    between atoms: C_2  and  C_16
REMARK    2  A    between atoms: N_3  and  C_4
REMARK    3  A    between atoms: C_8  and  C_9
REMARK    4  A    between atoms: N_11  and  C_12
REMARK                            x       y       z     vdW  Elec       q    Type
REMARK                         _______ _______ _______ _____ _____    ______ ____
ROOT
ATOM      1  C   UNL     1       4.041   4.708  17.550  0.00  0.00    +0.000 A 
ATOM      2  C   UNL     1       4.028   3.698  18.516  0.00  0.00    +0.000 A 
ATOM      3  C   UNL     1       3.446   3.904  19.767  0.00  0.00    +0.000 A 
ATOM      4  C   UNL     1       2.861   5.129  20.065  0.00  0.00    +0.000 A 
ATOM      5  C   UNL     1       2.871   6.156  19.113  0.00  0.00    +0.000 A 
ATOM      6  C   UNL     1       3.494   5.955  17.870  0.00  0.00    +0.000 A 
ENDROOT
BRANCH   1   9
ATOM      7  O   UNL     1       6.775   5.203  16.649  0.00  0.00    +0.000 OA
ATOM      8  C   UNL     1       5.893   4.790  15.898  0.00  0.00    +0.000 C 
ATOM      9  N   UNL     1       4.583   4.519  16.258  0.00  0.00    +0.000 N 
ATOM     10  H   UNL     1       3.970   4.096  15.574  0.00  0.00    +0.000 HD
BRANCH   8  11
ATOM     11  C   UNL     1       6.274   4.544  14.480  0.00  0.00    +0.000 A 
ATOM     12  C   UNL     1       5.619   3.620  13.659  0.00  0.00    +0.000 A 
ATOM     13  C   UNL     1       6.062   3.419  12.349  0.00  0.00    +0.000 A 
ATOM     14  C   UNL     1       7.159   4.130  11.859  0.00  0.00    +0.000 A 
ATOM     15  C   UNL     1       7.823   5.044  12.675  0.00  0.00    +0.000 A 
ATOM     16  C   UNL     1       7.384   5.246  13.982  0.00  0.00    +0.000 A 
ENDBRANCH   8  11
ENDBRANCH   1   9
BRANCH   5  17
ATOM     17  C   UNL     1       2.224   7.470  19.392  0.00  0.00    +0.000 C 
ATOM     18  O   UNL     1       2.118   8.299  18.496  0.00  0.00    +0.000 OA
ATOM     19  N   UNL     1       1.744   7.642  20.681  0.00  0.00    +0.000 N 
ATOM     20  H   UNL     1       1.713   6.849  21.304  0.00  0.00    +0.000 HD
BRANCH  19  21
ATOM     21  C   UNL     1       1.113   8.849  21.111  0.00  0.00    +0.000 C 
ATOM     22  C   UNL     1      -0.231   8.813  21.789  0.00  0.00    +0.000 C 
ATOM     23  C   UNL     1       0.997   9.160  22.578  0.00  0.00    +0.000 C 
ENDBRANCH  19  21
ENDBRANCH   5  17
TORSDOF 4
ENDMDL
MODEL 6
REMARK VINA RESULT:      -7.5      4.174      6.205
REMARK  Name = 
REMARK  4 active torsions:
REMARK  status: ('A' for Active; 'I' for Inactive)
REMARK    1  A    between atoms: C_2  and  C_16
REMARK    2  A    between atoms: N_3  and  C_4
REMARK    3  A    between atoms: C_8  and  C_9
REMARK    4  A    between atoms: N_11  and  C_12
REMARK                            x       y       z     vdW  Elec       q    Type
REMARK                         _______ _______ _______ _____ _____    ______ ____
ROOT
ATOM      1  C   UNL     1       6.430   6.840  17.008  0.00  0.00    +0.000 A 
ATOM      2  C   UNL     1       7.045   5.838  16.253  0.00  0.00    +0.000 A 
ATOM      3  C   UNL     1       6.393   4.636  15.983  0.00  0.00    +0.000 A 
ATOM      4  C   UNL     1       5.107   4.423  16.463  0.00  0.00    +0.000 A 
ATOM      5  C   UNL     1       4.475   5.412  17.228  0.00  0.00    +0.000 A 
ATOM      6  C   UNL     1       5.154   6.605  17.531  0.00  0.00    +0.000 A 
ENDROOT
BRANCH   1   9
ATOM      7  O   UNL     1       8.574   7.443  18.897  0.00  0.00    +0.000 OA
ATOM      8  C   UNL     1       8.052   8.302  18.190  0.00  0.00    +0.000 C 
ATOM      9  N   UNL     1       7.045   8.088  17.263  0.00  0.00    +0.000 N 
ATOM     10  H   UNL     1       6.757   8.857  16.673  0.00  0.00    +0.000 HD
BRANCH   8  11
ATOM     11  C   UNL     1       8.562   9.694  18.331  0.00  0.00    +0.000 A 
ATOM     12  C   UNL     1       8.171  10.743  17.492  0.00  0.00    +0.000 A 
ATOM     13  C   UNL     1       8.725  12.014  17.665  0.00  0.00    +0.000 A 
ATOM     14  C   UNL     1       9.672  12.239  18.666  0.00  0.00    +0.000 A 
ATOM     15  C   UNL     1      10.076  11.197  19.497  0.00  0.00    +0.000 A 
ATOM     16  C   UNL     1       9.524   9.927  19.326  0.00  0.00    +0.000 A 
ENDBRANCH   8  11
ENDBRANCH   1   9
BRANCH   5  17
ATOM     17  C   UNL     1       3.085   5.225  17.730  0.00  0.00    +0.000 C 
ATOM     18  O   UNL     1       2.412   6.203  18.038  0.00  0.00    +0.000 OA
ATOM     19  N   UNL     1       2.632   3.916  17.776  0.00  0.00    +0.000 N 
ATOM     20  H   UNL     1       3.181   3.191  17.340  0.00  0.00    +0.000 HD
BRANCH  19  21
ATOM     21  C   UNL     1       1.330   3.569  18.247  0.00  0.00    +0.000 C 
ATOM     22  C   UNL     1       1.059   2.203  18.820  0.00  0.00    +0.000 C 
ATOM     23  C   UNL     1       1.078   3.403  19.720  0.00  0.00    +0.000 C 
ENDBRANCH  19  21
ENDBRANCH   5  17
TORSDOF 4
ENDMDL
MODEL 7
REMARK VINA RESULT:      -7.5      4.123      6.242
REMARK  Name = 
REMARK  4 active torsions:
REMARK  status: ('A' for Active; 'I' for Inactive)
REMARK    1  A    between atoms: C_2  and  C_16
REMARK    2  A    between atoms: N_3  and  C_4
REMARK    3  A    between atoms: C_8  and  C_9
REMARK    4  A    between atoms: N_11  and  C_12
REMARK                            x       y       z     vdW  Elec       q    Type
REMARK                         _______ _______ _______ _____ _____    ______ ____
ROOT
ATOM      1  C   UNL     1       6.403   6.791  16.970  0.00  0.00    +0.000 A 
ATOM      2  C   UNL     1       6.986   5.801  16.174  0.00  0.00    +0.000 A 
ATOM      3  C   UNL     1       6.310   4.615  15.890  0.00  0.00    +0.000 A 
ATOM      4  C   UNL     1       5.032   4.407  16.396  0.00  0.00    +0.000 A 
ATOM      5  C   UNL     1       4.434   5.385  17.200  0.00  0.00    +0.000 A 
ATOM      6  C   UNL     1       5.136   6.560  17.517  0.00  0.00    +0.000 A 
ENDROOT
BRANCH   1   9
ATOM      7  O   UNL     1       8.543   7.332  18.882  0.00  0.00    +0.000 OA
ATOM      8  C   UNL     1       8.045   8.208  18.179  0.00  0.00    +0.000 C 
ATOM      9  N   UNL     1       7.042   8.024  17.241  0.00  0.00    +0.000 N 
ATOM     10  H   UNL     1       6.775   8.804  16.656  0.00  0.00    +0.000 HD
BRANCH   8  11
ATOM     11  C   UNL     1       8.583   9.588  18.336  0.00  0.00    +0.000 A 
ATOM     12  C   UNL     1       9.537   9.934  19.299  0.00  0.00    +0.000 A 
ATOM     13  C   UNL     1       9.963  11.261  19.409  0.00  0.00    +0.000 A 
ATOM     14  C   UNL     1       9.434  12.242  18.568  0.00  0.00    +0.000 A 
ATOM     15  C   UNL     1       8.475  11.907  17.615  0.00  0.00    +0.000 A 
ATOM     16  C   UNL     1       8.048  10.584  17.503  0.00  0.00    +0.000 A 
ENDBRANCH   8  11
ENDBRANCH   1   9
BRANCH   5  17
ATOM     17  C   UNL     1       3.053   5.205  17.731  0.00  0.00    +0.000 C 
ATOM     18  O   UNL     1       2.398   6.184  18.068  0.00  0.00    +0.000 OA
ATOM     19  N   UNL     1       2.588   3.899  17.768  0.00  0.00    +0.000 N 
ATOM     20  H   UNL     1       3.120   3.175  17.310  0.00  0.00    +0.000 HD
BRANCH  19  21
ATOM     21  C   UNL     1       1.293   3.559  18.264  0.00  0.00    +0.000 C 
ATOM     22  C   UNL     1       1.047   2.222  18.911  0.00  0.00    +0.000 C 
ATOM     23  C   UNL     1       1.051   3.469  19.745  0.00  0.00    +0.000 C 
ENDBRANCH  19  21
ENDBRANCH   5  17
TORSDOF 4
ENDMDL
MODEL 8
REMARK VINA RESULT:      -7.4      2.578      3.952
REMARK  Name = 
REMARK  4 active torsions:
REMARK  status: ('A' for Active; 'I' for Inactive)
REMARK    1  A    between atoms: C_2  and  C_16
REMARK    2  A    between atoms: N_3  and  C_4
REMARK    3  A    between atoms: C_8  and  C_9
REMARK    4  A    between atoms: N_11  and  C_12
REMARK                            x       y       z     vdW  Elec       q    Type
REMARK                         _______ _______ _______ _____ _____    ______ ____
ROOT
ATOM      1  C   UNL     1       2.476   5.250  20.542  0.00  0.00    +0.000 A 
ATOM      2  C   UNL     1       2.073   3.999  21.015  0.00  0.00    +0.000 A 
ATOM      3  C   UNL     1       2.757   2.838  20.656  0.00  0.00    +0.000 A 
ATOM      4  C   UNL     1       3.864   2.917  19.820  0.00  0.00    +0.000 A 
ATOM      5  C   UNL     1       4.280   4.162  19.330  0.00  0.00    +0.000 A 
ATOM      6  C   UNL     1       3.561   5.322  19.662  0.00  0.00    +0.000 A 
ENDROOT
BRANCH   1   9
ATOM      7  O   UNL     1       2.224   7.724  19.010  0.00  0.00    +0.000 OA
ATOM      8  C   UNL     1       1.765   7.596  20.143  0.00  0.00    +0.000 C 
ATOM      9  N   UNL     1       1.832   6.451  20.921  0.00  0.00    +0.000 N 
ATOM     10  H   UNL     1       1.338   6.434  21.803  0.00  0.00    +0.000 HD
BRANCH   8  11
ATOM     11  C   UNL     1       1.058   8.771  20.723  0.00  0.00    +0.000 A 
ATOM     12  C   UNL     1       0.819   9.951  20.010  0.00  0.00    +0.000 A 
ATOM     13  C   UNL     1       0.182  11.025  20.639  0.00  0.00    +0.000 A 
ATOM     14  C   UNL     1      -0.208  10.928  21.976  0.00  0.00    +0.000 A 
ATOM     15  C   UNL     1       0.038   9.760  22.695  0.00  0.00    +0.000 A 
ATOM     16  C   UNL     1       0.673   8.687  22.071  0.00  0.00    +0.000 A 
ENDBRANCH   8  11
ENDBRANCH   1   9
BRANCH   5  17
ATOM     17  C   UNL     1       5.481   4.282  18.456  0.00  0.00    +0.000 C 
ATOM     18  O   UNL     1       6.550   4.640  18.938  0.00  0.00    +0.000 OA
ATOM     19  N   UNL     1       5.298   3.930  17.128  0.00  0.00    +0.000 N 
ATOM     20  H   UNL     1       4.439   3.479  16.854  0.00  0.00    +0.000 HD
BRANCH  19  21
ATOM     21  C   UNL     1       6.346   4.005  16.162  0.00  0.00    +0.000 C 
ATOM     22  C   UNL     1       6.036   3.967  14.689  0.00  0.00    +0.000 C 
ATOM     23  C   UNL     1       6.512   5.241  15.322  0.00  0.00    +0.000 C 
ENDBRANCH  19  21
ENDBRANCH   5  17
TORSDOF 4
ENDMDL
MODEL 9
REMARK VINA RESULT:      -7.4      2.588      4.118
REMARK  Name = 
REMARK  4 active torsions:
REMARK  status: ('A' for Active; 'I' for Inactive)
REMARK    1  A    between atoms: C_2  and  C_16
REMARK    2  A    between atoms: N_3  and  C_4
REMARK    3  A    between atoms: C_8  and  C_9
REMARK    4  A    between atoms: N_11  and  C_12
REMARK                            x       y       z     vdW  Elec       q    Type
REMARK                         _______ _______ _______ _____ _____    ______ ____
ROOT
ATOM      1  C   UNL     1       2.404   5.226  20.508  0.00  0.00    +0.000 A 
ATOM      2  C   UNL     1       1.937   3.966  20.893  0.00  0.00    +0.000 A 
ATOM      3  C   UNL     1       2.584   2.801  20.483  0.00  0.00    +0.000 A 
ATOM      4  C   UNL     1       3.718   2.884  19.684  0.00  0.00    +0.000 A 
ATOM      5  C   UNL     1       4.198   4.137  19.282  0.00  0.00    +0.000 A 
ATOM      6  C   UNL     1       3.518   5.305  19.665  0.00  0.00    +0.000 A 
ENDROOT
BRANCH   1   9
ATOM      7  O   UNL     1       2.170   7.753  19.062  0.00  0.00    +0.000 OA
ATOM      8  C   UNL     1       1.738   7.599  20.202  0.00  0.00    +0.000 C 
ATOM      9  N   UNL     1       1.798   6.428  20.941  0.00  0.00    +0.000 N 
ATOM     10  H   UNL     1       1.327   6.394  21.835  0.00  0.00    +0.000 HD
BRANCH   8  11
ATOM     11  C   UNL     1       1.074   8.770  20.836  0.00  0.00    +0.000 A 
ATOM     12  C   UNL     1       0.691   8.800  22.182  0.00  0.00    +0.000 A 
ATOM     13  C   UNL     1       0.037   9.924  22.693  0.00  0.00    +0.000 A 
ATOM     14  C   UNL     1      -0.244  11.013  21.866  0.00  0.00    +0.000 A 
ATOM     15  C   UNL     1       0.123  10.985  20.522  0.00  0.00    +0.000 A 
ATOM     16  C   UNL     1       0.776   9.865  20.009  0.00  0.00    +0.000 A 
ENDBRANCH   8  11
ENDBRANCH   1   9
BRANCH   5  17
ATOM     17  C   UNL     1       5.429   4.258  18.452  0.00  0.00    +0.000 C 
ATOM     18  O   UNL     1       6.479   4.621  18.969  0.00  0.00    +0.000 OA
ATOM     19  N   UNL     1       5.294   3.901  17.119  0.00  0.00    +0.000 N 
ATOM     20  H   UNL     1       4.446   3.446  16.816  0.00  0.00    +0.000 HD
BRANCH  19  21
ATOM     21  C   UNL     1       6.375   3.976  16.190  0.00  0.00    +0.000 C 
ATOM     22  C   UNL     1       6.116   3.956  14.707  0.00  0.00    +0.000 C 
ATOM     23  C   UNL     1       6.581   5.219  15.368  0.00  0.00    +0.000 C 
ENDBRANCH  19  21
ENDBRANCH   5  17
TORSDOF 4
ENDMDL
