MODEL 1
REMARK VINA RESULT:      -9.2      0.000      0.000
REMARK  Name = 
REMARK  5 active torsions:
REMARK  status: ('A' for Active; 'I' for Inactive)
REMARK    1  A    between atoms: C_1  and  O_2
REMARK    2  A    between atoms: O_2  and  C_3
REMARK    3  A    between atoms: C_12  and  C_13
REMARK    4  A    between atoms: N_15  and  C_16
REMARK    5  A    between atoms: C_21  and  C_22
REMARK                            x       y       z     vdW  Elec       q    Type
REMARK                         _______ _______ _______ _____ _____    ______ ____
ROOT
ATOM      1  C   UNL     1      -1.522  11.892  22.149  0.00  0.00    +0.000 A 
ATOM      2  C   UNL     1      -1.456  12.333  20.823  0.00  0.00    +0.000 A 
ATOM      3  C   UNL     1      -0.646  11.670  19.894  0.00  0.00    +0.000 A 
ATOM      4  C   UNL     1       0.094  10.560  20.293  0.00  0.00    +0.000 A 
ATOM      5  C   UNL     1       0.044  10.114  21.639  0.00  0.00    +0.000 A 
ATOM      6  C   UNL     1      -0.748  10.805  22.561  0.00  0.00    +0.000 A 
ATOM      7  C   UNL     1       0.922   8.945  22.090  0.00  0.00    +0.000 C 
ATOM      8  C   UNL     1       1.179   7.880  20.991  0.00  0.00    +0.000 C 
ATOM      9  C   UNL     1       1.438   8.535  19.685  0.00  0.00    +0.000 A 
ATOM     10  C   UNL     1       2.159   8.190  18.518  0.00  0.00    +0.000 A 
ATOM     11  N   UNL     1       2.065   9.174  17.595  0.00  0.00    +0.000 NA
ATOM     12  O   UNL     1       1.258  10.162  18.165  0.00  0.00    +0.000 OA
ATOM     13  C   UNL     1       0.907   9.764  19.404  0.00  0.00    +0.000 A 
ENDROOT
BRANCH  10  14
ATOM     14  C   UNL     1       2.927   6.962  18.278  0.00  0.00    +0.000 C 
ATOM     15  O   UNL     1       4.030   7.011  17.745  0.00  0.00    +0.000 OA
ATOM     16  N   UNL     1       2.263   5.804  18.666  0.00  0.00    +0.000 N 
ATOM     17  H   UNL     1       1.308   5.966  18.989  0.00  0.00    +0.000 HD
BRANCH  16  18
ATOM     18  C   UNL     1       2.713   4.470  18.527  0.00  0.00    +0.000 A 
ATOM     19  C   UNL     1       3.461   4.067  17.409  0.00  0.00    +0.000 A 
ATOM     20  C   UNL     1       3.863   2.740  17.238  0.00  0.00    +0.000 A 
ATOM     21  C   UNL     1       3.533   1.786  18.187  0.00  0.00    +0.000 A 
ATOM     22  C   UNL     1       2.822   2.169  19.321  0.00  0.00    +0.000 A 
ATOM     23  C   UNL     1       2.415   3.509  19.514  0.00  0.00    +0.000 A 
BRANCH  23  24
ATOM     24  C   UNL     1       1.649   3.808  20.779  0.00  0.00    +0.000 C 
ATOM     25  F   UNL     1       2.285   4.660  21.632  0.00  0.00    +0.000 F 
ATOM     26  F   UNL     1       0.434   4.373  20.530  0.00  0.00    +0.000 F 
ATOM     27  F   UNL     1       1.392   2.684  21.506  0.00  0.00    +0.000 F 
ENDBRANCH  23  24
ENDBRANCH  16  18
ENDBRANCH  10  14
BRANCH   1  29
ATOM     28  C   UNL     1      -1.862  13.778  23.528  0.00  0.00    +0.000 C 
ATOM     29  O   UNL     1      -2.275  12.474  23.134  0.00  0.00    +0.000 OA
ENDBRANCH   1  29
TORSDOF 4
ENDMDL
MODEL 2
REMARK VINA RESULT:      -8.7      2.038      2.888
REMARK  Name = 
REMARK  5 active torsions:
REMARK  status: ('A' for Active; 'I' for Inactive)
REMARK    1  A    between atoms: C_1  and  O_2
REMARK    2  A    between atoms: O_2  and  C_3
REMARK    3  A    between atoms: C_12  and  C_13
REMARK    4  A    between atoms: N_15  and  C_16
REMARK    5  A    between atoms: C_21  and  C_22
REMARK                            x       y       z     vdW  Elec       q    Type
REMARK                         _______ _______ _______ _____ _____    ______ ____
ROOT
ATOM      1  C   UNL     1      -2.119  12.406  22.231  0.00  0.00    +0.000 A 
ATOM      2  C   UNL     1      -1.568  11.498  23.141  0.00  0.00    +0.000 A 
ATOM      3  C   UNL     1      -0.722  10.474  22.700  0.00  0.00    +0.000 A 
ATOM      4  C   UNL     1      -0.424  10.364  21.344  0.00  0.00    +0.000 A 
ATOM      5  C   UNL     1      -0.988  11.272  20.411  0.00  0.00    +0.000 A 
ATOM      6  C   UNL     1      -1.854  12.272  20.866  0.00  0.00    +0.000 A 
ATOM      7  C   UNL     1      -0.721  11.096  18.915  0.00  0.00    +0.000 C 
ATOM      8  C   UNL     1       0.673  10.501  18.582  0.00  0.00    +0.000 C 
ATOM      9  C   UNL     1       1.006   9.404  19.524  0.00  0.00    +0.000 A 
ATOM     10  C   UNL     1       1.813   8.244  19.464  0.00  0.00    +0.000 A 
ATOM     11  N   UNL     1       1.765   7.572  20.636  0.00  0.00    +0.000 NA
ATOM     12  O   UNL     1       0.930   8.316  21.474  0.00  0.00    +0.000 OA
ATOM     13  C   UNL     1       0.488   9.390  20.790  0.00  0.00    +0.000 A 
ENDROOT
BRANCH  10  14
ATOM     14  C   UNL     1       2.609   7.772  18.323  0.00  0.00    +0.000 C 
ATOM     15  O   UNL     1       2.548   8.346  17.242  0.00  0.00    +0.000 OA
ATOM     16  N   UNL     1       3.357   6.634  18.598  0.00  0.00    +0.000 N 
ATOM     17  H   UNL     1       3.187   6.244  19.526  0.00  0.00    +0.000 HD
BRANCH  16  18
ATOM     18  C   UNL     1       4.185   5.915  17.703  0.00  0.00    +0.000 A 
ATOM     19  C   UNL     1       5.403   6.448  17.252  0.00  0.00    +0.000 A 
ATOM     20  C   UNL     1       6.200   5.768  16.327  0.00  0.00    +0.000 A 
ATOM     21  C   UNL     1       5.800   4.534  15.839  0.00  0.00    +0.000 A 
ATOM     22  C   UNL     1       4.613   3.971  16.299  0.00  0.00    +0.000 A 
ATOM     23  C   UNL     1       3.799   4.641  17.240  0.00  0.00    +0.000 A 
BRANCH  23  24
ATOM     24  C   UNL     1       2.535   3.935  17.666  0.00  0.00    +0.000 C 
ATOM     25  F   UNL     1       1.392   4.637  17.423  0.00  0.00    +0.000 F 
ATOM     26  F   UNL     1       2.372   2.736  17.040  0.00  0.00    +0.000 F 
ATOM     27  F   UNL     1       2.520   3.660  19.001  0.00  0.00    +0.000 F 
ENDBRANCH  23  24
ENDBRANCH  16  18
ENDBRANCH  10  14
BRANCH   1  29
ATOM     28  C   UNL     1      -4.255  13.377  21.969  0.00  0.00    +0.000 C 
ATOM     29  O   UNL     1      -2.961  13.435  22.559  0.00  0.00    +0.000 OA
ENDBRANCH   1  29
TORSDOF 4
ENDMDL
MODEL 3
REMARK VINA RESULT:      -8.6      0.926      1.263
REMARK  Name = 
REMARK  5 active torsions:
REMARK  status: ('A' for Active; 'I' for Inactive)
REMARK    1  A    between atoms: C_1  and  O_2
REMARK    2  A    between atoms: O_2  and  C_3
REMARK    3  A    between atoms: C_12  and  C_13
REMARK    4  A    between atoms: N_15  and  C_16
REMARK    5  A    between atoms: C_21  and  C_22
REMARK                            x       y       z     vdW  Elec       q    Type
REMARK                         _______ _______ _______ _____ _____    ______ ____
ROOT
ATOM      1  C   UNL     1      -1.479  12.643  20.462  0.00  0.00    +0.000 A 
ATOM      2  C   UNL     1      -1.179  12.706  19.097  0.00  0.00    +0.000 A 
ATOM      3  C   UNL     1      -0.309  11.776  18.516  0.00  0.00    +0.000 A 
ATOM      4  C   UNL     1       0.256  10.776  19.305  0.00  0.00    +0.000 A 
ATOM      5  C   UNL     1      -0.032  10.711  20.692  0.00  0.00    +0.000 A 
ATOM      6  C   UNL     1      -0.880  11.667  21.262  0.00  0.00    +0.000 A 
ATOM      7  C   UNL     1       0.656   9.662  21.567  0.00  0.00    +0.000 C 
ATOM      8  C   UNL     1       0.968   8.328  20.838  0.00  0.00    +0.000 C 
ATOM      9  C   UNL     1       1.475   8.594  19.469  0.00  0.00    +0.000 A 
ATOM     10  C   UNL     1       2.321   7.910  18.565  0.00  0.00    +0.000 A 
ATOM     11  N   UNL     1       2.457   8.612  17.418  0.00  0.00    +0.000 NA
ATOM     12  O   UNL     1       1.674   9.759  17.573  0.00  0.00    +0.000 OA
ATOM     13  C   UNL     1       1.110   9.728  18.797  0.00  0.00    +0.000 A 
ENDROOT
BRANCH  10  14
ATOM     14  C   UNL     1       2.996   6.622  18.779  0.00  0.00    +0.000 C 
ATOM     15  O   UNL     1       4.141   6.585  19.215  0.00  0.00    +0.000 OA
ATOM     16  N   UNL     1       2.233   5.524  18.404  0.00  0.00    +0.000 N 
ATOM     17  H   UNL     1       1.346   5.770  17.961  0.00  0.00    +0.000 HD
BRANCH  16  18
ATOM     18  C   UNL     1       2.613   4.161  18.443  0.00  0.00    +0.000 A 
ATOM     19  C   UNL     1       3.313   3.570  17.379  0.00  0.00    +0.000 A 
ATOM     20  C   UNL     1       3.645   2.213  17.387  0.00  0.00    +0.000 A 
ATOM     21  C   UNL     1       3.291   1.417  18.465  0.00  0.00    +0.000 A 
ATOM     22  C   UNL     1       2.628   1.990  19.547  0.00  0.00    +0.000 A 
ATOM     23  C   UNL     1       2.292   3.362  19.559  0.00  0.00    +0.000 A 
BRANCH  23  24
ATOM     24  C   UNL     1       1.572   3.872  20.783  0.00  0.00    +0.000 C 
ATOM     25  F   UNL     1       1.243   2.904  21.684  0.00  0.00    +0.000 F 
ATOM     26  F   UNL     1       2.307   4.786  21.476  0.00  0.00    +0.000 F 
ATOM     27  F   UNL     1       0.401   4.498  20.473  0.00  0.00    +0.000 F 
ENDBRANCH  23  24
ENDBRANCH  16  18
ENDBRANCH  10  14
BRANCH   1  29
ATOM     28  C   UNL     1      -3.273  12.896  21.974  0.00  0.00    +0.000 C 
ATOM     29  O   UNL     1      -2.308  13.507  21.125  0.00  0.00    +0.000 OA
ENDBRANCH   1  29
TORSDOF 4
ENDMDL
MODEL 4
REMARK VINA RESULT:      -8.5      3.018      4.085
REMARK  Name = 
REMARK  5 active torsions:
REMARK  status: ('A' for Active; 'I' for Inactive)
REMARK    1  A    between atoms: C_1  and  O_2
REMARK    2  A    between atoms: O_2  and  C_3
REMARK    3  A    between atoms: C_12  and  C_13
REMARK    4  A    between atoms: N_15  and  C_16
REMARK    5  A    between atoms: C_21  and  C_22
REMARK                            x       y       z     vdW  Elec       q    Type
REMARK                         _______ _______ _______ _____ _____    ______ ____
ROOT
ATOM      1  C   UNL     1      -0.275  11.617  20.973  0.00  0.00    +0.000 A 
ATOM      2  C   UNL     1      -0.151  10.729  22.047  0.00  0.00    +0.000 A 
ATOM      3  C   UNL     1       0.402   9.457  21.858  0.00  0.00    +0.000 A 
ATOM      4  C   UNL     1       0.838   9.078  20.590  0.00  0.00    +0.000 A 
ATOM      5  C   UNL     1       0.705   9.967  19.493  0.00  0.00    +0.000 A 
ATOM      6  C   UNL     1       0.123  11.223  19.694  0.00  0.00    +0.000 A 
ATOM      7  C   UNL     1       1.110   9.513  18.089  0.00  0.00    +0.000 C 
ATOM      8  C   UNL     1       2.294   8.511  18.059  0.00  0.00    +0.000 C 
ATOM      9  C   UNL     1       2.151   7.509  19.145  0.00  0.00    +0.000 A 
ATOM     10  C   UNL     1       2.575   6.173  19.336  0.00  0.00    +0.000 A 
ATOM     11  N   UNL     1       2.167   5.714  20.540  0.00  0.00    +0.000 NA
ATOM     12  O   UNL     1       1.485   6.772  21.146  0.00  0.00    +0.000 OA
ATOM     13  C   UNL     1       1.483   7.820  20.297  0.00  0.00    +0.000 A 
ENDROOT
BRANCH  10  14
ATOM     14  C   UNL     1       3.342   5.341  18.399  0.00  0.00    +0.000 C 
ATOM     15  O   UNL     1       3.126   4.137  18.315  0.00  0.00    +0.000 OA
ATOM     16  N   UNL     1       4.316   6.043  17.700  0.00  0.00    +0.000 N 
ATOM     17  H   UNL     1       4.412   7.017  17.992  0.00  0.00    +0.000 HD
BRANCH  16  18
ATOM     18  C   UNL     1       5.243   5.523  16.765  0.00  0.00    +0.000 A 
ATOM     19  C   UNL     1       4.849   5.185  15.461  0.00  0.00    +0.000 A 
ATOM     20  C   UNL     1       5.745   4.621  14.549  0.00  0.00    +0.000 A 
ATOM     21  C   UNL     1       7.061   4.391  14.920  0.00  0.00    +0.000 A 
ATOM     22  C   UNL     1       7.482   4.751  16.196  0.00  0.00    +0.000 A 
ATOM     23  C   UNL     1       6.591   5.330  17.128  0.00  0.00    +0.000 A 
BRANCH  23  24
ATOM     24  C   UNL     1       7.159   5.678  18.482  0.00  0.00    +0.000 C 
ATOM     25  F   UNL     1       6.305   5.461  19.522  0.00  0.00    +0.000 F 
ATOM     26  F   UNL     1       8.284   4.966  18.773  0.00  0.00    +0.000 F 
ATOM     27  F   UNL     1       7.519   6.990  18.570  0.00  0.00    +0.000 F 
ENDBRANCH  23  24
ENDBRANCH  16  18
ENDBRANCH  10  14
BRANCH   1  29
ATOM     28  C   UNL     1      -1.916  13.125  20.195  0.00  0.00    +0.000 C 
ATOM     29  O   UNL     1      -0.807  12.876  21.052  0.00  0.00    +0.000 OA
ENDBRANCH   1  29
TORSDOF 4
ENDMDL
MODEL 5
REMARK VINA RESULT:      -8.4      2.172      3.013
REMARK  Name = 
REMARK  5 active torsions:
REMARK  status: ('A' for Active; 'I' for Inactive)
REMARK    1  A    between atoms: C_1  and  O_2
REMARK    2  A    between atoms: O_2  and  C_3
REMARK    3  A    between atoms: C_12  and  C_13
REMARK    4  A    between atoms: N_15  and  C_16
REMARK    5  A    between atoms: C_21  and  C_22
REMARK                            x       y       z     vdW  Elec       q    Type
REMARK                         _______ _______ _______ _____ _____    ______ ____
ROOT
ATOM      1  C   UNL     1      -1.594  11.781  22.415  0.00  0.00    +0.000 A 
ATOM      2  C   UNL     1      -1.117  10.744  23.224  0.00  0.00    +0.000 A 
ATOM      3  C   UNL     1      -0.318   9.731  22.683  0.00  0.00    +0.000 A 
ATOM      4  C   UNL     1       0.010   9.761  21.329  0.00  0.00    +0.000 A 
ATOM      5  C   UNL     1      -0.479  10.802  20.498  0.00  0.00    +0.000 A 
ATOM      6  C   UNL     1      -1.301  11.790  21.049  0.00  0.00    +0.000 A 
ATOM      7  C   UNL     1      -0.184  10.784  18.997  0.00  0.00    +0.000 C 
ATOM      8  C   UNL     1       1.184  10.153  18.623  0.00  0.00    +0.000 C 
ATOM      9  C   UNL     1       1.432   8.937  19.438  0.00  0.00    +0.000 A 
ATOM     10  C   UNL     1       2.176   7.747  19.259  0.00  0.00    +0.000 A 
ATOM     11  N   UNL     1       2.060   6.949  20.344  0.00  0.00    +0.000 NA
ATOM     12  O   UNL     1       1.246   7.638  21.246  0.00  0.00    +0.000 OA
ATOM     13  C   UNL     1       0.881   8.807  20.683  0.00  0.00    +0.000 A 
ENDROOT
BRANCH  10  14
ATOM     14  C   UNL     1       2.974   7.365  18.087  0.00  0.00    +0.000 C 
ATOM     15  O   UNL     1       2.865   7.981  17.032  0.00  0.00    +0.000 OA
ATOM     16  N   UNL     1       3.783   6.257  18.301  0.00  0.00    +0.000 N 
ATOM     17  H   UNL     1       3.650   5.820  19.214  0.00  0.00    +0.000 HD
BRANCH  16  18
ATOM     18  C   UNL     1       4.630   5.619  17.363  0.00  0.00    +0.000 A 
ATOM     19  C   UNL     1       5.704   6.303  16.771  0.00  0.00    +0.000 A 
ATOM     20  C   UNL     1       6.513   5.697  15.805  0.00  0.00    +0.000 A 
ATOM     21  C   UNL     1       6.269   4.390  15.415  0.00  0.00    +0.000 A 
ATOM     22  C   UNL     1       5.231   3.682  16.014  0.00  0.00    +0.000 A 
ATOM     23  C   UNL     1       4.410   4.276  16.999  0.00  0.00    +0.000 A 
BRANCH  23  24
ATOM     24  C   UNL     1       3.315   3.413  17.577  0.00  0.00    +0.000 C 
ATOM     25  F   UNL     1       3.452   2.083  17.315  0.00  0.00    +0.000 F 
ATOM     26  F   UNL     1       3.233   3.516  18.933  0.00  0.00    +0.000 F 
ATOM     27  F   UNL     1       2.083   3.755  17.105  0.00  0.00    +0.000 F 
ENDBRANCH  23  24
ENDBRANCH  16  18
ENDBRANCH  10  14
BRANCH   1  29
ATOM     28  C   UNL     1      -3.639  12.937  22.180  0.00  0.00    +0.000 C 
ATOM     29  O   UNL     1      -2.386  12.812  22.845  0.00  0.00    +0.000 OA
ENDBRANCH   1  29
TORSDOF 4
ENDMDL
MODEL 6
REMARK VINA RESULT:      -8.4      3.302      4.493
REMARK  Name = 
REMARK  5 active torsions:
REMARK  status: ('A' for Active; 'I' for Inactive)
REMARK    1  A    between atoms: C_1  and  O_2
REMARK    2  A    between atoms: O_2  and  C_3
REMARK    3  A    between atoms: C_12  and  C_13
REMARK    4  A    between atoms: N_15  and  C_16
REMARK    5  A    between atoms: C_21  and  C_22
REMARK                            x       y       z     vdW  Elec       q    Type
REMARK                         _______ _______ _______ _____ _____    ______ ____
ROOT
ATOM      1  C   UNL     1      -0.194  10.881  20.918  0.00  0.00    +0.000 A 
ATOM      2  C   UNL     1      -0.132   9.924  21.936  0.00  0.00    +0.000 A 
ATOM      3  C   UNL     1       0.491   8.690  21.715  0.00  0.00    +0.000 A 
ATOM      4  C   UNL     1       1.059   8.418  20.473  0.00  0.00    +0.000 A 
ATOM      5  C   UNL     1       0.991   9.378  19.430  0.00  0.00    +0.000 A 
ATOM      6  C   UNL     1       0.338  10.594  19.659  0.00  0.00    +0.000 A 
ATOM      7  C   UNL     1       1.544   9.041  18.044  0.00  0.00    +0.000 C 
ATOM      8  C   UNL     1       2.768   8.088  18.060  0.00  0.00    +0.000 C 
ATOM      9  C   UNL     1       2.569   7.007  19.057  0.00  0.00    +0.000 A 
ATOM     10  C   UNL     1       3.031   5.677  19.197  0.00  0.00    +0.000 A 
ATOM     11  N   UNL     1       2.533   5.118  20.323  0.00  0.00    +0.000 NA
ATOM     12  O   UNL     1       1.752   6.105  20.931  0.00  0.00    +0.000 OA
ATOM     13  C   UNL     1       1.784   7.209  20.159  0.00  0.00    +0.000 A 
ENDROOT
BRANCH  10  14
ATOM     14  C   UNL     1       3.918   4.943  18.285  0.00  0.00    +0.000 C 
ATOM     15  O   UNL     1       4.253   3.791  18.535  0.00  0.00    +0.000 OA
ATOM     16  N   UNL     1       4.339   5.694  17.194  0.00  0.00    +0.000 N 
ATOM     17  H   UNL     1       4.036   6.668  17.223  0.00  0.00    +0.000 HD
BRANCH  16  18
ATOM     18  C   UNL     1       5.226   5.291  16.167  0.00  0.00    +0.000 A 
ATOM     19  C   UNL     1       4.787   4.495  15.097  0.00  0.00    +0.000 A 
ATOM     20  C   UNL     1       5.668   4.049  14.108  0.00  0.00    +0.000 A 
ATOM     21  C   UNL     1       7.009   4.396  14.164  0.00  0.00    +0.000 A 
ATOM     22  C   UNL     1       7.459   5.214  15.197  0.00  0.00    +0.000 A 
ATOM     23  C   UNL     1       6.580   5.681  16.200  0.00  0.00    +0.000 A 
BRANCH  23  24
ATOM     24  C   UNL     1       7.180   6.558  17.270  0.00  0.00    +0.000 C 
ATOM     25  F   UNL     1       8.133   7.422  16.819  0.00  0.00    +0.000 F 
ATOM     26  F   UNL     1       6.247   7.331  17.893  0.00  0.00    +0.000 F 
ATOM     27  F   UNL     1       7.779   5.834  18.258  0.00  0.00    +0.000 F 
ENDBRANCH  23  24
ENDBRANCH  16  18
ENDBRANCH  10  14
BRANCH   1  29
ATOM     28  C   UNL     1      -1.394  12.607  19.843  0.00  0.00    +0.000 C 
ATOM     29  O   UNL     1      -0.786  12.111  21.030  0.00  0.00    +0.000 OA
ENDBRANCH   1  29
TORSDOF 4
ENDMDL
MODEL 7
REMARK VINA RESULT:      -8.3      2.789      8.173
REMARK  Name = 
REMARK  5 active torsions:
REMARK  status: ('A' for Active; 'I' for Inactive)
REMARK    1  A    between atoms: C_1  and  O_2
REMARK    2  A    between atoms: O_2  and  C_3
REMARK    3  A    between atoms: C_12  and  C_13
REMARK    4  A    between atoms: N_15  and  C_16
REMARK    5  A    between atoms: C_21  and  C_22
REMARK                            x       y       z     vdW  Elec       q    Type
REMARK                         _______ _______ _______ _____ _____    ______ ____
ROOT
ATOM      1  C   UNL     1       4.499   4.191  19.039  0.00  0.00    +0.000 A 
ATOM      2  C   UNL     1       4.865   4.966  17.933  0.00  0.00    +0.000 A 
ATOM      3  C   UNL     1       4.217   6.178  17.670  0.00  0.00    +0.000 A 
ATOM      4  C   UNL     1       3.204   6.617  18.521  0.00  0.00    +0.000 A 
ATOM      5  C   UNL     1       2.818   5.831  19.637  0.00  0.00    +0.000 A 
ATOM      6  C   UNL     1       3.457   4.608  19.868  0.00  0.00    +0.000 A 
ATOM      7  C   UNL     1       1.651   6.278  20.519  0.00  0.00    +0.000 C 
ATOM      8  C   UNL     1       1.495   7.817  20.639  0.00  0.00    +0.000 C 
ATOM      9  C   UNL     1       1.713   8.464  19.321  0.00  0.00    +0.000 A 
ATOM     10  C   UNL     1       1.270   9.659  18.708  0.00  0.00    +0.000 A 
ATOM     11  N   UNL     1       1.782   9.770  17.462  0.00  0.00    +0.000 NA
ATOM     12  O   UNL     1       2.583   8.640  17.271  0.00  0.00    +0.000 OA
ATOM     13  C   UNL     1       2.518   7.880  18.382  0.00  0.00    +0.000 A 
ENDROOT
BRANCH  10  14
ATOM     14  C   UNL     1       0.376  10.674  19.280  0.00  0.00    +0.000 C 
ATOM     15  O   UNL     1      -0.687  10.946  18.735  0.00  0.00    +0.000 OA
ATOM     16  N   UNL     1       0.882  11.282  20.423  0.00  0.00    +0.000 N 
ATOM     17  H   UNL     1       1.833  10.993  20.656  0.00  0.00    +0.000 HD
BRANCH  16  18
ATOM     18  C   UNL     1       0.287  12.321  21.177  0.00  0.00    +0.000 A 
ATOM     19  C   UNL     1       0.483  13.669  20.838  0.00  0.00    +0.000 A 
ATOM     20  C   UNL     1      -0.057  14.703  21.609  0.00  0.00    +0.000 A 
ATOM     21  C   UNL     1      -0.813  14.410  22.732  0.00  0.00    +0.000 A 
ATOM     22  C   UNL     1      -1.049  13.079  23.067  0.00  0.00    +0.000 A 
ATOM     23  C   UNL     1      -0.518  12.022  22.294  0.00  0.00    +0.000 A 
BRANCH  23  24
ATOM     24  C   UNL     1      -0.838  10.621  22.753  0.00  0.00    +0.000 C 
ATOM     25  F   UNL     1      -1.149   9.758  21.745  0.00  0.00    +0.000 F 
ATOM     26  F   UNL     1       0.196  10.045  23.427  0.00  0.00    +0.000 F 
ATOM     27  F   UNL     1      -1.901  10.586  23.606  0.00  0.00    +0.000 F 
ENDBRANCH  23  24
ENDBRANCH  16  18
ENDBRANCH  10  14
BRANCH   1  29
ATOM     28  C   UNL     1       4.148   1.968  19.752  0.00  0.00    +0.000 C 
ATOM     29  O   UNL     1       5.065   2.990  19.377  0.00  0.00    +0.000 OA
ENDBRANCH   1  29
TORSDOF 4
ENDMDL
MODEL 8
REMARK VINA RESULT:      -8.3      1.150      1.389
REMARK  Name = 
REMARK  5 active torsions:
REMARK  status: ('A' for Active; 'I' for Inactive)
REMARK    1  A    between atoms: C_1  and  O_2
REMARK    2  A    between atoms: O_2  and  C_3
REMARK    3  A    between atoms: C_12  and  C_13
REMARK    4  A    between atoms: N_15  and  C_16
REMARK    5  A    between atoms: C_21  and  C_22
REMARK                            x       y       z     vdW  Elec       q    Type
REMARK                         _______ _______ _______ _____ _____    ______ ____
ROOT
ATOM      1  C   UNL     1      -2.037  12.097  22.617  0.00  0.00    +0.000 A 
ATOM      2  C   UNL     1      -2.130  12.484  21.276  0.00  0.00    +0.000 A 
ATOM      3  C   UNL     1      -1.325  11.878  20.304  0.00  0.00    +0.000 A 
ATOM      4  C   UNL     1      -0.430  10.878  20.677  0.00  0.00    +0.000 A 
ATOM      5  C   UNL     1      -0.320  10.487  22.037  0.00  0.00    +0.000 A 
ATOM      6  C   UNL     1      -1.111  11.124  22.999  0.00  0.00    +0.000 A 
ATOM      7  C   UNL     1       0.723   9.447  22.451  0.00  0.00    +0.000 C 
ATOM      8  C   UNL     1       1.014   8.372  21.371  0.00  0.00    +0.000 C 
ATOM      9  C   UNL     1       1.089   8.995  20.027  0.00  0.00    +0.000 A 
ATOM     10  C   UNL     1       1.749   8.684  18.815  0.00  0.00    +0.000 A 
ATOM     11  N   UNL     1       1.468   9.610  17.871  0.00  0.00    +0.000 NA
ATOM     12  O   UNL     1       0.598  10.523  18.473  0.00  0.00    +0.000 OA
ATOM     13  C   UNL     1       0.397  10.142  19.750  0.00  0.00    +0.000 A 
ENDROOT
BRANCH  10  14
ATOM     14  C   UNL     1       2.635   7.542  18.552  0.00  0.00    +0.000 C 
ATOM     15  O   UNL     1       3.299   7.493  17.523  0.00  0.00    +0.000 OA
ATOM     16  N   UNL     1       2.589   6.564  19.538  0.00  0.00    +0.000 N 
ATOM     17  H   UNL     1       1.892   6.741  20.262  0.00  0.00    +0.000 HD
BRANCH  16  18
ATOM     18  C   UNL     1       3.285   5.332  19.556  0.00  0.00    +0.000 A 
ATOM     19  C   UNL     1       4.641   5.257  19.199  0.00  0.00    +0.000 A 
ATOM     20  C   UNL     1       5.321   4.036  19.163  0.00  0.00    +0.000 A 
ATOM     21  C   UNL     1       4.660   2.863  19.490  0.00  0.00    +0.000 A 
ATOM     22  C   UNL     1       3.326   2.918  19.881  0.00  0.00    +0.000 A 
ATOM     23  C   UNL     1       2.626   4.144  19.932  0.00  0.00    +0.000 A 
BRANCH  23  24
ATOM     24  C   UNL     1       1.182   4.082  20.367  0.00  0.00    +0.000 C 
ATOM     25  F   UNL     1       0.316   3.702  19.387  0.00  0.00    +0.000 F 
ATOM     26  F   UNL     1       0.985   3.208  21.393  0.00  0.00    +0.000 F 
ATOM     27  F   UNL     1       0.724   5.286  20.815  0.00  0.00    +0.000 F 
ENDBRANCH  23  24
ENDBRANCH  16  18
ENDBRANCH  10  14
BRANCH   1  29
ATOM     28  C   UNL     1      -3.238  13.959  23.431  0.00  0.00    +0.000 C 
ATOM     29  O   UNL     1      -2.772  12.631  23.642  0.00  0.00    +0.000 OA
ENDBRANCH   1  29
TORSDOF 4
ENDMDL
MODEL 9
REMARK VINA RESULT:      -8.3      2.470      7.908
REMARK  Name = 
REMARK  5 active torsions:
REMARK  status: ('A' for Active; 'I' for Inactive)
REMARK    1  A    between atoms: C_1  and  O_2
REMARK    2  A    between atoms: O_2  and  C_3
REMARK    3  A    between atoms: C_12  and  C_13
REMARK    4  A    between atoms: N_15  and  C_16
REMARK    5  A    between atoms: C_21  and  C_22
REMARK                            x       y       z     vdW  Elec       q    Type
REMARK                         _______ _______ _______ _____ _____    ______ ____
ROOT
ATOM      1  C   UNL     1       3.848   3.247  18.798  0.00  0.00    +0.000 A 
ATOM      2  C   UNL     1       4.290   3.921  17.654  0.00  0.00    +0.000 A 
ATOM      3  C   UNL     1       3.886   5.237  17.404  0.00  0.00    +0.000 A 
ATOM      4  C   UNL     1       3.042   5.882  18.306  0.00  0.00    +0.000 A 
ATOM      5  C   UNL     1       2.579   5.203  19.462  0.00  0.00    +0.000 A 
ATOM      6  C   UNL     1       2.970   3.878  19.682  0.00  0.00    +0.000 A 
ATOM      7  C   UNL     1       1.589   5.889  20.406  0.00  0.00    +0.000 C 
ATOM      8  C   UNL     1       1.758   7.428  20.499  0.00  0.00    +0.000 C 
ATOM      9  C   UNL     1       2.014   8.003  19.155  0.00  0.00    +0.000 A 
ATOM     10  C   UNL     1       1.785   9.257  18.542  0.00  0.00    +0.000 A 
ATOM     11  N   UNL     1       2.224   9.248  17.264  0.00  0.00    +0.000 NA
ATOM     12  O   UNL     1       2.764   7.977  17.050  0.00  0.00    +0.000 OA
ATOM     13  C   UNL     1       2.620   7.257  18.181  0.00  0.00    +0.000 A 
ENDROOT
BRANCH  10  14
ATOM     14  C   UNL     1       1.156  10.440  19.145  0.00  0.00    +0.000 C 
ATOM     15  O   UNL     1       1.705  11.534  19.089  0.00  0.00    +0.000 OA
ATOM     16  N   UNL     1      -0.045  10.164  19.789  0.00  0.00    +0.000 N 
ATOM     17  H   UNL     1      -0.279   9.171  19.818  0.00  0.00    +0.000 HD
BRANCH  16  18
ATOM     18  C   UNL     1      -0.864  11.073  20.500  0.00  0.00    +0.000 A 
ATOM     19  C   UNL     1      -1.539  12.113  19.842  0.00  0.00    +0.000 A 
ATOM     20  C   UNL     1      -2.307  13.046  20.543  0.00  0.00    +0.000 A 
ATOM     21  C   UNL     1      -2.423  12.955  21.921  0.00  0.00    +0.000 A 
ATOM     22  C   UNL     1      -1.791  11.912  22.591  0.00  0.00    +0.000 A 
ATOM     23  C   UNL     1      -1.017  10.955  21.896  0.00  0.00    +0.000 A 
BRANCH  23  24
ATOM     24  C   UNL     1      -0.377   9.870  22.726  0.00  0.00    +0.000 C 
ATOM     25  F   UNL     1       0.978   9.791  22.599  0.00  0.00    +0.000 F 
ATOM     26  F   UNL     1      -0.614  10.026  24.059  0.00  0.00    +0.000 F 
ATOM     27  F   UNL     1      -0.848   8.630  22.410  0.00  0.00    +0.000 F 
ENDBRANCH  23  24
ENDBRANCH  16  18
ENDBRANCH  10  14
BRANCH   1  29
ATOM     28  C   UNL     1       4.709   1.784  20.438  0.00  0.00    +0.000 C 
ATOM     29  O   UNL     1       4.179   1.960  19.129  0.00  0.00    +0.000 OA
ENDBRANCH   1  29
TORSDOF 4
ENDMDL
