MODEL 1
REMARK VINA RESULT:      -7.9      0.000      0.000
REMARK  Name = 
REMARK  9 active torsions:
REMARK  status: ('A' for Active; 'I' for Inactive)
REMARK    1  A    between atoms: C_1  and  C_2
REMARK    2  A    between atoms: C_2  and  C_3
REMARK    3  A    between atoms: C_2  and  C_4
REMARK    4  A    between atoms: C_4  and  C_5
REMARK    5  A    between atoms: C_5  and  N_6
REMARK    6  A    between atoms: C_5  and  C_21
REMARK    7  A    between atoms: C_7  and  C_9
REMARK    8  A    between atoms: C_19  and  O_20
REMARK    9  A    between atoms: C_21  and  O_23
REMARK                            x       y       z     vdW  Elec       q    Type
REMARK                         _______ _______ _______ _____ _____    ______ ____
ROOT
ATOM      1  N   UNK A   1       6.433   4.765  14.124  0.00  0.00    +0.000 N 
ATOM      2  C   UNK A   1       6.764   4.709  15.462  0.00  0.00    +0.000 C 
ATOM      3  O   UNK A   1       7.898   4.418  15.838  0.00  0.00    +0.000 OA
ATOM      4  H   UNK A   1       5.467   4.960  13.861  0.00  0.00    +0.000 HD
ENDROOT
BRANCH   2   5
ATOM      5  C   UNK A   1       5.651   4.976  16.435  0.00  0.00    +0.000 A 
ATOM      6  N   UNK A   1       5.461   4.027  17.384  0.00  0.00    +0.000 NA
ATOM      7  C   UNK A   0       4.577   4.339  18.363  0.00  0.00    +0.000 A 
ATOM      8 CL   UNK A   0       4.461   3.088  19.549  0.00  0.00    +0.000 Cl
ATOM      9  C   UNK A   1       3.838   5.540  18.464  0.00  0.00    +0.000 A 
ATOM     10  C   UNK A   1       2.931   5.861  19.509  0.00  0.00    +0.000 A 
ATOM     11  C   UNK A   1       2.238   7.073  19.526  0.00  0.00    +0.000 A 
ATOM     12  C   UNK A   1       2.419   7.986  18.497  0.00  0.00    +0.000 A 
ATOM     13  C   UNK A   1       3.300   7.691  17.458  0.00  0.00    +0.000 A 
ATOM     14  C   UNK A   1       4.032   6.483  17.430  0.00  0.00    +0.000 A 
ATOM     15  C   UNK A   1       4.953   6.185  16.407  0.00  0.00    +0.000 A 
BRANCH  15  16
ATOM     16  O   UNK A   1       5.128   7.067  15.375  0.00  0.00    +0.000 OA
ATOM     17  H   UNK A   1       4.248   7.288  15.024  0.00  0.00    +0.000 HD
ENDBRANCH  15  16
ENDBRANCH   2   5
BRANCH   1  18
ATOM     18  C   UNK A   1       7.406   4.445  13.074  0.00  0.00    +0.000 C 
BRANCH  18  19
ATOM     19  C   UNK A   1       8.209   5.717  12.781  0.00  0.00    +0.000 C 
ATOM     20  O   UNK A   1       9.163   6.095  13.449  0.00  0.00    +0.000 OA
BRANCH  19  21
ATOM     21  O   UNK A   1       7.768   6.419  11.709  0.00  0.00    +0.000 OA
ATOM     22  H   UNK A   1       8.219   6.201  10.873  0.00  0.00    +0.000 HD
ENDBRANCH  19  21
ENDBRANCH  18  19
BRANCH  18  23
ATOM     23  C   UNK A   1       6.687   3.921  11.821  0.00  0.00    +0.000 C 
BRANCH  23  25
ATOM     24  C   UNK A   1       4.217   3.273  11.472  0.00  0.00    +0.000 C 
ATOM     25  C   UNK A   1       5.576   2.872  12.048  0.00  0.00    +0.000 C 
ATOM     26  C   UNK A   1       5.994   1.539  11.417  0.00  0.00    +0.000 C 
ENDBRANCH  23  25
ENDBRANCH  18  23
ENDBRANCH   1  18
TORSDOF 7
ENDMDL
MODEL 2
REMARK VINA RESULT:      -7.6      1.814      2.580
REMARK  Name = 
REMARK  9 active torsions:
REMARK  status: ('A' for Active; 'I' for Inactive)
REMARK    1  A    between atoms: C_1  and  C_2
REMARK    2  A    between atoms: C_2  and  C_3
REMARK    3  A    between atoms: C_2  and  C_4
REMARK    4  A    between atoms: C_4  and  C_5
REMARK    5  A    between atoms: C_5  and  N_6
REMARK    6  A    between atoms: C_5  and  C_21
REMARK    7  A    between atoms: C_7  and  C_9
REMARK    8  A    between atoms: C_19  and  O_20
REMARK    9  A    between atoms: C_21  and  O_23
REMARK                            x       y       z     vdW  Elec       q    Type
REMARK                         _______ _______ _______ _____ _____    ______ ____
ROOT
ATOM      1  N   UNK A   1       6.398   4.495  13.962  0.00  0.00    +0.000 N 
ATOM      2  C   UNK A   1       6.698   4.662  15.298  0.00  0.00    +0.000 C 
ATOM      3  O   UNK A   1       7.858   4.701  15.702  0.00  0.00    +0.000 OA
ATOM      4  H   UNK A   1       5.420   4.417  13.680  0.00  0.00    +0.000 HD
ENDROOT
BRANCH   2   5
ATOM      5  C   UNK A   1       5.529   4.746  16.237  0.00  0.00    +0.000 A 
ATOM      6  N   UNK A   1       5.151   5.998  16.594  0.00  0.00    +0.000 NA
ATOM      7  C   UNK A   0       3.998   6.089  17.301  0.00  0.00    +0.000 A 
ATOM      8 CL   UNK A   0       3.581   7.729  17.646  0.00  0.00    +0.000 Cl
ATOM      9  C   UNK A   1       3.183   5.006  17.704  0.00  0.00    +0.000 A 
ATOM     10  C   UNK A   1       1.964   5.119  18.426  0.00  0.00    +0.000 A 
ATOM     11  C   UNK A   1       1.225   3.992  18.787  0.00  0.00    +0.000 A 
ATOM     12  C   UNK A   1       1.686   2.727  18.454  0.00  0.00    +0.000 A 
ATOM     13  C   UNK A   1       2.881   2.591  17.751  0.00  0.00    +0.000 A 
ATOM     14  C   UNK A   1       3.636   3.716  17.350  0.00  0.00    +0.000 A 
ATOM     15  C   UNK A   1       4.827   3.597  16.608  0.00  0.00    +0.000 A 
BRANCH  15  16
ATOM     16  O   UNK A   1       5.305   2.354  16.287  0.00  0.00    +0.000 OA
ATOM     17  H   UNK A   1       6.080   2.183  16.850  0.00  0.00    +0.000 HD
ENDBRANCH  15  16
ENDBRANCH   2   5
BRANCH   1  18
ATOM     18  C   UNK A   1       7.446   4.318  12.952  0.00  0.00    +0.000 C 
BRANCH  18  19
ATOM     19  C   UNK A   1       8.029   5.700  12.638  0.00  0.00    +0.000 C 
ATOM     20  O   UNK A   1       7.649   6.412  11.718  0.00  0.00    +0.000 OA
BRANCH  19  21
ATOM     21  O   UNK A   1       9.030   6.083  13.467  0.00  0.00    +0.000 OA
ATOM     22  H   UNK A   1       9.717   5.406  13.607  0.00  0.00    +0.000 HD
ENDBRANCH  19  21
ENDBRANCH  18  19
BRANCH  18  23
ATOM     23  C   UNK A   1       6.870   3.643  11.697  0.00  0.00    +0.000 C 
BRANCH  23  25
ATOM     24  C   UNK A   1       4.356   3.192  11.347  0.00  0.00    +0.000 C 
ATOM     25  C   UNK A   1       5.683   2.680  11.913  0.00  0.00    +0.000 C 
ATOM     26  C   UNK A   1       5.995   1.327  11.260  0.00  0.00    +0.000 C 
ENDBRANCH  23  25
ENDBRANCH  18  23
ENDBRANCH   1  18
TORSDOF 7
ENDMDL
MODEL 3
REMARK VINA RESULT:      -7.3      2.165      2.907
REMARK  Name = 
REMARK  9 active torsions:
REMARK  status: ('A' for Active; 'I' for Inactive)
REMARK    1  A    between atoms: C_1  and  C_2
REMARK    2  A    between atoms: C_2  and  C_3
REMARK    3  A    between atoms: C_2  and  C_4
REMARK    4  A    between atoms: C_4  and  C_5
REMARK    5  A    between atoms: C_5  and  N_6
REMARK    6  A    between atoms: C_5  and  C_21
REMARK    7  A    between atoms: C_7  and  C_9
REMARK    8  A    between atoms: C_19  and  O_20
REMARK    9  A    between atoms: C_21  and  O_23
REMARK                            x       y       z     vdW  Elec       q    Type
REMARK                         _______ _______ _______ _____ _____    ______ ____
ROOT
ATOM      1  N   UNK A   1       5.348   4.444  14.765  0.00  0.00    +0.000 N 
ATOM      2  C   UNK A   1       5.606   3.923  16.016  0.00  0.00    +0.000 C 
ATOM      3  O   UNK A   1       6.574   3.196  16.229  0.00  0.00    +0.000 OA
ATOM      4  H   UNK A   1       4.504   5.000  14.624  0.00  0.00    +0.000 HD
ENDROOT
BRANCH   2   5
ATOM      5  C   UNK A   1       4.612   4.254  17.092  0.00  0.00    +0.000 A 
ATOM      6  N   UNK A   1       4.320   5.570  17.238  0.00  0.00    +0.000 NA
ATOM      7  C   UNK A   0       3.303   5.860  18.086  0.00  0.00    +0.000 A 
ATOM      8 CL   UNK A   0       2.978   7.555  18.145  0.00  0.00    +0.000 Cl
ATOM      9  C   UNK A   1       2.548   4.923  18.829  0.00  0.00    +0.000 A 
ATOM     10  C   UNK A   1       1.470   5.242  19.697  0.00  0.00    +0.000 A 
ATOM     11  C   UNK A   1       0.781   4.250  20.398  0.00  0.00    +0.000 A 
ATOM     12  C   UNK A   1       1.159   2.922  20.264  0.00  0.00    +0.000 A 
ATOM     13  C   UNK A   1       2.217   2.586  19.423  0.00  0.00    +0.000 A 
ATOM     14  C   UNK A   1       2.914   3.567  18.683  0.00  0.00    +0.000 A 
ATOM     15  C   UNK A   1       3.962   3.241  17.800  0.00  0.00    +0.000 A 
BRANCH  15  16
ATOM     16  O   UNK A   1       4.358   1.936  17.672  0.00  0.00    +0.000 OA
ATOM     17  H   UNK A   1       4.804   1.681  18.499  0.00  0.00    +0.000 HD
ENDBRANCH  15  16
ENDBRANCH   2   5
BRANCH   1  18
ATOM     18  C   UNK A   1       6.195   4.131  13.609  0.00  0.00    +0.000 C 
BRANCH  18  19
ATOM     19  C   UNK A   1       7.375   5.108  13.618  0.00  0.00    +0.000 C 
ATOM     20  O   UNK A   1       7.933   5.519  12.609  0.00  0.00    +0.000 OA
BRANCH  19  21
ATOM     21  O   UNK A   1       7.776   5.486  14.856  0.00  0.00    +0.000 OA
ATOM     22  H   UNK A   1       8.620   5.974  14.875  0.00  0.00    +0.000 HD
ENDBRANCH  19  21
ENDBRANCH  18  19
BRANCH  18  23
ATOM     23  C   UNK A   1       5.382   4.228  12.309  0.00  0.00    +0.000 C 
BRANCH  23  25
ATOM     24  C   UNK A   1       3.639   3.173  10.730  0.00  0.00    +0.000 C 
ATOM     25  C   UNK A   1       4.659   2.944  11.848  0.00  0.00    +0.000 C 
ATOM     26  C   UNK A   1       5.692   1.922  11.357  0.00  0.00    +0.000 C 
ENDBRANCH  23  25
ENDBRANCH  18  23
ENDBRANCH   1  18
TORSDOF 7
ENDMDL
MODEL 4
REMARK VINA RESULT:      -7.3      2.212      3.177
REMARK  Name = 
REMARK  9 active torsions:
REMARK  status: ('A' for Active; 'I' for Inactive)
REMARK    1  A    between atoms: C_1  and  C_2
REMARK    2  A    between atoms: C_2  and  C_3
REMARK    3  A    between atoms: C_2  and  C_4
REMARK    4  A    between atoms: C_4  and  C_5
REMARK    5  A    between atoms: C_5  and  N_6
REMARK    6  A    between atoms: C_5  and  C_21
REMARK    7  A    between atoms: C_7  and  C_9
REMARK    8  A    between atoms: C_19  and  O_20
REMARK    9  A    between atoms: C_21  and  O_23
REMARK                            x       y       z     vdW  Elec       q    Type
REMARK                         _______ _______ _______ _____ _____    ______ ____
ROOT
ATOM      1  N   UNK A   1       5.394   3.899  15.550  0.00  0.00    +0.000 N 
ATOM      2  C   UNK A   1       4.960   5.100  16.072  0.00  0.00    +0.000 C 
ATOM      3  O   UNK A   1       5.242   6.175  15.548  0.00  0.00    +0.000 OA
ATOM      4  H   UNK A   1       5.179   3.036  16.049  0.00  0.00    +0.000 HD
ENDROOT
BRANCH   2   5
ATOM      5  C   UNK A   1       4.163   5.024  17.343  0.00  0.00    +0.000 A 
ATOM      6  N   UNK A   1       3.673   6.202  17.801  0.00  0.00    +0.000 NA
ATOM      7  C   UNK A   0       2.815   6.120  18.847  0.00  0.00    +0.000 A 
ATOM      8 CL   UNK A   0       2.206   7.670  19.304  0.00  0.00    +0.000 Cl
ATOM      9  C   UNK A   1       2.411   4.931  19.499  0.00  0.00    +0.000 A 
ATOM     10  C   UNK A   1       1.493   4.859  20.580  0.00  0.00    +0.000 A 
ATOM     11  C   UNK A   1       1.155   3.640  21.168  0.00  0.00    +0.000 A 
ATOM     12  C   UNK A   1       1.732   2.467  20.706  0.00  0.00    +0.000 A 
ATOM     13  C   UNK A   1       2.640   2.513  19.649  0.00  0.00    +0.000 A 
ATOM     14  C   UNK A   1       2.980   3.731  19.020  0.00  0.00    +0.000 A 
ATOM     15  C   UNK A   1       3.868   3.791  17.927  0.00  0.00    +0.000 A 
BRANCH  15  16
ATOM     16  O   UNK A   1       4.460   2.643  17.472  0.00  0.00    +0.000 OA
ATOM     17  H   UNK A   1       4.477   2.008  18.209  0.00  0.00    +0.000 HD
ENDBRANCH  15  16
ENDBRANCH   2   5
BRANCH   1  18
ATOM     18  C   UNK A   1       6.248   3.839  14.359  0.00  0.00    +0.000 C 
BRANCH  18  19
ATOM     19  C   UNK A   1       7.411   4.816  14.570  0.00  0.00    +0.000 C 
ATOM     20  O   UNK A   1       7.854   5.552  13.698  0.00  0.00    +0.000 OA
BRANCH  19  21
ATOM     21  O   UNK A   1       7.935   4.796  15.819  0.00  0.00    +0.000 OA
ATOM     22  H   UNK A   1       8.398   5.616  16.073  0.00  0.00    +0.000 HD
ENDBRANCH  19  21
ENDBRANCH  18  19
BRANCH  18  23
ATOM     23  C   UNK A   1       5.436   4.180  13.100  0.00  0.00    +0.000 C 
BRANCH  23  25
ATOM     24  C   UNK A   1       4.076   3.361  11.069  0.00  0.00    +0.000 C 
ATOM     25  C   UNK A   1       5.080   3.002  12.167  0.00  0.00    +0.000 C 
ATOM     26  C   UNK A   1       6.356   2.473  11.501  0.00  0.00    +0.000 C 
ENDBRANCH  23  25
ENDBRANCH  18  23
ENDBRANCH   1  18
TORSDOF 7
ENDMDL
MODEL 5
REMARK VINA RESULT:      -7.2      1.801      3.229
REMARK  Name = 
REMARK  9 active torsions:
REMARK  status: ('A' for Active; 'I' for Inactive)
REMARK    1  A    between atoms: C_1  and  C_2
REMARK    2  A    between atoms: C_2  and  C_3
REMARK    3  A    between atoms: C_2  and  C_4
REMARK    4  A    between atoms: C_4  and  C_5
REMARK    5  A    between atoms: C_5  and  N_6
REMARK    6  A    between atoms: C_5  and  C_21
REMARK    7  A    between atoms: C_7  and  C_9
REMARK    8  A    between atoms: C_19  and  O_20
REMARK    9  A    between atoms: C_21  and  O_23
REMARK                            x       y       z     vdW  Elec       q    Type
REMARK                         _______ _______ _______ _____ _____    ______ ____
ROOT
ATOM      1  N   UNK A   1       4.899   4.666  16.964  0.00  0.00    +0.000 N 
ATOM      2  C   UNK A   1       4.434   5.964  16.940  0.00  0.00    +0.000 C 
ATOM      3  O   UNK A   1       4.850   6.787  16.127  0.00  0.00    +0.000 OA
ATOM      4  H   UNK A   1       4.563   4.032  17.691  0.00  0.00    +0.000 HD
ENDROOT
BRANCH   2   5
ATOM      5  C   UNK A   1       3.428   6.330  17.993  0.00  0.00    +0.000 A 
ATOM      6  N   UNK A   1       3.229   5.404  18.963  0.00  0.00    +0.000 NA
ATOM      7  C   UNK A   0       2.454   5.794  20.004  0.00  0.00    +0.000 A 
ATOM      8 CL   UNK A   0       2.322   4.561  21.207  0.00  0.00    +0.000 Cl
ATOM      9  C   UNK A   1       1.833   7.056  20.151  0.00  0.00    +0.000 A 
ATOM     10  C   UNK A   1       1.042   7.458  21.259  0.00  0.00    +0.000 A 
ATOM     11  C   UNK A   1       0.462   8.726  21.318  0.00  0.00    +0.000 A 
ATOM     12  C   UNK A   1       0.642   9.617  20.271  0.00  0.00    +0.000 A 
ATOM     13  C   UNK A   1       1.410   9.244  19.170  0.00  0.00    +0.000 A 
ATOM     14  C   UNK A   1       2.029   7.976  19.097  0.00  0.00    +0.000 A 
ATOM     15  C   UNK A   1       2.838   7.595  18.008  0.00  0.00    +0.000 A 
BRANCH  15  16
ATOM     16  O   UNK A   1       3.010   8.457  16.958  0.00  0.00    +0.000 OA
ATOM     17  H   UNK A   1       2.258   9.075  16.959  0.00  0.00    +0.000 HD
ENDBRANCH  15  16
ENDBRANCH   2   5
BRANCH   1  18
ATOM     18  C   UNK A   1       5.943   4.202  16.044  0.00  0.00    +0.000 C 
BRANCH  18  19
ATOM     19  C   UNK A   1       7.278   4.781  16.523  0.00  0.00    +0.000 C 
ATOM     20  O   UNK A   1       8.055   4.192  17.263  0.00  0.00    +0.000 OA
BRANCH  19  21
ATOM     21  O   UNK A   1       7.538   6.031  16.069  0.00  0.00    +0.000 OA
ATOM     22  H   UNK A   1       7.888   6.063  15.159  0.00  0.00    +0.000 HD
ENDBRANCH  19  21
ENDBRANCH  18  19
BRANCH  18  23
ATOM     23  C   UNK A   1       5.616   4.632  14.605  0.00  0.00    +0.000 C 
BRANCH  23  25
ATOM     24  C   UNK A   1       5.442   3.329  12.388  0.00  0.00    +0.000 C 
ATOM     25  C   UNK A   1       6.362   3.890  13.475  0.00  0.00    +0.000 C 
ATOM     26  C   UNK A   1       7.367   4.840  12.814  0.00  0.00    +0.000 C 
ENDBRANCH  23  25
ENDBRANCH  18  23
ENDBRANCH   1  18
TORSDOF 7
ENDMDL
MODEL 6
REMARK VINA RESULT:      -7.1      1.835      2.824
REMARK  Name = 
REMARK  9 active torsions:
REMARK  status: ('A' for Active; 'I' for Inactive)
REMARK    1  A    between atoms: C_1  and  C_2
REMARK    2  A    between atoms: C_2  and  C_3
REMARK    3  A    between atoms: C_2  and  C_4
REMARK    4  A    between atoms: C_4  and  C_5
REMARK    5  A    between atoms: C_5  and  N_6
REMARK    6  A    between atoms: C_5  and  C_21
REMARK    7  A    between atoms: C_7  and  C_9
REMARK    8  A    between atoms: C_19  and  O_20
REMARK    9  A    between atoms: C_21  and  O_23
REMARK                            x       y       z     vdW  Elec       q    Type
REMARK                         _______ _______ _______ _____ _____    ______ ____
ROOT
ATOM      1  N   UNK A   1       5.071   4.684  16.437  0.00  0.00    +0.000 N 
ATOM      2  C   UNK A   1       4.214   3.906  17.186  0.00  0.00    +0.000 C 
ATOM      3  O   UNK A   1       4.156   2.686  17.047  0.00  0.00    +0.000 OA
ATOM      4  H   UNK A   1       5.047   5.698  16.550  0.00  0.00    +0.000 HD
ENDROOT
BRANCH   2   5
ATOM      5  C   UNK A   1       3.321   4.636  18.147  0.00  0.00    +0.000 A 
ATOM      6  N   UNK A   1       2.824   3.894  19.168  0.00  0.00    +0.000 NA
ATOM      7  C   UNK A   0       2.160   4.580  20.129  0.00  0.00    +0.000 A 
ATOM      8 CL   UNK A   0       1.628   3.547  21.407  0.00  0.00    +0.000 Cl
ATOM      9  C   UNK A   1       1.931   5.976  20.147  0.00  0.00    +0.000 A 
ATOM     10  C   UNK A   1       1.251   6.683  21.174  0.00  0.00    +0.000 A 
ATOM     11  C   UNK A   1       1.066   8.065  21.107  0.00  0.00    +0.000 A 
ATOM     12  C   UNK A   1       1.537   8.772  20.010  0.00  0.00    +0.000 A 
ATOM     13  C   UNK A   1       2.202   8.099  18.987  0.00  0.00    +0.000 A 
ATOM     14  C   UNK A   1       2.425   6.705  19.043  0.00  0.00    +0.000 A 
ATOM     15  C   UNK A   1       3.127   6.014  18.036  0.00  0.00    +0.000 A 
BRANCH  15  16
ATOM     16  O   UNK A   1       3.582   6.696  16.938  0.00  0.00    +0.000 OA
ATOM     17  H   UNK A   1       2.834   6.798  16.324  0.00  0.00    +0.000 HD
ENDBRANCH  15  16
ENDBRANCH   2   5
BRANCH   1  18
ATOM     18  C   UNK A   1       5.938   4.104  15.405  0.00  0.00    +0.000 C 
BRANCH  18  19
ATOM     19  C   UNK A   1       7.352   4.653  15.623  0.00  0.00    +0.000 C 
ATOM     20  O   UNK A   1       7.907   5.439  14.865  0.00  0.00    +0.000 OA
BRANCH  19  21
ATOM     21  O   UNK A   1       7.966   4.184  16.736  0.00  0.00    +0.000 OA
ATOM     22  H   UNK A   1       7.386   4.111  17.515  0.00  0.00    +0.000 HD
ENDBRANCH  19  21
ENDBRANCH  18  19
BRANCH  18  23
ATOM     23  C   UNK A   1       5.402   4.442  14.005  0.00  0.00    +0.000 C 
BRANCH  23  25
ATOM     24  C   UNK A   1       4.586   3.254  11.868  0.00  0.00    +0.000 C 
ATOM     25  C   UNK A   1       5.720   3.431  12.881  0.00  0.00    +0.000 C 
ATOM     26  C   UNK A   1       6.976   3.883  12.126  0.00  0.00    +0.000 C 
ENDBRANCH  23  25
ENDBRANCH  18  23
ENDBRANCH   1  18
TORSDOF 7
ENDMDL
MODEL 7
REMARK VINA RESULT:      -7.0      1.428      1.617
REMARK  Name = 
REMARK  9 active torsions:
REMARK  status: ('A' for Active; 'I' for Inactive)
REMARK    1  A    between atoms: C_1  and  C_2
REMARK    2  A    between atoms: C_2  and  C_3
REMARK    3  A    between atoms: C_2  and  C_4
REMARK    4  A    between atoms: C_4  and  C_5
REMARK    5  A    between atoms: C_5  and  N_6
REMARK    6  A    between atoms: C_5  and  C_21
REMARK    7  A    between atoms: C_7  and  C_9
REMARK    8  A    between atoms: C_19  and  O_20
REMARK    9  A    between atoms: C_21  and  O_23
REMARK                            x       y       z     vdW  Elec       q    Type
REMARK                         _______ _______ _______ _____ _____    ______ ____
ROOT
ATOM      1  N   UNK A   1       5.290   4.449  14.781  0.00  0.00    +0.000 N 
ATOM      2  C   UNK A   1       5.400   3.884  16.034  0.00  0.00    +0.000 C 
ATOM      3  O   UNK A   1       6.319   3.121  16.323  0.00  0.00    +0.000 OA
ATOM      4  H   UNK A   1       4.482   5.036  14.571  0.00  0.00    +0.000 HD
ENDROOT
BRANCH   2   5
ATOM      5  C   UNK A   1       4.308   4.215  17.011  0.00  0.00    +0.000 A 
ATOM      6  N   UNK A   1       3.651   3.154  17.540  0.00  0.00    +0.000 NA
ATOM      7  C   UNK A   0       2.786   3.434  18.544  0.00  0.00    +0.000 A 
ATOM      8 CL   UNK A   0       2.055   2.005  19.183  0.00  0.00    +0.000 Cl
ATOM      9  C   UNK A   1       2.504   4.719  19.064  0.00  0.00    +0.000 A 
ATOM     10  C   UNK A   1       1.610   4.994  20.133  0.00  0.00    +0.000 A 
ATOM     11  C   UNK A   1       1.388   6.297  20.580  0.00  0.00    +0.000 A 
ATOM     12  C   UNK A   1       2.036   7.358  19.965  0.00  0.00    +0.000 A 
ATOM     13  C   UNK A   1       2.914   7.113  18.910  0.00  0.00    +0.000 A 
ATOM     14  C   UNK A   1       3.176   5.801  18.456  0.00  0.00    +0.000 A 
ATOM     15  C   UNK A   1       4.087   5.533  17.415  0.00  0.00    +0.000 A 
BRANCH  15  16
ATOM     16  O   UNK A   1       4.721   6.571  16.786  0.00  0.00    +0.000 OA
ATOM     17  H   UNK A   1       5.229   7.057  17.459  0.00  0.00    +0.000 HD
ENDBRANCH  15  16
ENDBRANCH   2   5
BRANCH   1  18
ATOM     18  C   UNK A   1       6.244   4.143  13.710  0.00  0.00    +0.000 C 
BRANCH  18  19
ATOM     19  C   UNK A   1       7.393   5.152  13.807  0.00  0.00    +0.000 C 
ATOM     20  O   UNK A   1       7.797   5.631  14.859  0.00  0.00    +0.000 OA
BRANCH  19  21
ATOM     21  O   UNK A   1       7.936   5.495  12.615  0.00  0.00    +0.000 OA
ATOM     22  H   UNK A   1       8.291   6.402  12.580  0.00  0.00    +0.000 HD
ENDBRANCH  19  21
ENDBRANCH  18  19
BRANCH  18  23
ATOM     23  C   UNK A   1       5.547   4.200  12.341  0.00  0.00    +0.000 C 
BRANCH  23  25
ATOM     24  C   UNK A   1       3.719   3.197  10.826  0.00  0.00    +0.000 C 
ATOM     25  C   UNK A   1       4.772   2.938  11.906  0.00  0.00    +0.000 C 
ATOM     26  C   UNK A   1       5.758   1.889  11.377  0.00  0.00    +0.000 C 
ENDBRANCH  23  25
ENDBRANCH  18  23
ENDBRANCH   1  18
TORSDOF 7
ENDMDL
MODEL 8
REMARK VINA RESULT:      -7.0      1.488      2.541
REMARK  Name = 
REMARK  9 active torsions:
REMARK  status: ('A' for Active; 'I' for Inactive)
REMARK    1  A    between atoms: C_1  and  C_2
REMARK    2  A    between atoms: C_2  and  C_3
REMARK    3  A    between atoms: C_2  and  C_4
REMARK    4  A    between atoms: C_4  and  C_5
REMARK    5  A    between atoms: C_5  and  N_6
REMARK    6  A    between atoms: C_5  and  C_21
REMARK    7  A    between atoms: C_7  and  C_9
REMARK    8  A    between atoms: C_19  and  O_20
REMARK    9  A    between atoms: C_21  and  O_23
REMARK                            x       y       z     vdW  Elec       q    Type
REMARK                         _______ _______ _______ _____ _____    ______ ____
ROOT
ATOM      1  N   UNK A   1       4.988   4.385  16.139  0.00  0.00    +0.000 N 
ATOM      2  C   UNK A   1       4.780   5.703  16.487  0.00  0.00    +0.000 C 
ATOM      3  O   UNK A   1       5.386   6.622  15.938  0.00  0.00    +0.000 OA
ATOM      4  H   UNK A   1       4.501   3.653  16.657  0.00  0.00    +0.000 HD
ENDROOT
BRANCH   2   5
ATOM      5  C   UNK A   1       3.809   5.952  17.605  0.00  0.00    +0.000 A 
ATOM      6  N   UNK A   1       3.661   4.936  18.490  0.00  0.00    +0.000 NA
ATOM      7  C   UNK A   0       2.921   5.213  19.591  0.00  0.00    +0.000 A 
ATOM      8 CL   UNK A   0       2.851   3.871  20.676  0.00  0.00    +0.000 Cl
ATOM      9  C   UNK A   1       2.288   6.445  19.878  0.00  0.00    +0.000 A 
ATOM     10  C   UNK A   1       1.533   6.727  21.047  0.00  0.00    +0.000 A 
ATOM     11  C   UNK A   1       0.937   7.974  21.246  0.00  0.00    +0.000 A 
ATOM     12  C   UNK A   1       1.064   8.962  20.281  0.00  0.00    +0.000 A 
ATOM     13  C   UNK A   1       1.795   8.706  19.123  0.00  0.00    +0.000 A 
ATOM     14  C   UNK A   1       2.430   7.462  18.909  0.00  0.00    +0.000 A 
ATOM     15  C   UNK A   1       3.203   7.199  17.760  0.00  0.00    +0.000 A 
BRANCH  15  16
ATOM     16  O   UNK A   1       3.322   8.158  16.790  0.00  0.00    +0.000 OA
ATOM     17  H   UNK A   1       2.429   8.350  16.455  0.00  0.00    +0.000 HD
ENDBRANCH  15  16
ENDBRANCH   2   5
BRANCH   1  18
ATOM     18  C   UNK A   1       5.970   4.001  15.119  0.00  0.00    +0.000 C 
BRANCH  18  19
ATOM     19  C   UNK A   1       7.286   4.714  15.448  0.00  0.00    +0.000 C 
ATOM     20  O   UNK A   1       7.888   5.438  14.665  0.00  0.00    +0.000 OA
BRANCH  19  21
ATOM     21  O   UNK A   1       7.756   4.469  16.695  0.00  0.00    +0.000 OA
ATOM     22  H   UNK A   1       7.099   4.085  17.304  0.00  0.00    +0.000 HD
ENDBRANCH  19  21
ENDBRANCH  18  19
BRANCH  18  23
ATOM     23  C   UNK A   1       5.456   4.366  13.717  0.00  0.00    +0.000 C 
BRANCH  23  25
ATOM     24  C   UNK A   1       4.491   3.256  11.600  0.00  0.00    +0.000 C 
ATOM     25  C   UNK A   1       5.635   3.299  12.616  0.00  0.00    +0.000 C 
ATOM     26  C   UNK A   1       6.943   3.559  11.858  0.00  0.00    +0.000 C 
ENDBRANCH  23  25
ENDBRANCH  18  23
ENDBRANCH   1  18
TORSDOF 7
ENDMDL
MODEL 9
REMARK VINA RESULT:      -6.8      4.816      7.236
REMARK  Name = 
REMARK  9 active torsions:
REMARK  status: ('A' for Active; 'I' for Inactive)
REMARK    1  A    between atoms: C_1  and  C_2
REMARK    2  A    between atoms: C_2  and  C_3
REMARK    3  A    between atoms: C_2  and  C_4
REMARK    4  A    between atoms: C_4  and  C_5
REMARK    5  A    between atoms: C_5  and  N_6
REMARK    6  A    between atoms: C_5  and  C_21
REMARK    7  A    between atoms: C_7  and  C_9
REMARK    8  A    between atoms: C_19  and  O_20
REMARK    9  A    between atoms: C_21  and  O_23
REMARK                            x       y       z     vdW  Elec       q    Type
REMARK                         _______ _______ _______ _____ _____    ______ ____
ROOT
ATOM      1  N   UNK A   1       2.248   6.826  18.697  0.00  0.00    +0.000 N 
ATOM      2  C   UNK A   1       2.176   8.131  18.255  0.00  0.00    +0.000 C 
ATOM      3  O   UNK A   1       2.721   8.494  17.215  0.00  0.00    +0.000 OA
ATOM      4  H   UNK A   1       1.824   6.582  19.592  0.00  0.00    +0.000 HD
ENDROOT
BRANCH   2   5
ATOM      5  C   UNK A   1       1.437   9.093  19.140  0.00  0.00    +0.000 A 
ATOM      6  N   UNK A   1       0.911  10.176  18.519  0.00  0.00    +0.000 NA
ATOM      7  C   UNK A   0       0.101  10.957  19.275  0.00  0.00    +0.000 A 
ATOM      8 CL   UNK A   0      -0.562  12.269  18.367  0.00  0.00    +0.000 Cl
ATOM      9  C   UNK A   1      -0.220  10.748  20.636  0.00  0.00    +0.000 A 
ATOM     10  C   UNK A   1      -1.089  11.563  21.410  0.00  0.00    +0.000 A 
ATOM     11  C   UNK A   1      -1.345  11.285  22.753  0.00  0.00    +0.000 A 
ATOM     12  C   UNK A   1      -0.733  10.199  23.362  0.00  0.00    +0.000 A 
ATOM     13  C   UNK A   1       0.128   9.388  22.625  0.00  0.00    +0.000 A 
ATOM     14  C   UNK A   1       0.384   9.633  21.258  0.00  0.00    +0.000 A 
ATOM     15  C   UNK A   1       1.223   8.802  20.489  0.00  0.00    +0.000 A 
BRANCH  15  16
ATOM     16  O   UNK A   1       1.849   7.738  21.081  0.00  0.00    +0.000 OA
ATOM     17  H   UNK A   1       2.785   7.978  21.204  0.00  0.00    +0.000 HD
ENDBRANCH  15  16
ENDBRANCH   2   5
BRANCH   1  18
ATOM     18  C   UNK A   1       3.009   5.805  17.968  0.00  0.00    +0.000 C 
BRANCH  18  19
ATOM     19  C   UNK A   1       2.232   4.488  18.064  0.00  0.00    +0.000 C 
ATOM     20  O   UNK A   1       1.370   4.141  17.266  0.00  0.00    +0.000 OA
BRANCH  19  21
ATOM     21  O   UNK A   1       2.565   3.721  19.130  0.00  0.00    +0.000 OA
ATOM     22  H   UNK A   1       1.903   3.044  19.361  0.00  0.00    +0.000 HD
ENDBRANCH  19  21
ENDBRANCH  18  19
BRANCH  18  23
ATOM     23  C   UNK A   1       4.426   5.677  18.550  0.00  0.00    +0.000 C 
BRANCH  23  25
ATOM     24  C   UNK A   1       6.527   4.650  17.466  0.00  0.00    +0.000 C 
ATOM     25  C   UNK A   1       5.599   5.863  17.564  0.00  0.00    +0.000 C 
ATOM     26  C   UNK A   1       5.048   6.164  16.164  0.00  0.00    +0.000 C 
ENDBRANCH  23  25
ENDBRANCH  18  23
ENDBRANCH   1  18
TORSDOF 7
ENDMDL
