MODEL 1
REMARK VINA RESULT:      -8.0      0.000      0.000
REMARK  Name = 
REMARK  15 active torsions:
REMARK  status: ('A' for Active; 'I' for Inactive)
REMARK    1  A    between atoms: C_1  and  C_2
REMARK    2  A    between atoms: C_2  and  C_3
REMARK    3  A    between atoms: C_3  and  C_4
REMARK    4  A    between atoms: C_4  and  C_5
REMARK    5  A    between atoms: C_5  and  C_6
REMARK    6  A    between atoms: C_6  and  C_7
REMARK    7  A    between atoms: C_8  and  C_9
REMARK    8  A    between atoms: C_11  and  C_12
REMARK    9  A    between atoms: C_16  and  C_17
REMARK   10  A    between atoms: C_17  and  O_18
REMARK   11  A    between atoms: O_18  and  C_19
REMARK   12  A    between atoms: C_19  and  C_20
REMARK   13  A    between atoms: C_19  and  C_28
REMARK   14  A    between atoms: C_23  and  C_24
REMARK   15  A    between atoms: N_32  and  C_33
REMARK                            x       y       z     vdW  Elec       q    Type
REMARK                         _______ _______ _______ _____ _____    ______ ____
ROOT
ATOM      1  C   UNL     1       5.053   5.509  18.526  0.00  0.00    +0.000 C 
ENDROOT
BRANCH   1   7
ATOM      2  C   UNL     1       6.513   5.806  16.434  0.00  0.00    +0.000 A 
ATOM      3  C   UNL     1       6.897   5.418  15.140  0.00  0.00    +0.000 A 
ATOM      4  C   UNL     1       6.356   4.272  14.557  0.00  0.00    +0.000 A 
ATOM      5  C   UNL     1       5.440   3.504  15.279  0.00  0.00    +0.000 A 
ATOM      6  C   UNL     1       5.057   3.885  16.574  0.00  0.00    +0.000 A 
ATOM      7  C   UNL     1       5.583   5.042  17.175  0.00  0.00    +0.000 A 
BRANCH   2   9
ATOM      8  C   UNL     1       7.434   8.190  17.405  0.00  0.00    +0.000 C 
ATOM      9  C   UNL     1       7.056   7.040  16.920  0.00  0.00    +0.000 C 
BRANCH   8  10
ATOM     10  C   UNL     1       7.875   9.530  17.970  0.00  0.00    +0.000 C 
BRANCH  10  11
ATOM     11  C   UNL     1       9.117   9.342  18.836  0.00  0.00    +0.000 C 
BRANCH  11  12
ATOM     12  C   UNL     1       9.393  10.587  19.675  0.00  0.00    +0.000 C 
BRANCH  12  13
ATOM     13  C   UNL     1      10.706  11.251  19.266  0.00  0.00    +0.000 C 
BRANCH  13  15
ATOM     14  C   UNL     1      10.368  12.992  17.477  0.00  0.00    +0.000 C 
ATOM     15  C   UNL     1      10.725  11.543  17.767  0.00  0.00    +0.000 C 
ENDBRANCH  13  15
ENDBRANCH  12  13
ENDBRANCH  11  12
ENDBRANCH  10  11
ENDBRANCH   8  10
ENDBRANCH   2   9
BRANCH   4  16
ATOM     16  C   UNL     1       6.722   3.909  13.215  0.00  0.00    +0.000 C 
ATOM     17  N   UNL     1       7.010   3.608  12.134  0.00  0.00    +0.000 NA
ENDBRANCH   4  16
ENDBRANCH   1   7
BRANCH   1  18
ATOM     18  O   UNL     1       3.710   6.020  18.458  0.00  0.00    +0.000 OA
BRANCH  18  19
ATOM     19  C   UNL     1       3.077   6.138  19.749  0.00  0.00    +0.000 C 
BRANCH  19  20
ATOM     20  C   UNL     1       2.174   7.378  19.754  0.00  0.00    +0.000 A 
ATOM     21  C   UNL     1       2.048   8.213  18.626  0.00  0.00    +0.000 A 
ATOM     22  C   UNL     1       1.279   9.380  18.661  0.00  0.00    +0.000 A 
ATOM     23  C   UNL     1       0.615   9.746  19.831  0.00  0.00    +0.000 A 
ATOM     24  C   UNL     1       0.684   8.905  20.948  0.00  0.00    +0.000 A 
ATOM     25  C   UNL     1       1.456   7.735  20.910  0.00  0.00    +0.000 A 
BRANCH  23  26
ATOM     26  C   UNL     1      -0.097  10.992  19.897  0.00  0.00    +0.000 C 
ATOM     27  N   UNL     1      -0.684  11.990  19.964  0.00  0.00    +0.000 NA
ENDBRANCH  23  26
ENDBRANCH  19  20
BRANCH  19  28
ATOM     28  C   UNL     1       2.312   4.885  20.055  0.00  0.00    +0.000 A 
ATOM     29  C   UNL     1       2.127   4.188  21.235  0.00  0.00    +0.000 A 
ATOM     30  N   UNL     1       1.437   3.025  21.025  0.00  0.00    +0.000 NA
ATOM     31  C   UNL     1       1.186   3.002  19.737  0.00  0.00    +0.000 A 
ATOM     32  N   UNL     1       1.654   4.125  19.115  0.00  0.00    +0.000 N 
ATOM     33  C   UNL     1       1.483   4.430  17.716  0.00  0.00    +0.000 C 
ENDBRANCH  19  28
ENDBRANCH  18  19
ENDBRANCH   1  18
TORSDOF 13
ENDMDL
MODEL 2
REMARK VINA RESULT:      -7.6      0.875      1.355
REMARK  Name = 
REMARK  15 active torsions:
REMARK  status: ('A' for Active; 'I' for Inactive)
REMARK    1  A    between atoms: C_1  and  C_2
REMARK    2  A    between atoms: C_2  and  C_3
REMARK    3  A    between atoms: C_3  and  C_4
REMARK    4  A    between atoms: C_4  and  C_5
REMARK    5  A    between atoms: C_5  and  C_6
REMARK    6  A    between atoms: C_6  and  C_7
REMARK    7  A    between atoms: C_8  and  C_9
REMARK    8  A    between atoms: C_11  and  C_12
REMARK    9  A    between atoms: C_16  and  C_17
REMARK   10  A    between atoms: C_17  and  O_18
REMARK   11  A    between atoms: O_18  and  C_19
REMARK   12  A    between atoms: C_19  and  C_20
REMARK   13  A    between atoms: C_19  and  C_28
REMARK   14  A    between atoms: C_23  and  C_24
REMARK   15  A    between atoms: N_32  and  C_33
REMARK                            x       y       z     vdW  Elec       q    Type
REMARK                         _______ _______ _______ _____ _____    ______ ____
ROOT
ATOM      1  C   UNL     1       5.268   5.184  18.418  0.00  0.00    +0.000 C 
ENDROOT
BRANCH   1   7
ATOM      2  C   UNL     1       6.675   5.880  16.385  0.00  0.00    +0.000 A 
ATOM      3  C   UNL     1       7.103   5.681  15.062  0.00  0.00    +0.000 A 
ATOM      4  C   UNL     1       6.711   4.543  14.357  0.00  0.00    +0.000 A 
ATOM      5  C   UNL     1       5.900   3.594  14.984  0.00  0.00    +0.000 A 
ATOM      6  C   UNL     1       5.474   3.786  16.308  0.00  0.00    +0.000 A 
ATOM      7  C   UNL     1       5.851   4.931  17.032  0.00  0.00    +0.000 A 
BRANCH   2   9
ATOM      8  C   UNL     1       7.433   8.280  17.450  0.00  0.00    +0.000 C 
ATOM      9  C   UNL     1       7.058   7.115  17.003  0.00  0.00    +0.000 C 
BRANCH   8  10
ATOM     10  C   UNL     1       7.871   9.640  17.971  0.00  0.00    +0.000 C 
BRANCH  10  11
ATOM     11  C   UNL     1       9.067   9.474  18.904  0.00  0.00    +0.000 C 
BRANCH  11  12
ATOM     12  C   UNL     1       9.893  10.757  18.967  0.00  0.00    +0.000 C 
BRANCH  12  13
ATOM     13  C   UNL     1      10.316  11.073  20.400  0.00  0.00    +0.000 C 
BRANCH  13  15
ATOM     14  C   UNL     1       9.825  13.524  20.704  0.00  0.00    +0.000 C 
ATOM     15  C   UNL     1       9.383  12.107  21.028  0.00  0.00    +0.000 C 
ENDBRANCH  13  15
ENDBRANCH  12  13
ENDBRANCH  11  12
ENDBRANCH  10  11
ENDBRANCH   8  10
ENDBRANCH   2   9
BRANCH   4  16
ATOM     16  C   UNL     1       7.117   4.371  12.989  0.00  0.00    +0.000 C 
ATOM     17  N   UNL     1       7.437   4.239  11.883  0.00  0.00    +0.000 NA
ENDBRANCH   4  16
ENDBRANCH   1   7
BRANCH   1  18
ATOM     18  O   UNL     1       3.830   5.240  18.423  0.00  0.00    +0.000 OA
BRANCH  18  19
ATOM     19  C   UNL     1       3.280   5.653  19.691  0.00  0.00    +0.000 C 
BRANCH  19  20
ATOM     20  C   UNL     1       2.541   6.985  19.506  0.00  0.00    +0.000 A 
ATOM     21  C   UNL     1       1.812   7.584  20.552  0.00  0.00    +0.000 A 
ATOM     22  C   UNL     1       1.083   8.761  20.357  0.00  0.00    +0.000 A 
ATOM     23  C   UNL     1       1.062   9.371  19.102  0.00  0.00    +0.000 A 
ATOM     24  C   UNL     1       1.820   8.822  18.062  0.00  0.00    +0.000 A 
ATOM     25  C   UNL     1       2.550   7.641  18.262  0.00  0.00    +0.000 A 
BRANCH  23  26
ATOM     26  C   UNL     1       0.238  10.526  18.876  0.00  0.00    +0.000 C 
ATOM     27  N   UNL     1      -0.417  11.461  18.676  0.00  0.00    +0.000 NA
ENDBRANCH  23  26
ENDBRANCH  19  20
BRANCH  19  28
ATOM     28  C   UNL     1       2.379   4.580  20.225  0.00  0.00    +0.000 A 
ATOM     29  C   UNL     1       2.207   4.077  21.503  0.00  0.00    +0.000 A 
ATOM     30  N   UNL     1       1.345   3.015  21.509  0.00  0.00    +0.000 NA
ATOM     31  C   UNL     1       0.976   2.864  20.259  0.00  0.00    +0.000 A 
ATOM     32  N   UNL     1       1.536   3.813  19.452  0.00  0.00    +0.000 N 
ATOM     33  C   UNL     1       1.280   3.957  18.041  0.00  0.00    +0.000 C 
ENDBRANCH  19  28
ENDBRANCH  18  19
ENDBRANCH   1  18
TORSDOF 13
ENDMDL
MODEL 3
REMARK VINA RESULT:      -7.5      1.043      1.721
REMARK  Name = 
REMARK  15 active torsions:
REMARK  status: ('A' for Active; 'I' for Inactive)
REMARK    1  A    between atoms: C_1  and  C_2
REMARK    2  A    between atoms: C_2  and  C_3
REMARK    3  A    between atoms: C_3  and  C_4
REMARK    4  A    between atoms: C_4  and  C_5
REMARK    5  A    between atoms: C_5  and  C_6
REMARK    6  A    between atoms: C_6  and  C_7
REMARK    7  A    between atoms: C_8  and  C_9
REMARK    8  A    between atoms: C_11  and  C_12
REMARK    9  A    between atoms: C_16  and  C_17
REMARK   10  A    between atoms: C_17  and  O_18
REMARK   11  A    between atoms: O_18  and  C_19
REMARK   12  A    between atoms: C_19  and  C_20
REMARK   13  A    between atoms: C_19  and  C_28
REMARK   14  A    between atoms: C_23  and  C_24
REMARK   15  A    between atoms: N_32  and  C_33
REMARK                            x       y       z     vdW  Elec       q    Type
REMARK                         _______ _______ _______ _____ _____    ______ ____
ROOT
ATOM      1  C   UNL     1       4.906   4.297  17.744  0.00  0.00    +0.000 C 
ENDROOT
BRANCH   1   7
ATOM      2  C   UNL     1       6.703   5.079  16.084  0.00  0.00    +0.000 A 
ATOM      3  C   UNL     1       7.232   5.134  14.785  0.00  0.00    +0.000 A 
ATOM      4  C   UNL     1       6.647   4.402  13.752  0.00  0.00    +0.000 A 
ATOM      5  C   UNL     1       5.537   3.599  14.026  0.00  0.00    +0.000 A 
ATOM      6  C   UNL     1       5.008   3.537  15.324  0.00  0.00    +0.000 A 
ATOM      7  C   UNL     1       5.577   4.275  16.376  0.00  0.00    +0.000 A 
BRANCH   2   9
ATOM      8  C   UNL     1       7.819   6.796  17.895  0.00  0.00    +0.000 C 
ATOM      9  C   UNL     1       7.316   5.928  17.062  0.00  0.00    +0.000 C 
BRANCH   8  10
ATOM     10  C   UNL     1       8.404   7.809  18.866  0.00  0.00    +0.000 C 
BRANCH  10  11
ATOM     11  C   UNL     1       8.421   9.191  18.221  0.00  0.00    +0.000 C 
BRANCH  11  12
ATOM     12  C   UNL     1       9.260  10.168  19.041  0.00  0.00    +0.000 C 
BRANCH  12  13
ATOM     13  C   UNL     1       9.366  11.525  18.348  0.00  0.00    +0.000 C 
BRANCH  13  15
ATOM     14  C   UNL     1      10.826  12.999  16.921  0.00  0.00    +0.000 C 
ATOM     15  C   UNL     1      10.751  11.717  17.732  0.00  0.00    +0.000 C 
ENDBRANCH  13  15
ENDBRANCH  12  13
ENDBRANCH  11  12
ENDBRANCH  10  11
ENDBRANCH   8  10
ENDBRANCH   2   9
BRANCH   4  16
ATOM     16  C   UNL     1       7.169   4.501  12.416  0.00  0.00    +0.000 C 
ATOM     17  N   UNL     1       7.594   4.589  11.342  0.00  0.00    +0.000 NA
ENDBRANCH   4  16
ENDBRANCH   1   7
BRANCH   1  18
ATOM     18  O   UNL     1       4.462   5.610  18.133  0.00  0.00    +0.000 OA
BRANCH  18  19
ATOM     19  C   UNL     1       3.395   5.588  19.104  0.00  0.00    +0.000 C 
BRANCH  19  20
ATOM     20  C   UNL     1       2.682   6.946  19.096  0.00  0.00    +0.000 A 
ATOM     21  C   UNL     1       1.855   7.360  20.158  0.00  0.00    +0.000 A 
ATOM     22  C   UNL     1       1.153   8.568  20.112  0.00  0.00    +0.000 A 
ATOM     23  C   UNL     1       1.256   9.396  18.994  0.00  0.00    +0.000 A 
ATOM     24  C   UNL     1       2.112   9.029  17.949  0.00  0.00    +0.000 A 
ATOM     25  C   UNL     1       2.815   7.817  17.999  0.00  0.00    +0.000 A 
BRANCH  23  26
ATOM     26  C   UNL     1       0.462  10.590  18.905  0.00  0.00    +0.000 C 
ATOM     27  N   UNL     1      -0.162  11.564  18.833  0.00  0.00    +0.000 NA
ENDBRANCH  23  26
ENDBRANCH  19  20
BRANCH  19  28
ATOM     28  C   UNL     1       2.457   4.458  18.800  0.00  0.00    +0.000 A 
ATOM     29  C   UNL     1       1.550   4.270  17.772  0.00  0.00    +0.000 A 
ATOM     30  N   UNL     1       0.820   3.127  17.956  0.00  0.00    +0.000 NA
ATOM     31  C   UNL     1       1.271   2.606  19.072  0.00  0.00    +0.000 A 
ATOM     32  N   UNL     1       2.291   3.347  19.596  0.00  0.00    +0.000 N 
ATOM     33  C   UNL     1       3.039   3.009  20.781  0.00  0.00    +0.000 C 
ENDBRANCH  19  28
ENDBRANCH  18  19
ENDBRANCH   1  18
TORSDOF 13
ENDMDL
MODEL 4
REMARK VINA RESULT:      -7.4      3.722      6.736
REMARK  Name = 
REMARK  15 active torsions:
REMARK  status: ('A' for Active; 'I' for Inactive)
REMARK    1  A    between atoms: C_1  and  C_2
REMARK    2  A    between atoms: C_2  and  C_3
REMARK    3  A    between atoms: C_3  and  C_4
REMARK    4  A    between atoms: C_4  and  C_5
REMARK    5  A    between atoms: C_5  and  C_6
REMARK    6  A    between atoms: C_6  and  C_7
REMARK    7  A    between atoms: C_8  and  C_9
REMARK    8  A    between atoms: C_11  and  C_12
REMARK    9  A    between atoms: C_16  and  C_17
REMARK   10  A    between atoms: C_17  and  O_18
REMARK   11  A    between atoms: O_18  and  C_19
REMARK   12  A    between atoms: C_19  and  C_20
REMARK   13  A    between atoms: C_19  and  C_28
REMARK   14  A    between atoms: C_23  and  C_24
REMARK   15  A    between atoms: N_32  and  C_33
REMARK                            x       y       z     vdW  Elec       q    Type
REMARK                         _______ _______ _______ _____ _____    ______ ____
ROOT
ATOM      1  C   UNL     1       1.948   8.814  18.435  0.00  0.00    +0.000 C 
ENDROOT
BRANCH   1   7
ATOM      2  C   UNL     1       2.992   6.520  18.929  0.00  0.00    +0.000 A 
ATOM      3  C   UNL     1       3.052   5.335  19.680  0.00  0.00    +0.000 A 
ATOM      4  C   UNL     1       2.248   5.173  20.808  0.00  0.00    +0.000 A 
ATOM      5  C   UNL     1       1.392   6.207  21.194  0.00  0.00    +0.000 A 
ATOM      6  C   UNL     1       1.332   7.395  20.449  0.00  0.00    +0.000 A 
ATOM      7  C   UNL     1       2.128   7.574  19.304  0.00  0.00    +0.000 A 
BRANCH   2   9
ATOM      8  C   UNL     1       4.417   6.653  16.600  0.00  0.00    +0.000 C 
ATOM      9  C   UNL     1       3.791   6.566  17.740  0.00  0.00    +0.000 C 
BRANCH   8  10
ATOM     10  C   UNL     1       5.147   6.756  15.270  0.00  0.00    +0.000 C 
BRANCH  10  11
ATOM     11  C   UNL     1       5.747   5.402  14.906  0.00  0.00    +0.000 C 
BRANCH  11  12
ATOM     12  C   UNL     1       7.077   5.182  15.622  0.00  0.00    +0.000 C 
BRANCH  12  13
ATOM     13  C   UNL     1       6.891   4.355  16.893  0.00  0.00    +0.000 C 
BRANCH  13  15
ATOM     14  C   UNL     1       6.895   5.523  19.124  0.00  0.00    +0.000 C 
ATOM     15  C   UNL     1       7.750   4.903  18.031  0.00  0.00    +0.000 C 
ENDBRANCH  13  15
ENDBRANCH  12  13
ENDBRANCH  11  12
ENDBRANCH  10  11
ENDBRANCH   8  10
ENDBRANCH   2   9
BRANCH   4  16
ATOM     16  C   UNL     1       2.285   3.938  21.544  0.00  0.00    +0.000 C 
ATOM     17  N   UNL     1       2.312   2.938  22.129  0.00  0.00    +0.000 NA
ENDBRANCH   4  16
ENDBRANCH   1   7
BRANCH   1  18
ATOM     18  O   UNL     1       0.567   9.121  18.171  0.00  0.00    +0.000 OA
BRANCH  18  19
ATOM     19  C   UNL     1       0.300  10.537  18.102  0.00  0.00    +0.000 C 
BRANCH  19  20
ATOM     20  C   UNL     1      -1.215  10.758  17.997  0.00  0.00    +0.000 A 
ATOM     21  C   UNL     1      -1.873  11.766  18.727  0.00  0.00    +0.000 A 
ATOM     22  C   UNL     1      -3.263  11.915  18.680  0.00  0.00    +0.000 A 
ATOM     23  C   UNL     1      -4.034  11.053  17.900  0.00  0.00    +0.000 A 
ATOM     24  C   UNL     1      -3.396  10.077  17.127  0.00  0.00    +0.000 A 
ATOM     25  C   UNL     1      -2.002   9.930  17.176  0.00  0.00    +0.000 A 
BRANCH  23  26
ATOM     26  C   UNL     1      -5.467  11.145  17.926  0.00  0.00    +0.000 C 
ATOM     27  N   UNL     1      -6.625  11.199  17.942  0.00  0.00    +0.000 NA
ENDBRANCH  23  26
ENDBRANCH  19  20
BRANCH  19  28
ATOM     28  C   UNL     1       0.886  11.222  19.301  0.00  0.00    +0.000 A 
ATOM     29  C   UNL     1       0.702  11.016  20.656  0.00  0.00    +0.000 A 
ATOM     30  N   UNL     1       1.363  11.958  21.397  0.00  0.00    +0.000 NA
ATOM     31  C   UNL     1       1.959  12.730  20.520  0.00  0.00    +0.000 A 
ATOM     32  N   UNL     1       1.740  12.301  19.243  0.00  0.00    +0.000 N 
ATOM     33  C   UNL     1       2.306  12.897  18.059  0.00  0.00    +0.000 C 
ENDBRANCH  19  28
ENDBRANCH  18  19
ENDBRANCH   1  18
TORSDOF 13
ENDMDL
MODEL 5
REMARK VINA RESULT:      -7.4      2.552      8.940
REMARK  Name = 
REMARK  15 active torsions:
REMARK  status: ('A' for Active; 'I' for Inactive)
REMARK    1  A    between atoms: C_1  and  C_2
REMARK    2  A    between atoms: C_2  and  C_3
REMARK    3  A    between atoms: C_3  and  C_4
REMARK    4  A    between atoms: C_4  and  C_5
REMARK    5  A    between atoms: C_5  and  C_6
REMARK    6  A    between atoms: C_6  and  C_7
REMARK    7  A    between atoms: C_8  and  C_9
REMARK    8  A    between atoms: C_11  and  C_12
REMARK    9  A    between atoms: C_16  and  C_17
REMARK   10  A    between atoms: C_17  and  O_18
REMARK   11  A    between atoms: O_18  and  C_19
REMARK   12  A    between atoms: C_19  and  C_20
REMARK   13  A    between atoms: C_19  and  C_28
REMARK   14  A    between atoms: C_23  and  C_24
REMARK   15  A    between atoms: N_32  and  C_33
REMARK                            x       y       z     vdW  Elec       q    Type
REMARK                         _______ _______ _______ _____ _____    ______ ____
ROOT
ATOM      1  C   UNL     1       3.032   6.795  17.772  0.00  0.00    +0.000 C 
ENDROOT
BRANCH   1   7
ATOM      2  C   UNL     1       1.800   7.408  19.940  0.00  0.00    +0.000 A 
ATOM      3  C   UNL     1       1.043   8.306  20.710  0.00  0.00    +0.000 A 
ATOM      4  C   UNL     1       0.782   9.593  20.239  0.00  0.00    +0.000 A 
ATOM      5  C   UNL     1       1.293   9.986  19.000  0.00  0.00    +0.000 A 
ATOM      6  C   UNL     1       2.054   9.093  18.229  0.00  0.00    +0.000 A 
ATOM      7  C   UNL     1       2.320   7.789  18.682  0.00  0.00    +0.000 A 
BRANCH   2   9
ATOM      8  C   UNL     1       2.121   4.930  21.048  0.00  0.00    +0.000 C 
ATOM      9  C   UNL     1       1.948   6.082  20.465  0.00  0.00    +0.000 C 
BRANCH   8  10
ATOM     10  C   UNL     1       2.322   3.586  21.730  0.00  0.00    +0.000 C 
BRANCH  10  11
ATOM     11  C   UNL     1       1.358   2.560  21.143  0.00  0.00    +0.000 C 
BRANCH  11  12
ATOM     12  C   UNL     1       1.844   2.067  19.782  0.00  0.00    +0.000 C 
BRANCH  12  13
ATOM     13  C   UNL     1       1.022   2.674  18.647  0.00  0.00    +0.000 C 
BRANCH  13  15
ATOM     14  C   UNL     1       3.394   3.166  17.962  0.00  0.00    +0.000 C 
ATOM     15  C   UNL     1       1.925   3.366  17.628  0.00  0.00    +0.000 C 
ENDBRANCH  13  15
ENDBRANCH  12  13
ENDBRANCH  11  12
ENDBRANCH  10  11
ENDBRANCH   8  10
ENDBRANCH   2   9
BRANCH   4  16
ATOM     16  C   UNL     1      -0.032  10.490  21.014  0.00  0.00    +0.000 C 
ATOM     17  N   UNL     1      -0.682  11.220  21.636  0.00  0.00    +0.000 NA
ENDBRANCH   4  16
ENDBRANCH   1   7
BRANCH   1  18
ATOM     18  O   UNL     1       4.266   7.306  17.235  0.00  0.00    +0.000 OA
BRANCH  18  19
ATOM     19  C   UNL     1       5.392   6.433  17.459  0.00  0.00    +0.000 C 
BRANCH  19  20
ATOM     20  C   UNL     1       5.631   5.591  16.199  0.00  0.00    +0.000 A 
ATOM     21  C   UNL     1       5.339   6.078  14.910  0.00  0.00    +0.000 A 
ATOM     22  C   UNL     1       5.493   5.280  13.772  0.00  0.00    +0.000 A 
ATOM     23  C   UNL     1       5.945   3.966  13.895  0.00  0.00    +0.000 A 
ATOM     24  C   UNL     1       6.290   3.477  15.160  0.00  0.00    +0.000 A 
ATOM     25  C   UNL     1       6.134   4.280  16.299  0.00  0.00    +0.000 A 
BRANCH  23  26
ATOM     26  C   UNL     1       6.013   3.115  12.739  0.00  0.00    +0.000 C 
ATOM     27  N   UNL     1       6.053   2.440  11.798  0.00  0.00    +0.000 NA
ENDBRANCH  23  26
ENDBRANCH  19  20
BRANCH  19  28
ATOM     28  C   UNL     1       6.597   7.244  17.830  0.00  0.00    +0.000 A 
ATOM     29  C   UNL     1       7.007   8.508  17.445  0.00  0.00    +0.000 A 
ATOM     30  N   UNL     1       8.241   8.808  17.954  0.00  0.00    +0.000 NA
ATOM     31  C   UNL     1       8.590   7.755  18.654  0.00  0.00    +0.000 A 
ATOM     32  N   UNL     1       7.612   6.802  18.649  0.00  0.00    +0.000 N 
ATOM     33  C   UNL     1       7.664   5.556  19.373  0.00  0.00    +0.000 C 
ENDBRANCH  19  28
ENDBRANCH  18  19
ENDBRANCH   1  18
TORSDOF 13
ENDMDL
MODEL 6
REMARK VINA RESULT:      -7.4      2.623      8.826
REMARK  Name = 
REMARK  15 active torsions:
REMARK  status: ('A' for Active; 'I' for Inactive)
REMARK    1  A    between atoms: C_1  and  C_2
REMARK    2  A    between atoms: C_2  and  C_3
REMARK    3  A    between atoms: C_3  and  C_4
REMARK    4  A    between atoms: C_4  and  C_5
REMARK    5  A    between atoms: C_5  and  C_6
REMARK    6  A    between atoms: C_6  and  C_7
REMARK    7  A    between atoms: C_8  and  C_9
REMARK    8  A    between atoms: C_11  and  C_12
REMARK    9  A    between atoms: C_16  and  C_17
REMARK   10  A    between atoms: C_17  and  O_18
REMARK   11  A    between atoms: O_18  and  C_19
REMARK   12  A    between atoms: C_19  and  C_20
REMARK   13  A    between atoms: C_19  and  C_28
REMARK   14  A    between atoms: C_23  and  C_24
REMARK   15  A    between atoms: N_32  and  C_33
REMARK                            x       y       z     vdW  Elec       q    Type
REMARK                         _______ _______ _______ _____ _____    ______ ____
ROOT
ATOM      1  C   UNL     1       3.158   6.928  17.327  0.00  0.00    +0.000 C 
ENDROOT
BRANCH   1   7
ATOM      2  C   UNL     1       2.071   7.550  19.569  0.00  0.00    +0.000 A 
ATOM      3  C   UNL     1       1.336   8.437  20.372  0.00  0.00    +0.000 A 
ATOM      4  C   UNL     1       0.981   9.697  19.890  0.00  0.00    +0.000 A 
ATOM      5  C   UNL     1       1.377  10.075  18.605  0.00  0.00    +0.000 A 
ATOM      6  C   UNL     1       2.116   9.194  17.800  0.00  0.00    +0.000 A 
ATOM      7  C   UNL     1       2.475   7.916  18.264  0.00  0.00    +0.000 A 
BRANCH   2   9
ATOM      8  C   UNL     1       2.427   5.066  20.651  0.00  0.00    +0.000 C 
ATOM      9  C   UNL     1       2.319   6.248  20.114  0.00  0.00    +0.000 C 
BRANCH   8  10
ATOM     10  C   UNL     1       2.551   3.686  21.278  0.00  0.00    +0.000 C 
BRANCH  10  11
ATOM     11  C   UNL     1       1.256   2.907  21.072  0.00  0.00    +0.000 C 
BRANCH  11  12
ATOM     12  C   UNL     1       0.661   3.189  19.695  0.00  0.00    +0.000 C 
BRANCH  12  13
ATOM     13  C   UNL     1       1.075   2.121  18.684  0.00  0.00    +0.000 C 
BRANCH  13  15
ATOM     14  C   UNL     1       3.519   1.829  18.149  0.00  0.00    +0.000 C 
ATOM     15  C   UNL     1       2.249   2.602  17.833  0.00  0.00    +0.000 C 
ENDBRANCH  13  15
ENDBRANCH  12  13
ENDBRANCH  11  12
ENDBRANCH  10  11
ENDBRANCH   8  10
ENDBRANCH   2   9
BRANCH   4  16
ATOM     16  C   UNL     1       0.190  10.580  20.703  0.00  0.00    +0.000 C 
ATOM     17  N   UNL     1      -0.453  11.284  21.362  0.00  0.00    +0.000 NA
ENDBRANCH   4  16
ENDBRANCH   1   7
BRANCH   1  18
ATOM     18  O   UNL     1       4.592   6.925  17.459  0.00  0.00    +0.000 OA
BRANCH  18  19
ATOM     19  C   UNL     1       5.151   5.601  17.579  0.00  0.00    +0.000 C 
BRANCH  19  20
ATOM     20  C   UNL     1       5.492   5.071  16.180  0.00  0.00    +0.000 A 
ATOM     21  C   UNL     1       4.643   4.181  15.493  0.00  0.00    +0.000 A 
ATOM     22  C   UNL     1       4.994   3.648  14.248  0.00  0.00    +0.000 A 
ATOM     23  C   UNL     1       6.210   3.991  13.657  0.00  0.00    +0.000 A 
ATOM     24  C   UNL     1       7.045   4.913  14.298  0.00  0.00    +0.000 A 
ATOM     25  C   UNL     1       6.691   5.446  15.546  0.00  0.00    +0.000 A 
BRANCH  23  26
ATOM     26  C   UNL     1       6.613   3.371  12.426  0.00  0.00    +0.000 C 
ATOM     27  N   UNL     1       6.932   2.887  11.422  0.00  0.00    +0.000 NA
ENDBRANCH  23  26
ENDBRANCH  19  20
BRANCH  19  28
ATOM     28  C   UNL     1       6.354   5.638  18.474  0.00  0.00    +0.000 A 
ATOM     29  C   UNL     1       6.747   4.820  19.517  0.00  0.00    +0.000 A 
ATOM     30  N   UNL     1       7.874   5.298  20.128  0.00  0.00    +0.000 NA
ATOM     31  C   UNL     1       8.186   6.390  19.470  0.00  0.00    +0.000 A 
ATOM     32  N   UNL     1       7.325   6.613  18.433  0.00  0.00    +0.000 N 
ATOM     33  C   UNL     1       7.433   7.693  17.485  0.00  0.00    +0.000 C 
ENDBRANCH  19  28
ENDBRANCH  18  19
ENDBRANCH   1  18
TORSDOF 13
ENDMDL
MODEL 7
REMARK VINA RESULT:      -7.4      1.100      1.760
REMARK  Name = 
REMARK  15 active torsions:
REMARK  status: ('A' for Active; 'I' for Inactive)
REMARK    1  A    between atoms: C_1  and  C_2
REMARK    2  A    between atoms: C_2  and  C_3
REMARK    3  A    between atoms: C_3  and  C_4
REMARK    4  A    between atoms: C_4  and  C_5
REMARK    5  A    between atoms: C_5  and  C_6
REMARK    6  A    between atoms: C_6  and  C_7
REMARK    7  A    between atoms: C_8  and  C_9
REMARK    8  A    between atoms: C_11  and  C_12
REMARK    9  A    between atoms: C_16  and  C_17
REMARK   10  A    between atoms: C_17  and  O_18
REMARK   11  A    between atoms: O_18  and  C_19
REMARK   12  A    between atoms: C_19  and  C_20
REMARK   13  A    between atoms: C_19  and  C_28
REMARK   14  A    between atoms: C_23  and  C_24
REMARK   15  A    between atoms: N_32  and  C_33
REMARK                            x       y       z     vdW  Elec       q    Type
REMARK                         _______ _______ _______ _____ _____    ______ ____
ROOT
ATOM      1  C   UNL     1       4.811   5.989  18.462  0.00  0.00    +0.000 C 
ENDROOT
BRANCH   1   7
ATOM      2  C   UNL     1       6.542   5.987  16.565  0.00  0.00    +0.000 A 
ATOM      3  C   UNL     1       6.980   5.555  15.303  0.00  0.00    +0.000 A 
ATOM      4  C   UNL     1       6.263   4.585  14.602  0.00  0.00    +0.000 A 
ATOM      5  C   UNL     1       5.112   4.037  15.174  0.00  0.00    +0.000 A 
ATOM      6  C   UNL     1       4.674   4.463  16.437  0.00  0.00    +0.000 A 
ATOM      7  C   UNL     1       5.378   5.446  17.156  0.00  0.00    +0.000 A 
BRANCH   2   9
ATOM      8  C   UNL     1       7.916   7.980  17.836  0.00  0.00    +0.000 C 
ATOM      9  C   UNL     1       7.293   7.045  17.175  0.00  0.00    +0.000 C 
BRANCH   8  10
ATOM     10  C   UNL     1       8.641   9.071  18.608  0.00  0.00    +0.000 C 
BRANCH  10  11
ATOM     11  C   UNL     1       8.714  10.339  17.764  0.00  0.00    +0.000 C 
BRANCH  11  12
ATOM     12  C   UNL     1       9.227  11.517  18.588  0.00  0.00    +0.000 C 
BRANCH  12  13
ATOM     13  C   UNL     1      10.257  11.063  19.621  0.00  0.00    +0.000 C 
BRANCH  13  15
ATOM     14  C   UNL     1       9.083  11.931  21.673  0.00  0.00    +0.000 C 
ATOM     15  C   UNL     1      10.319  12.039  20.795  0.00  0.00    +0.000 C 
ENDBRANCH  13  15
ENDBRANCH  12  13
ENDBRANCH  11  12
ENDBRANCH  10  11
ENDBRANCH   8  10
ENDBRANCH   2   9
BRANCH   4  16
ATOM     16  C   UNL     1       6.694   4.182  13.291  0.00  0.00    +0.000 C 
ATOM     17  N   UNL     1       7.049   3.852  12.239  0.00  0.00    +0.000 NA
ENDBRANCH   4  16
ENDBRANCH   1   7
BRANCH   1  18
ATOM     18  O   UNL     1       4.481   4.955  19.407  0.00  0.00    +0.000 OA
BRANCH  18  19
ATOM     19  C   UNL     1       3.140   5.064  19.928  0.00  0.00    +0.000 C 
BRANCH  19  20
ATOM     20  C   UNL     1       2.574   6.445  19.570  0.00  0.00    +0.000 A 
ATOM     21  C   UNL     1       2.722   7.000  18.284  0.00  0.00    +0.000 A 
ATOM     22  C   UNL     1       2.266   8.288  17.985  0.00  0.00    +0.000 A 
ATOM     23  C   UNL     1       1.649   9.058  18.971  0.00  0.00    +0.000 A 
ATOM     24  C   UNL     1       1.446   8.507  20.241  0.00  0.00    +0.000 A 
ATOM     25  C   UNL     1       1.905   7.215  20.538  0.00  0.00    +0.000 A 
BRANCH  23  26
ATOM     26  C   UNL     1       1.267  10.415  18.692  0.00  0.00    +0.000 C 
ATOM     27  N   UNL     1       0.963  11.506  18.447  0.00  0.00    +0.000 NA
ENDBRANCH  23  26
ENDBRANCH  19  20
BRANCH  19  28
ATOM     28  C   UNL     1       2.293   3.952  19.384  0.00  0.00    +0.000 A 
ATOM     29  C   UNL     1       1.891   3.650  18.096  0.00  0.00    +0.000 A 
ATOM     30  N   UNL     1       1.023   2.592  18.080  0.00  0.00    +0.000 NA
ATOM     31  C   UNL     1       0.896   2.232  19.335  0.00  0.00    +0.000 A 
ATOM     32  N   UNL     1       1.678   2.992  20.157  0.00  0.00    +0.000 N 
ATOM     33  C   UNL     1       1.809   2.808  21.581  0.00  0.00    +0.000 C 
ENDBRANCH  19  28
ENDBRANCH  18  19
ENDBRANCH   1  18
TORSDOF 13
ENDMDL
MODEL 8
REMARK VINA RESULT:      -7.4      1.159      1.634
REMARK  Name = 
REMARK  15 active torsions:
REMARK  status: ('A' for Active; 'I' for Inactive)
REMARK    1  A    between atoms: C_1  and  C_2
REMARK    2  A    between atoms: C_2  and  C_3
REMARK    3  A    between atoms: C_3  and  C_4
REMARK    4  A    between atoms: C_4  and  C_5
REMARK    5  A    between atoms: C_5  and  C_6
REMARK    6  A    between atoms: C_6  and  C_7
REMARK    7  A    between atoms: C_8  and  C_9
REMARK    8  A    between atoms: C_11  and  C_12
REMARK    9  A    between atoms: C_16  and  C_17
REMARK   10  A    between atoms: C_17  and  O_18
REMARK   11  A    between atoms: O_18  and  C_19
REMARK   12  A    between atoms: C_19  and  C_20
REMARK   13  A    between atoms: C_19  and  C_28
REMARK   14  A    between atoms: C_23  and  C_24
REMARK   15  A    between atoms: N_32  and  C_33
REMARK                            x       y       z     vdW  Elec       q    Type
REMARK                         _______ _______ _______ _____ _____    ______ ____
ROOT
ATOM      1  C   UNL     1       5.072   4.293  17.525  0.00  0.00    +0.000 C 
ENDROOT
BRANCH   1   7
ATOM      2  C   UNL     1       6.803   5.278  15.903  0.00  0.00    +0.000 A 
ATOM      3  C   UNL     1       7.327   5.425  14.609  0.00  0.00    +0.000 A 
ATOM      4  C   UNL     1       6.802   4.689  13.546  0.00  0.00    +0.000 A 
ATOM      5  C   UNL     1       5.759   3.792  13.784  0.00  0.00    +0.000 A 
ATOM      6  C   UNL     1       5.235   3.637  15.077  0.00  0.00    +0.000 A 
ATOM      7  C   UNL     1       5.744   4.377  16.159  0.00  0.00    +0.000 A 
BRANCH   2   9
ATOM      8  C   UNL     1       7.803   7.008  17.768  0.00  0.00    +0.000 C 
ATOM      9  C   UNL     1       7.347   6.133  16.916  0.00  0.00    +0.000 C 
BRANCH   8  10
ATOM     10  C   UNL     1       8.335   8.029  18.761  0.00  0.00    +0.000 C 
BRANCH  10  11
ATOM     11  C   UNL     1       8.458   9.391  18.085  0.00  0.00    +0.000 C 
BRANCH  11  12
ATOM     12  C   UNL     1       9.324  10.337  18.913  0.00  0.00    +0.000 C 
BRANCH  12  13
ATOM     13  C   UNL     1      10.009  11.378  18.028  0.00  0.00    +0.000 C 
BRANCH  13  15
ATOM     14  C   UNL     1      12.182  12.006  19.134  0.00  0.00    +0.000 C 
ATOM     15  C   UNL     1      10.741  12.416  18.875  0.00  0.00    +0.000 C 
ENDBRANCH  13  15
ENDBRANCH  12  13
ENDBRANCH  11  12
ENDBRANCH  10  11
ENDBRANCH   8  10
ENDBRANCH   2   9
BRANCH   4  16
ATOM     16  C   UNL     1       7.316   4.881  12.217  0.00  0.00    +0.000 C 
ATOM     17  N   UNL     1       7.729   5.045  11.147  0.00  0.00    +0.000 NA
ENDBRANCH   4  16
ENDBRANCH   1   7
BRANCH   1  18
ATOM     18  O   UNL     1       4.205   5.410  17.796  0.00  0.00    +0.000 OA
BRANCH  18  19
ATOM     19  C   UNL     1       3.424   5.248  18.998  0.00  0.00    +0.000 C 
BRANCH  19  20
ATOM     20  C   UNL     1       2.618   6.529  19.248  0.00  0.00    +0.000 A 
ATOM     21  C   UNL     1       2.577   7.579  18.310  0.00  0.00    +0.000 A 
ATOM     22  C   UNL     1       1.898   8.772  18.576  0.00  0.00    +0.000 A 
ATOM     23  C   UNL     1       1.241   8.948  19.794  0.00  0.00    +0.000 A 
ATOM     24  C   UNL     1       1.225   7.898  20.719  0.00  0.00    +0.000 A 
ATOM     25  C   UNL     1       1.907   6.703  20.450  0.00  0.00    +0.000 A 
BRANCH  23  26
ATOM     26  C   UNL     1       0.625  10.208  20.106  0.00  0.00    +0.000 C 
ATOM     27  N   UNL     1       0.116  11.222  20.341  0.00  0.00    +0.000 NA
ENDBRANCH  23  26
ENDBRANCH  19  20
BRANCH  19  28
ATOM     28  C   UNL     1       2.539   4.043  18.869  0.00  0.00    +0.000 A 
ATOM     29  C   UNL     1       1.464   3.779  18.040  0.00  0.00    +0.000 A 
ATOM     30  N   UNL     1       0.882   2.580  18.347  0.00  0.00    +0.000 NA
ATOM     31  C   UNL     1       1.588   2.098  19.342  0.00  0.00    +0.000 A 
ATOM     32  N   UNL     1       2.628   2.923  19.664  0.00  0.00    +0.000 N 
ATOM     33  C   UNL     1       3.623   2.648  20.670  0.00  0.00    +0.000 C 
ENDBRANCH  19  28
ENDBRANCH  18  19
ENDBRANCH   1  18
TORSDOF 13
ENDMDL
MODEL 9
REMARK VINA RESULT:      -7.3      1.135      1.822
REMARK  Name = 
REMARK  15 active torsions:
REMARK  status: ('A' for Active; 'I' for Inactive)
REMARK    1  A    between atoms: C_1  and  C_2
REMARK    2  A    between atoms: C_2  and  C_3
REMARK    3  A    between atoms: C_3  and  C_4
REMARK    4  A    between atoms: C_4  and  C_5
REMARK    5  A    between atoms: C_5  and  C_6
REMARK    6  A    between atoms: C_6  and  C_7
REMARK    7  A    between atoms: C_8  and  C_9
REMARK    8  A    between atoms: C_11  and  C_12
REMARK    9  A    between atoms: C_16  and  C_17
REMARK   10  A    between atoms: C_17  and  O_18
REMARK   11  A    between atoms: O_18  and  C_19
REMARK   12  A    between atoms: C_19  and  C_20
REMARK   13  A    between atoms: C_19  and  C_28
REMARK   14  A    between atoms: C_23  and  C_24
REMARK   15  A    between atoms: N_32  and  C_33
REMARK                            x       y       z     vdW  Elec       q    Type
REMARK                         _______ _______ _______ _____ _____    ______ ____
ROOT
ATOM      1  C   UNL     1       4.595   6.098  18.292  0.00  0.00    +0.000 C 
ENDROOT
BRANCH   1   7
ATOM      2  C   UNL     1       6.447   5.865  16.529  0.00  0.00    +0.000 A 
ATOM      3  C   UNL     1       6.924   5.356  15.309  0.00  0.00    +0.000 A 
ATOM      4  C   UNL     1       6.159   4.452  14.574  0.00  0.00    +0.000 A 
ATOM      5  C   UNL     1       4.918   4.044  15.068  0.00  0.00    +0.000 A 
ATOM      6  C   UNL     1       4.439   4.546  16.289  0.00  0.00    +0.000 A 
ATOM      7  C   UNL     1       5.192   5.465  17.040  0.00  0.00    +0.000 A 
BRANCH   2   9
ATOM      8  C   UNL     1       7.914   7.756  17.848  0.00  0.00    +0.000 C 
ATOM      9  C   UNL     1       7.263   6.850  17.175  0.00  0.00    +0.000 C 
BRANCH   8  10
ATOM     10  C   UNL     1       8.674   8.812  18.635  0.00  0.00    +0.000 C 
BRANCH  10  11
ATOM     11  C   UNL     1       8.455  10.183  18.003  0.00  0.00    +0.000 C 
BRANCH  11  12
ATOM     12  C   UNL     1       9.444  11.206  18.557  0.00  0.00    +0.000 C 
BRANCH  12  13
ATOM     13  C   UNL     1       9.387  12.514  17.771  0.00  0.00    +0.000 C 
BRANCH  13  15
ATOM     14  C   UNL     1       7.505  14.184  17.870  0.00  0.00    +0.000 C 
ATOM     15  C   UNL     1       7.956  12.831  17.343  0.00  0.00    +0.000 C 
ENDBRANCH  13  15
ENDBRANCH  12  13
ENDBRANCH  11  12
ENDBRANCH  10  11
ENDBRANCH   8  10
ENDBRANCH   2   9
BRANCH   4  16
ATOM     16  C   UNL     1       6.636   3.973  13.305  0.00  0.00    +0.000 C 
ATOM     17  N   UNL     1       7.028   3.594  12.282  0.00  0.00    +0.000 NA
ENDBRANCH   4  16
ENDBRANCH   1   7
BRANCH   1  18
ATOM     18  O   UNL     1       4.358   5.147  19.346  0.00  0.00    +0.000 OA
BRANCH  18  19
ATOM     19  C   UNL     1       3.039   5.251  19.922  0.00  0.00    +0.000 C 
BRANCH  19  20
ATOM     20  C   UNL     1       2.470   6.644  19.625  0.00  0.00    +0.000 A 
ATOM     21  C   UNL     1       1.966   7.476  20.644  0.00  0.00    +0.000 A 
ATOM     22  C   UNL     1       1.385   8.715  20.357  0.00  0.00    +0.000 A 
ATOM     23  C   UNL     1       1.289   9.155  19.036  0.00  0.00    +0.000 A 
ATOM     24  C   UNL     1       1.830   8.368  18.013  0.00  0.00    +0.000 A 
ATOM     25  C   UNL     1       2.412   7.126  18.304  0.00  0.00    +0.000 A 
BRANCH  23  26
ATOM     26  C   UNL     1       0.608  10.383  18.732  0.00  0.00    +0.000 C 
ATOM     27  N   UNL     1       0.065  11.372  18.468  0.00  0.00    +0.000 NA
ENDBRANCH  23  26
ENDBRANCH  19  20
BRANCH  19  28
ATOM     28  C   UNL     1       2.163   4.159  19.383  0.00  0.00    +0.000 A 
ATOM     29  C   UNL     1       1.709   3.895  18.104  0.00  0.00    +0.000 A 
ATOM     30  N   UNL     1       0.833   2.844  18.093  0.00  0.00    +0.000 NA
ATOM     31  C   UNL     1       0.752   2.451  19.342  0.00  0.00    +0.000 A 
ATOM     32  N   UNL     1       1.571   3.184  20.153  0.00  0.00    +0.000 N 
ATOM     33  C   UNL     1       1.756   2.960  21.565  0.00  0.00    +0.000 C 
ENDBRANCH  19  28
ENDBRANCH  18  19
ENDBRANCH   1  18
TORSDOF 13
ENDMDL
