MODEL 1
REMARK VINA RESULT:      -6.1      0.000      0.000
REMARK  Name = 
REMARK  16 active torsions:
REMARK  status: ('A' for Active; 'I' for Inactive)
REMARK    1  A    between atoms: C_1  and  C_2
REMARK    2  A    between atoms: C_2  and  C_3
REMARK    3  A    between atoms: C_3  and  C_4
REMARK    4  A    between atoms: C_4  and  C_5
REMARK    5  A    between atoms: C_5  and  C_6
REMARK    6  A    between atoms: C_6  and  C_7
REMARK    7  A    between atoms: C_7  and  C_8
REMARK    8  A    between atoms: C_8  and  C_9
REMARK    9  A    between atoms: C_9  and  C_10
REMARK   10  A    between atoms: C_10  and  S_11
REMARK   11  A    between atoms: S_11  and  C_12
REMARK   12  A    between atoms: C_12  and  C_13
REMARK   13  A    between atoms: CA_15  and  C_16
REMARK   14  A    between atoms: C_16  and  O_17
REMARK   15  A    between atoms: C_18  and  O_19
REMARK   16  A    between atoms: C_20  and  O_21
REMARK                            x       y       z     vdW  Elec       q    Type
REMARK                         _______ _______ _______ _____ _____    ______ ____
ROOT
ATOM      1  C   UNL     1       4.914   4.466  17.612  0.00  0.00    +0.000 C 
ATOM      2  N   UNL     1       6.003   3.898  18.449  0.00  0.00    +0.000 NA
ATOM      3  CA  UNL     1       7.240   4.537  17.964  0.00  0.00    +0.000 C 
ATOM      4  C   UNL     1       7.044   4.793  16.458  0.00  0.00    +0.000 C 
ATOM      5  C   UNL     1       5.520   4.803  16.241  0.00  0.00    +0.000 C 
ATOM      6  H   UNL     1       6.042   2.899  18.246  0.00  0.00    +0.000 HD
ENDROOT
BRANCH   4   7
ATOM      7  O   UNL     1       7.595   6.001  15.931  0.00  0.00    +0.000 OA
ATOM      8  H   UNL     1       7.228   6.145  15.029  0.00  0.00    +0.000 HD
ENDBRANCH   4   7
BRANCH   5   9
ATOM      9  O   UNL     1       5.023   6.068  15.823  0.00  0.00    +0.000 OA
ATOM     10  H   UNL     1       4.833   6.561  16.659  0.00  0.00    +0.000 HD
ENDBRANCH   5   9
BRANCH   1  11
ATOM     11  C   UNL     1       3.703   3.518  17.480  0.00  0.00    +0.000 C 
BRANCH  11  12
ATOM     12  S   UNL     1       3.864   2.099  18.616  0.00  0.00    +0.000 S 
BRANCH  12  13
ATOM     13  C   UNL     1       2.988   2.766  20.050  0.00  0.00    +0.000 C 
BRANCH  13  14
ATOM     14  C   UNL     1       1.575   3.084  19.581  0.00  0.00    +0.000 C 
BRANCH  14  15
ATOM     15  C   UNL     1       1.126   4.463  20.039  0.00  0.00    +0.000 C 
BRANCH  15  16
ATOM     16  C   UNL     1       2.346   5.331  20.331  0.00  0.00    +0.000 C 
BRANCH  16  17
ATOM     17  C   UNL     1       2.124   6.761  19.861  0.00  0.00    +0.000 C 
BRANCH  17  18
ATOM     18  C   UNL     1       2.509   6.912  18.395  0.00  0.00    +0.000 C 
BRANCH  18  19
ATOM     19  C   UNL     1       2.357   8.360  17.941  0.00  0.00    +0.000 C 
BRANCH  19  20
ATOM     20  C   UNL     1       1.501   9.152  18.924  0.00  0.00    +0.000 C 
BRANCH  20  22
ATOM     21  C   UNL     1      -0.746  10.251  19.139  0.00  0.00    +0.000 C 
ATOM     22  C   UNL     1       0.397   9.916  18.197  0.00  0.00    +0.000 C 
ENDBRANCH  20  22
ENDBRANCH  19  20
ENDBRANCH  18  19
ENDBRANCH  17  18
ENDBRANCH  16  17
ENDBRANCH  15  16
ENDBRANCH  14  15
ENDBRANCH  13  14
ENDBRANCH  12  13
ENDBRANCH  11  12
ENDBRANCH   1  11
BRANCH   3  23
ATOM     23  C   UNL     1       7.575   5.778  18.797  0.00  0.00    +0.000 C 
BRANCH  23  24
ATOM     24  O   UNL     1       8.250   5.388  19.999  0.00  0.00    +0.000 OA
ATOM     25  H   UNL     1       8.532   4.461  19.872  0.00  0.00    +0.000 HD
ENDBRANCH  23  24
ENDBRANCH   3  23
TORSDOF 15
ENDMDL
MODEL 2
REMARK VINA RESULT:      -6.0      3.830      6.878
REMARK  Name = 
REMARK  16 active torsions:
REMARK  status: ('A' for Active; 'I' for Inactive)
REMARK    1  A    between atoms: C_1  and  C_2
REMARK    2  A    between atoms: C_2  and  C_3
REMARK    3  A    between atoms: C_3  and  C_4
REMARK    4  A    between atoms: C_4  and  C_5
REMARK    5  A    between atoms: C_5  and  C_6
REMARK    6  A    between atoms: C_6  and  C_7
REMARK    7  A    between atoms: C_7  and  C_8
REMARK    8  A    between atoms: C_8  and  C_9
REMARK    9  A    between atoms: C_9  and  C_10
REMARK   10  A    between atoms: C_10  and  S_11
REMARK   11  A    between atoms: S_11  and  C_12
REMARK   12  A    between atoms: C_12  and  C_13
REMARK   13  A    between atoms: CA_15  and  C_16
REMARK   14  A    between atoms: C_16  and  O_17
REMARK   15  A    between atoms: C_18  and  O_19
REMARK   16  A    between atoms: C_20  and  O_21
REMARK                            x       y       z     vdW  Elec       q    Type
REMARK                         _______ _______ _______ _____ _____    ______ ____
ROOT
ATOM      1  C   UNL     1       3.704   4.384  19.274  0.00  0.00    +0.000 C 
ATOM      2  N   UNL     1       2.386   4.469  18.591  0.00  0.00    +0.000 NA
ATOM      3  CA  UNL     1       2.014   3.074  18.289  0.00  0.00    +0.000 C 
ATOM      4  C   UNL     1       3.328   2.313  18.032  0.00  0.00    +0.000 C 
ATOM      5  C   UNL     1       4.423   3.142  18.726  0.00  0.00    +0.000 C 
ATOM      6  H   UNL     1       2.538   4.970  17.717  0.00  0.00    +0.000 HD
ENDROOT
BRANCH   4   7
ATOM      7  O   UNL     1       3.397   0.966  18.503  0.00  0.00    +0.000 OA
ATOM      8  H   UNL     1       4.340   0.684  18.507  0.00  0.00    +0.000 HD
ENDBRANCH   4   7
BRANCH   5   9
ATOM      9  O   UNL     1       5.038   2.458  19.810  0.00  0.00    +0.000 OA
ATOM     10  H   UNL     1       5.363   1.606  19.429  0.00  0.00    +0.000 HD
ENDBRANCH   5   9
BRANCH   1  11
ATOM     11  C   UNL     1       4.556   5.659  19.094  0.00  0.00    +0.000 C 
BRANCH  11  12
ATOM     12  S   UNL     1       6.333   5.248  19.043  0.00  0.00    +0.000 S 
BRANCH  12  13
ATOM     13  C   UNL     1       6.694   5.705  17.331  0.00  0.00    +0.000 C 
BRANCH  13  14
ATOM     14  C   UNL     1       5.411   6.296  16.764  0.00  0.00    +0.000 C 
BRANCH  14  15
ATOM     15  C   UNL     1       5.195   5.887  15.315  0.00  0.00    +0.000 C 
BRANCH  15  16
ATOM     16  C   UNL     1       6.347   5.001  14.852  0.00  0.00    +0.000 C 
BRANCH  16  17
ATOM     17  C   UNL     1       5.833   3.796  14.079  0.00  0.00    +0.000 C 
BRANCH  17  18
ATOM     18  C   UNL     1       6.221   3.894  12.609  0.00  0.00    +0.000 C 
BRANCH  18  19
ATOM     19  C   UNL     1       5.844   2.618  11.863  0.00  0.00    +0.000 C 
BRANCH  19  20
ATOM     20  C   UNL     1       4.400   2.679  11.373  0.00  0.00    +0.000 C 
BRANCH  20  22
ATOM     21  C   UNL     1       2.969   3.959   9.756  0.00  0.00    +0.000 C 
ATOM     22  C   UNL     1       4.079   4.052  10.789  0.00  0.00    +0.000 C 
ENDBRANCH  20  22
ENDBRANCH  19  20
ENDBRANCH  18  19
ENDBRANCH  17  18
ENDBRANCH  16  17
ENDBRANCH  15  16
ENDBRANCH  14  15
ENDBRANCH  13  14
ENDBRANCH  12  13
ENDBRANCH  11  12
ENDBRANCH   1  11
BRANCH   3  23
ATOM     23  C   UNL     1       1.132   2.493  19.397  0.00  0.00    +0.000 C 
BRANCH  23  24
ATOM     24  O   UNL     1       0.548   3.557  20.160  0.00  0.00    +0.000 OA
ATOM     25  H   UNL     1      -0.237   3.857  19.664  0.00  0.00    +0.000 HD
ENDBRANCH  23  24
ENDBRANCH   3  23
TORSDOF 15
ENDMDL
MODEL 3
REMARK VINA RESULT:      -6.0      3.991      7.223
REMARK  Name = 
REMARK  16 active torsions:
REMARK  status: ('A' for Active; 'I' for Inactive)
REMARK    1  A    between atoms: C_1  and  C_2
REMARK    2  A    between atoms: C_2  and  C_3
REMARK    3  A    between atoms: C_3  and  C_4
REMARK    4  A    between atoms: C_4  and  C_5
REMARK    5  A    between atoms: C_5  and  C_6
REMARK    6  A    between atoms: C_6  and  C_7
REMARK    7  A    between atoms: C_7  and  C_8
REMARK    8  A    between atoms: C_8  and  C_9
REMARK    9  A    between atoms: C_9  and  C_10
REMARK   10  A    between atoms: C_10  and  S_11
REMARK   11  A    between atoms: S_11  and  C_12
REMARK   12  A    between atoms: C_12  and  C_13
REMARK   13  A    between atoms: CA_15  and  C_16
REMARK   14  A    between atoms: C_16  and  O_17
REMARK   15  A    between atoms: C_18  and  O_19
REMARK   16  A    between atoms: C_20  and  O_21
REMARK                            x       y       z     vdW  Elec       q    Type
REMARK                         _______ _______ _______ _____ _____    ______ ____
ROOT
ATOM      1  C   UNL     1       4.050   4.604  19.017  0.00  0.00    +0.000 C 
ATOM      2  N   UNL     1       3.880   3.130  19.080  0.00  0.00    +0.000 NA
ATOM      3  CA  UNL     1       2.492   2.916  19.531  0.00  0.00    +0.000 C 
ATOM      4  C   UNL     1       2.145   4.094  20.461  0.00  0.00    +0.000 C 
ATOM      5  C   UNL     1       3.128   5.216  20.082  0.00  0.00    +0.000 C 
ATOM      6  H   UNL     1       4.520   2.789  19.797  0.00  0.00    +0.000 HD
ENDROOT
BRANCH   4   7
ATOM      7  O   UNL     1       0.811   4.601  20.388  0.00  0.00    +0.000 OA
ATOM      8  H   UNL     1       0.714   5.107  19.549  0.00  0.00    +0.000 HD
ENDBRANCH   4   7
BRANCH   5   9
ATOM      9  O   UNL     1       2.486   6.357  19.527  0.00  0.00    +0.000 OA
ATOM     10  H   UNL     1       2.298   6.949  20.295  0.00  0.00    +0.000 HD
ENDBRANCH   5   9
BRANCH   1  11
ATOM     11  C   UNL     1       5.516   5.049  19.212  0.00  0.00    +0.000 C 
BRANCH  11  12
ATOM     12  S   UNL     1       6.513   4.657  17.735  0.00  0.00    +0.000 S 
BRANCH  12  13
ATOM     13  C   UNL     1       5.596   5.607  16.498  0.00  0.00    +0.000 C 
BRANCH  13  14
ATOM     14  C   UNL     1       5.134   4.610  15.446  0.00  0.00    +0.000 C 
BRANCH  14  15
ATOM     15  C   UNL     1       6.303   3.845  14.843  0.00  0.00    +0.000 C 
BRANCH  15  16
ATOM     16  C   UNL     1       7.030   4.728  13.833  0.00  0.00    +0.000 C 
BRANCH  16  17
ATOM     17  C   UNL     1       6.637   4.365  12.409  0.00  0.00    +0.000 C 
BRANCH  17  18
ATOM     18  C   UNL     1       6.627   2.853  12.221  0.00  0.00    +0.000 C 
BRANCH  18  19
ATOM     19  C   UNL     1       5.325   2.397  11.569  0.00  0.00    +0.000 C 
BRANCH  19  20
ATOM     20  C   UNL     1       4.387   3.578  11.341  0.00  0.00    +0.000 C 
BRANCH  20  22
ATOM     21  C   UNL     1       2.859   4.447   9.548  0.00  0.00    +0.000 C 
ATOM     22  C   UNL     1       3.295   3.223  10.335  0.00  0.00    +0.000 C 
ENDBRANCH  20  22
ENDBRANCH  19  20
ENDBRANCH  18  19
ENDBRANCH  17  18
ENDBRANCH  16  17
ENDBRANCH  15  16
ENDBRANCH  14  15
ENDBRANCH  13  14
ENDBRANCH  12  13
ENDBRANCH  11  12
ENDBRANCH   1  11
BRANCH   3  23
ATOM     23  C   UNL     1       1.554   2.731  18.336  0.00  0.00    +0.000 C 
BRANCH  23  24
ATOM     24  O   UNL     1       0.254   2.342  18.795  0.00  0.00    +0.000 OA
ATOM     25  H   UNL     1      -0.384   2.663  18.129  0.00  0.00    +0.000 HD
ENDBRANCH  23  24
ENDBRANCH   3  23
TORSDOF 15
ENDMDL
MODEL 4
REMARK VINA RESULT:      -5.9      1.254      2.398
REMARK  Name = 
REMARK  16 active torsions:
REMARK  status: ('A' for Active; 'I' for Inactive)
REMARK    1  A    between atoms: C_1  and  C_2
REMARK    2  A    between atoms: C_2  and  C_3
REMARK    3  A    between atoms: C_3  and  C_4
REMARK    4  A    between atoms: C_4  and  C_5
REMARK    5  A    between atoms: C_5  and  C_6
REMARK    6  A    between atoms: C_6  and  C_7
REMARK    7  A    between atoms: C_7  and  C_8
REMARK    8  A    between atoms: C_8  and  C_9
REMARK    9  A    between atoms: C_9  and  C_10
REMARK   10  A    between atoms: C_10  and  S_11
REMARK   11  A    between atoms: S_11  and  C_12
REMARK   12  A    between atoms: C_12  and  C_13
REMARK   13  A    between atoms: CA_15  and  C_16
REMARK   14  A    between atoms: C_16  and  O_17
REMARK   15  A    between atoms: C_18  and  O_19
REMARK   16  A    between atoms: C_20  and  O_21
REMARK                            x       y       z     vdW  Elec       q    Type
REMARK                         _______ _______ _______ _____ _____    ______ ____
ROOT
ATOM      1  C   UNL     1       4.881   4.642  17.541  0.00  0.00    +0.000 C 
ATOM      2  N   UNL     1       5.956   3.993  18.335  0.00  0.00    +0.000 NA
ATOM      3  CA  UNL     1       7.211   4.622  17.880  0.00  0.00    +0.000 C 
ATOM      4  C   UNL     1       7.013   4.972  16.393  0.00  0.00    +0.000 C 
ATOM      5  C   UNL     1       5.489   5.041  16.188  0.00  0.00    +0.000 C 
ATOM      6  H   UNL     1       5.963   3.008  18.074  0.00  0.00    +0.000 HD
ENDROOT
BRANCH   4   7
ATOM      7  O   UNL     1       7.599   6.192  15.934  0.00  0.00    +0.000 OA
ATOM      8  H   UNL     1       6.930   6.910  16.016  0.00  0.00    +0.000 HD
ENDBRANCH   4   7
BRANCH   5   9
ATOM      9  O   UNL     1       5.030   6.343  15.849  0.00  0.00    +0.000 OA
ATOM     10  H   UNL     1       4.566   6.673  16.657  0.00  0.00    +0.000 HD
ENDBRANCH   5   9
BRANCH   1  11
ATOM     11  C   UNL     1       3.640   3.741  17.362  0.00  0.00    +0.000 C 
BRANCH  11  12
ATOM     12  S   UNL     1       2.160   4.527  18.083  0.00  0.00    +0.000 S 
BRANCH  12  13
ATOM     13  C   UNL     1       2.899   5.243  19.571  0.00  0.00    +0.000 C 
BRANCH  13  14
ATOM     14  C   UNL     1       2.419   6.686  19.637  0.00  0.00    +0.000 C 
BRANCH  14  15
ATOM     15  C   UNL     1       1.971   7.194  18.275  0.00  0.00    +0.000 C 
BRANCH  15  16
ATOM     16  C   UNL     1       2.831   8.384  17.861  0.00  0.00    +0.000 C 
BRANCH  16  17
ATOM     17  C   UNL     1       2.026   9.674  17.883  0.00  0.00    +0.000 C 
BRANCH  17  18
ATOM     18  C   UNL     1       0.533   9.379  17.814  0.00  0.00    +0.000 C 
BRANCH  18  19
ATOM     19  C   UNL     1      -0.219  10.130  18.908  0.00  0.00    +0.000 C 
BRANCH  19  20
ATOM     20  C   UNL     1      -1.660  10.403  18.490  0.00  0.00    +0.000 C 
BRANCH  20  22
ATOM     21  C   UNL     1      -2.602  10.914  16.220  0.00  0.00    +0.000 C 
ATOM     22  C   UNL     1      -1.935   9.862  17.089  0.00  0.00    +0.000 C 
ENDBRANCH  20  22
ENDBRANCH  19  20
ENDBRANCH  18  19
ENDBRANCH  17  18
ENDBRANCH  16  17
ENDBRANCH  15  16
ENDBRANCH  14  15
ENDBRANCH  13  14
ENDBRANCH  12  13
ENDBRANCH  11  12
ENDBRANCH   1  11
BRANCH   3  23
ATOM     23  C   UNL     1       7.587   5.801  18.782  0.00  0.00    +0.000 C 
BRANCH  23  24
ATOM     24  O   UNL     1       8.420   5.344  19.855  0.00  0.00    +0.000 OA
ATOM     25  H   UNL     1       8.430   6.057  20.522  0.00  0.00    +0.000 HD
ENDBRANCH  23  24
ENDBRANCH   3  23
TORSDOF 15
ENDMDL
MODEL 5
REMARK VINA RESULT:      -5.8      4.135      7.128
REMARK  Name = 
REMARK  16 active torsions:
REMARK  status: ('A' for Active; 'I' for Inactive)
REMARK    1  A    between atoms: C_1  and  C_2
REMARK    2  A    between atoms: C_2  and  C_3
REMARK    3  A    between atoms: C_3  and  C_4
REMARK    4  A    between atoms: C_4  and  C_5
REMARK    5  A    between atoms: C_5  and  C_6
REMARK    6  A    between atoms: C_6  and  C_7
REMARK    7  A    between atoms: C_7  and  C_8
REMARK    8  A    between atoms: C_8  and  C_9
REMARK    9  A    between atoms: C_9  and  C_10
REMARK   10  A    between atoms: C_10  and  S_11
REMARK   11  A    between atoms: S_11  and  C_12
REMARK   12  A    between atoms: C_12  and  C_13
REMARK   13  A    between atoms: CA_15  and  C_16
REMARK   14  A    between atoms: C_16  and  O_17
REMARK   15  A    between atoms: C_18  and  O_19
REMARK   16  A    between atoms: C_20  and  O_21
REMARK                            x       y       z     vdW  Elec       q    Type
REMARK                         _______ _______ _______ _____ _____    ______ ____
ROOT
ATOM      1  C   UNL     1       3.295   3.537  18.668  0.00  0.00    +0.000 C 
ATOM      2  N   UNL     1       3.324   4.485  19.812  0.00  0.00    +0.000 NA
ATOM      3  CA  UNL     1       2.113   4.183  20.599  0.00  0.00    +0.000 C 
ATOM      4  C   UNL     1       1.041   3.715  19.597  0.00  0.00    +0.000 C 
ATOM      5  C   UNL     1       1.821   3.240  18.358  0.00  0.00    +0.000 C 
ATOM      6  H   UNL     1       3.241   5.423  19.420  0.00  0.00    +0.000 HD
ENDROOT
BRANCH   4   7
ATOM      7  O   UNL     1       0.170   2.668  20.027  0.00  0.00    +0.000 OA
ATOM      8  H   UNL     1      -0.095   2.844  20.959  0.00  0.00    +0.000 HD
ENDBRANCH   4   7
BRANCH   5   9
ATOM      9  O   UNL     1       1.680   1.847  18.110  0.00  0.00    +0.000 OA
ATOM     10  H   UNL     1       2.440   1.422  18.576  0.00  0.00    +0.000 HD
ENDBRANCH   5   9
BRANCH   1  11
ATOM     11  C   UNL     1       4.040   4.072  17.426  0.00  0.00    +0.000 C 
BRANCH  11  12
ATOM     12  S   UNL     1       4.430   5.844  17.619  0.00  0.00    +0.000 S 
BRANCH  12  13
ATOM     13  C   UNL     1       6.234   5.763  17.528  0.00  0.00    +0.000 C 
BRANCH  13  14
ATOM     14  C   UNL     1       6.572   4.421  16.895  0.00  0.00    +0.000 C 
BRANCH  14  15
ATOM     15  C   UNL     1       7.170   4.588  15.506  0.00  0.00    +0.000 C 
BRANCH  15  16
ATOM     16  C   UNL     1       6.085   5.025  14.527  0.00  0.00    +0.000 C 
BRANCH  16  17
ATOM     17  C   UNL     1       5.509   3.832  13.781  0.00  0.00    +0.000 C 
BRANCH  17  18
ATOM     18  C   UNL     1       6.062   3.765  12.363  0.00  0.00    +0.000 C 
BRANCH  18  19
ATOM     19  C   UNL     1       5.520   2.543  11.627  0.00  0.00    +0.000 C 
BRANCH  19  20
ATOM     20  C   UNL     1       4.068   2.756  11.211  0.00  0.00    +0.000 C 
BRANCH  20  22
ATOM     21  C   UNL     1       2.737   4.134   9.589  0.00  0.00    +0.000 C 
ATOM     22  C   UNL     1       3.873   4.139  10.597  0.00  0.00    +0.000 C 
ENDBRANCH  20  22
ENDBRANCH  19  20
ENDBRANCH  18  19
ENDBRANCH  17  18
ENDBRANCH  16  17
ENDBRANCH  15  16
ENDBRANCH  14  15
ENDBRANCH  13  14
ENDBRANCH  12  13
ENDBRANCH  11  12
ENDBRANCH   1  11
BRANCH   3  23
ATOM     23  C   UNL     1       2.429   3.193  21.724  0.00  0.00    +0.000 C 
BRANCH  23  24
ATOM     24  O   UNL     1       1.211   2.739  22.327  0.00  0.00    +0.000 OA
ATOM     25  H   UNL     1       0.511   2.849  21.656  0.00  0.00    +0.000 HD
ENDBRANCH  23  24
ENDBRANCH   3  23
TORSDOF 15
ENDMDL
MODEL 6
REMARK VINA RESULT:      -5.8      4.728      7.180
REMARK  Name = 
REMARK  16 active torsions:
REMARK  status: ('A' for Active; 'I' for Inactive)
REMARK    1  A    between atoms: C_1  and  C_2
REMARK    2  A    between atoms: C_2  and  C_3
REMARK    3  A    between atoms: C_3  and  C_4
REMARK    4  A    between atoms: C_4  and  C_5
REMARK    5  A    between atoms: C_5  and  C_6
REMARK    6  A    between atoms: C_6  and  C_7
REMARK    7  A    between atoms: C_7  and  C_8
REMARK    8  A    between atoms: C_8  and  C_9
REMARK    9  A    between atoms: C_9  and  C_10
REMARK   10  A    between atoms: C_10  and  S_11
REMARK   11  A    between atoms: S_11  and  C_12
REMARK   12  A    between atoms: C_12  and  C_13
REMARK   13  A    between atoms: CA_15  and  C_16
REMARK   14  A    between atoms: C_16  and  O_17
REMARK   15  A    between atoms: C_18  and  O_19
REMARK   16  A    between atoms: C_20  and  O_21
REMARK                            x       y       z     vdW  Elec       q    Type
REMARK                         _______ _______ _______ _____ _____    ______ ____
ROOT
ATOM      1  C   UNL     1       3.328   4.487  19.260  0.00  0.00    +0.000 C 
ATOM      2  N   UNL     1       1.932   4.426  18.754  0.00  0.00    +0.000 NA
ATOM      3  CA  UNL     1       1.704   3.010  18.409  0.00  0.00    +0.000 C 
ATOM      4  C   UNL     1       3.059   2.447  17.941  0.00  0.00    +0.000 C 
ATOM      5  C   UNL     1       4.121   3.382  18.546  0.00  0.00    +0.000 C 
ATOM      6  H   UNL     1       1.902   4.986  17.902  0.00  0.00    +0.000 HD
ENDROOT
BRANCH   4   7
ATOM      7  O   UNL     1       3.361   1.101  18.311  0.00  0.00    +0.000 OA
ATOM      8  H   UNL     1       2.853   0.494  17.724  0.00  0.00    +0.000 HD
ENDBRANCH   4   7
BRANCH   5   9
ATOM      9  O   UNL     1       4.957   2.736  19.497  0.00  0.00    +0.000 OA
ATOM     10  H   UNL     1       4.765   1.771  19.398  0.00  0.00    +0.000 HD
ENDBRANCH   5   9
BRANCH   1  11
ATOM     11  C   UNL     1       3.979   5.873  19.059  0.00  0.00    +0.000 C 
BRANCH  11  12
ATOM     12  S   UNL     1       5.031   5.884  17.568  0.00  0.00    +0.000 S 
BRANCH  12  13
ATOM     13  C   UNL     1       6.657   5.980  18.354  0.00  0.00    +0.000 C 
BRANCH  13  14
ATOM     14  C   UNL     1       7.476   6.962  17.529  0.00  0.00    +0.000 C 
BRANCH  14  15
ATOM     15  C   UNL     1       8.410   7.788  18.400  0.00  0.00    +0.000 C 
BRANCH  15  16
ATOM     16  C   UNL     1       8.251   9.268  18.066  0.00  0.00    +0.000 C 
BRANCH  16  17
ATOM     17  C   UNL     1       9.039  10.134  19.037  0.00  0.00    +0.000 C 
BRANCH  17  18
ATOM     18  C   UNL     1       9.822  11.206  18.289  0.00  0.00    +0.000 C 
BRANCH  18  19
ATOM     19  C   UNL     1      11.215  11.377  18.889  0.00  0.00    +0.000 C 
BRANCH  19  20
ATOM     20  C   UNL     1      11.136  11.985  20.286  0.00  0.00    +0.000 C 
BRANCH  20  22
ATOM     21  C   UNL     1       9.883  13.735  21.578  0.00  0.00    +0.000 C 
ATOM     22  C   UNL     1      10.509  13.376  20.242  0.00  0.00    +0.000 C 
ENDBRANCH  20  22
ENDBRANCH  19  20
ENDBRANCH  18  19
ENDBRANCH  17  18
ENDBRANCH  16  17
ENDBRANCH  15  16
ENDBRANCH  14  15
ENDBRANCH  13  14
ENDBRANCH  12  13
ENDBRANCH  11  12
ENDBRANCH   1  11
BRANCH   3  23
ATOM     23  C   UNL     1       1.058   2.263  19.579  0.00  0.00    +0.000 C 
BRANCH  23  24
ATOM     24  O   UNL     1       0.411   3.196  20.454  0.00  0.00    +0.000 OA
ATOM     25  H   UNL     1      -0.513   2.896  20.546  0.00  0.00    +0.000 HD
ENDBRANCH  23  24
ENDBRANCH   3  23
TORSDOF 15
ENDMDL
MODEL 7
REMARK VINA RESULT:      -5.8      1.505      2.160
REMARK  Name = 
REMARK  16 active torsions:
REMARK  status: ('A' for Active; 'I' for Inactive)
REMARK    1  A    between atoms: C_1  and  C_2
REMARK    2  A    between atoms: C_2  and  C_3
REMARK    3  A    between atoms: C_3  and  C_4
REMARK    4  A    between atoms: C_4  and  C_5
REMARK    5  A    between atoms: C_5  and  C_6
REMARK    6  A    between atoms: C_6  and  C_7
REMARK    7  A    between atoms: C_7  and  C_8
REMARK    8  A    between atoms: C_8  and  C_9
REMARK    9  A    between atoms: C_9  and  C_10
REMARK   10  A    between atoms: C_10  and  S_11
REMARK   11  A    between atoms: S_11  and  C_12
REMARK   12  A    between atoms: C_12  and  C_13
REMARK   13  A    between atoms: CA_15  and  C_16
REMARK   14  A    between atoms: C_16  and  O_17
REMARK   15  A    between atoms: C_18  and  O_19
REMARK   16  A    between atoms: C_20  and  O_21
REMARK                            x       y       z     vdW  Elec       q    Type
REMARK                         _______ _______ _______ _____ _____    ______ ____
ROOT
ATOM      1  C   UNL     1       4.761   3.753  16.878  0.00  0.00    +0.000 C 
ATOM      2  N   UNL     1       4.686   4.456  15.572  0.00  0.00    +0.000 NA
ATOM      3  CA  UNL     1       5.886   5.313  15.521  0.00  0.00    +0.000 C 
ATOM      4  C   UNL     1       6.187   5.735  16.972  0.00  0.00    +0.000 C 
ATOM      5  C   UNL     1       5.498   4.681  17.856  0.00  0.00    +0.000 C 
ATOM      6  H   UNL     1       3.856   5.047  15.601  0.00  0.00    +0.000 HD
ENDROOT
BRANCH   4   7
ATOM      7  O   UNL     1       7.563   5.826  17.345  0.00  0.00    +0.000 OA
ATOM      8  H   UNL     1       7.953   6.620  16.912  0.00  0.00    +0.000 HD
ENDBRANCH   4   7
BRANCH   5   9
ATOM      9  O   UNL     1       6.414   3.904  18.616  0.00  0.00    +0.000 OA
ATOM     10  H   UNL     1       6.080   3.945  19.545  0.00  0.00    +0.000 HD
ENDBRANCH   5   9
BRANCH   1  11
ATOM     11  C   UNL     1       3.374   3.345  17.420  0.00  0.00    +0.000 C 
BRANCH  11  12
ATOM     12  S   UNL     1       3.541   2.315  18.917  0.00  0.00    +0.000 S 
BRANCH  12  13
ATOM     13  C   UNL     1       1.791   2.078  19.310  0.00  0.00    +0.000 C 
BRANCH  13  14
ATOM     14  C   UNL     1       1.502   2.945  20.527  0.00  0.00    +0.000 C 
BRANCH  14  15
ATOM     15  C   UNL     1       1.118   4.362  20.130  0.00  0.00    +0.000 C 
BRANCH  15  16
ATOM     16  C   UNL     1       2.100   5.354  20.746  0.00  0.00    +0.000 C 
BRANCH  16  17
ATOM     17  C   UNL     1       2.030   6.700  20.042  0.00  0.00    +0.000 C 
BRANCH  17  18
ATOM     18  C   UNL     1       2.621   6.607  18.641  0.00  0.00    +0.000 C 
BRANCH  18  19
ATOM     19  C   UNL     1       2.836   7.997  18.050  0.00  0.00    +0.000 C 
BRANCH  19  20
ATOM     20  C   UNL     1       1.502   8.675  17.751  0.00  0.00    +0.000 C 
BRANCH  20  22
ATOM     21  C   UNL     1       0.074  10.177  19.167  0.00  0.00    +0.000 C 
ATOM     22  C   UNL     1       1.406  10.027  18.454  0.00  0.00    +0.000 C 
ENDBRANCH  20  22
ENDBRANCH  19  20
ENDBRANCH  18  19
ENDBRANCH  17  18
ENDBRANCH  16  17
ENDBRANCH  15  16
ENDBRANCH  14  15
ENDBRANCH  13  14
ENDBRANCH  12  13
ENDBRANCH  11  12
ENDBRANCH   1  11
BRANCH   3  23
ATOM     23  C   UNL     1       7.033   4.600  14.799  0.00  0.00    +0.000 C 
BRANCH  23  24
ATOM     24  O   UNL     1       8.013   5.558  14.381  0.00  0.00    +0.000 OA
ATOM     25  H   UNL     1       8.884   5.131  14.490  0.00  0.00    +0.000 HD
ENDBRANCH  23  24
ENDBRANCH   3  23
TORSDOF 15
ENDMDL
MODEL 8
REMARK VINA RESULT:      -5.7      0.899      1.152
REMARK  Name = 
REMARK  16 active torsions:
REMARK  status: ('A' for Active; 'I' for Inactive)
REMARK    1  A    between atoms: C_1  and  C_2
REMARK    2  A    between atoms: C_2  and  C_3
REMARK    3  A    between atoms: C_3  and  C_4
REMARK    4  A    between atoms: C_4  and  C_5
REMARK    5  A    between atoms: C_5  and  C_6
REMARK    6  A    between atoms: C_6  and  C_7
REMARK    7  A    between atoms: C_7  and  C_8
REMARK    8  A    between atoms: C_8  and  C_9
REMARK    9  A    between atoms: C_9  and  C_10
REMARK   10  A    between atoms: C_10  and  S_11
REMARK   11  A    between atoms: S_11  and  C_12
REMARK   12  A    between atoms: C_12  and  C_13
REMARK   13  A    between atoms: CA_15  and  C_16
REMARK   14  A    between atoms: C_16  and  O_17
REMARK   15  A    between atoms: C_18  and  O_19
REMARK   16  A    between atoms: C_20  and  O_21
REMARK                            x       y       z     vdW  Elec       q    Type
REMARK                         _______ _______ _______ _____ _____    ______ ____
ROOT
ATOM      1  C   UNL     1       4.858   4.569  17.394  0.00  0.00    +0.000 C 
ATOM      2  N   UNL     1       5.931   3.903  18.176  0.00  0.00    +0.000 NA
ATOM      3  CA  UNL     1       7.185   4.552  17.750  0.00  0.00    +0.000 C 
ATOM      4  C   UNL     1       6.997   4.946  16.273  0.00  0.00    +0.000 C 
ATOM      5  C   UNL     1       5.474   5.012  16.058  0.00  0.00    +0.000 C 
ATOM      6  H   UNL     1       5.946   2.926  17.885  0.00  0.00    +0.000 HD
ENDROOT
BRANCH   4   7
ATOM      7  O   UNL     1       7.578   6.182  15.856  0.00  0.00    +0.000 OA
ATOM      8  H   UNL     1       8.526   6.025  15.638  0.00  0.00    +0.000 HD
ENDBRANCH   4   7
BRANCH   5   9
ATOM      9  O   UNL     1       5.009   6.320  15.755  0.00  0.00    +0.000 OA
ATOM     10  H   UNL     1       5.515   6.921  16.355  0.00  0.00    +0.000 HD
ENDBRANCH   5   9
BRANCH   1  11
ATOM     11  C   UNL     1       3.624   3.666  17.178  0.00  0.00    +0.000 C 
BRANCH  11  12
ATOM     12  S   UNL     1       3.701   2.197  18.258  0.00  0.00    +0.000 S 
BRANCH  12  13
ATOM     13  C   UNL     1       2.277   2.536  19.321  0.00  0.00    +0.000 C 
BRANCH  13  14
ATOM     14  C   UNL     1       2.837   2.842  20.703  0.00  0.00    +0.000 C 
BRANCH  14  15
ATOM     15  C   UNL     1       2.179   4.068  21.318  0.00  0.00    +0.000 C 
BRANCH  15  16
ATOM     16  C   UNL     1       2.020   5.154  20.258  0.00  0.00    +0.000 C 
BRANCH  16  17
ATOM     17  C   UNL     1       1.436   6.423  20.859  0.00  0.00    +0.000 C 
BRANCH  17  18
ATOM     18  C   UNL     1       1.914   7.651  20.093  0.00  0.00    +0.000 C 
BRANCH  18  19
ATOM     19  C   UNL     1       1.114   8.886  20.496  0.00  0.00    +0.000 C 
BRANCH  19  20
ATOM     20  C   UNL     1       0.781   9.741  19.277  0.00  0.00    +0.000 C 
BRANCH  20  22
ATOM     21  C   UNL     1      -1.198  10.224  17.810  0.00  0.00    +0.000 C 
ATOM     22  C   UNL     1      -0.705  10.085  19.240  0.00  0.00    +0.000 C 
ENDBRANCH  20  22
ENDBRANCH  19  20
ENDBRANCH  18  19
ENDBRANCH  17  18
ENDBRANCH  16  17
ENDBRANCH  15  16
ENDBRANCH  14  15
ENDBRANCH  13  14
ENDBRANCH  12  13
ENDBRANCH  11  12
ENDBRANCH   1  11
BRANCH   3  23
ATOM     23  C   UNL     1       7.547   5.705  18.690  0.00  0.00    +0.000 C 
BRANCH  23  24
ATOM     24  O   UNL     1       7.222   5.352  20.040  0.00  0.00    +0.000 OA
ATOM     25  H   UNL     1       8.070   5.233  20.508  0.00  0.00    +0.000 HD
ENDBRANCH  23  24
ENDBRANCH   3  23
TORSDOF 15
ENDMDL
MODEL 9
REMARK VINA RESULT:      -5.7      4.098      7.349
REMARK  Name = 
REMARK  16 active torsions:
REMARK  status: ('A' for Active; 'I' for Inactive)
REMARK    1  A    between atoms: C_1  and  C_2
REMARK    2  A    between atoms: C_2  and  C_3
REMARK    3  A    between atoms: C_3  and  C_4
REMARK    4  A    between atoms: C_4  and  C_5
REMARK    5  A    between atoms: C_5  and  C_6
REMARK    6  A    between atoms: C_6  and  C_7
REMARK    7  A    between atoms: C_7  and  C_8
REMARK    8  A    between atoms: C_8  and  C_9
REMARK    9  A    between atoms: C_9  and  C_10
REMARK   10  A    between atoms: C_10  and  S_11
REMARK   11  A    between atoms: S_11  and  C_12
REMARK   12  A    between atoms: C_12  and  C_13
REMARK   13  A    between atoms: CA_15  and  C_16
REMARK   14  A    between atoms: C_16  and  O_17
REMARK   15  A    between atoms: C_18  and  O_19
REMARK   16  A    between atoms: C_20  and  O_21
REMARK                            x       y       z     vdW  Elec       q    Type
REMARK                         _______ _______ _______ _____ _____    ______ ____
ROOT
ATOM      1  C   UNL     1       2.984   4.254  18.615  0.00  0.00    +0.000 C 
ATOM      2  N   UNL     1       2.636   2.847  18.288  0.00  0.00    +0.000 NA
ATOM      3  CA  UNL     1       2.174   2.255  19.558  0.00  0.00    +0.000 C 
ATOM      4  C   UNL     1       2.966   2.949  20.682  0.00  0.00    +0.000 C 
ATOM      5  C   UNL     1       3.445   4.282  20.080  0.00  0.00    +0.000 C 
ATOM      6  H   UNL     1       3.500   2.387  18.001  0.00  0.00    +0.000 HD
ENDROOT
BRANCH   4   7
ATOM      7  O   UNL     1       2.263   3.215  21.897  0.00  0.00    +0.000 OA
ATOM      8  H   UNL     1       1.313   2.989  21.764  0.00  0.00    +0.000 HD
ENDBRANCH   4   7
BRANCH   5   9
ATOM      9  O   UNL     1       2.875   5.419  20.714  0.00  0.00    +0.000 OA
ATOM     10  H   UNL     1       1.900   5.330  20.578  0.00  0.00    +0.000 HD
ENDBRANCH   5   9
BRANCH   1  11
ATOM     11  C   UNL     1       4.056   4.841  17.671  0.00  0.00    +0.000 C 
BRANCH  11  12
ATOM     12  S   UNL     1       5.150   3.526  17.036  0.00  0.00    +0.000 S 
BRANCH  12  13
ATOM     13  C   UNL     1       6.627   4.511  16.691  0.00  0.00    +0.000 C 
BRANCH  13  14
ATOM     14  C   UNL     1       6.195   5.612  15.733  0.00  0.00    +0.000 C 
BRANCH  14  15
ATOM     15  C   UNL     1       5.761   5.051  14.388  0.00  0.00    +0.000 C 
BRANCH  15  16
ATOM     16  C   UNL     1       6.914   4.279  13.755  0.00  0.00    +0.000 C 
BRANCH  16  17
ATOM     17  C   UNL     1       6.756   4.202  12.245  0.00  0.00    +0.000 C 
BRANCH  17  18
ATOM     18  C   UNL     1       6.687   2.751  11.784  0.00  0.00    +0.000 C 
BRANCH  18  19
ATOM     19  C   UNL     1       5.238   2.309  11.602  0.00  0.00    +0.000 C 
BRANCH  19  20
ATOM     20  C   UNL     1       4.327   3.510  11.366  0.00  0.00    +0.000 C 
BRANCH  20  22
ATOM     21  C   UNL     1       2.858   4.346   9.510  0.00  0.00    +0.000 C 
ATOM     22  C   UNL     1       3.202   3.161  10.396  0.00  0.00    +0.000 C 
ENDBRANCH  20  22
ENDBRANCH  19  20
ENDBRANCH  18  19
ENDBRANCH  17  18
ENDBRANCH  16  17
ENDBRANCH  15  16
ENDBRANCH  14  15
ENDBRANCH  13  14
ENDBRANCH  12  13
ENDBRANCH  11  12
ENDBRANCH   1  11
BRANCH   3  23
ATOM     23  C   UNL     1       0.650   2.350  19.680  0.00  0.00    +0.000 C 
BRANCH  23  24
ATOM     24  O   UNL     1       0.280   3.660  20.128  0.00  0.00    +0.000 OA
ATOM     25  H   UNL     1       0.417   3.672  21.094  0.00  0.00    +0.000 HD
ENDBRANCH  23  24
ENDBRANCH   3  23
TORSDOF 15
ENDMDL
