MODEL 1
REMARK VINA RESULT:      -7.9      0.000      0.000
REMARK  Name = 
REMARK  9 active torsions:
REMARK  status: ('A' for Active; 'I' for Inactive)
REMARK    1  A    between atoms: C_1  and  O_2
REMARK    2  A    between atoms: O_2  and  C_3
REMARK    3  A    between atoms: C_3  and  C_5
REMARK    4  A    between atoms: C_7  and  O_8
REMARK    5  A    between atoms: O_8  and  S_9
REMARK    6  A    between atoms: S_9  and  C_12
REMARK    7  A    between atoms: C_15  and  C_16
REMARK    8  A    between atoms: N_20  and  S_21
REMARK    9  A    between atoms: S_21  and  C_22
REMARK                            x       y       z     vdW  Elec       q    Type
REMARK                         _______ _______ _______ _____ _____    ______ ____
ROOT
ATOM      1  C   UNL     1       3.506   5.559  19.526  0.00  0.00    +0.000 C 
ATOM      2  C   UNL     1       4.183   5.431  18.167  0.00  0.00    +0.000 C 
ATOM      3  C   UNL     1       5.015   4.167  18.307  0.00  0.00    +0.000 C 
ATOM      4  C   UNL     1       4.196   3.291  19.282  0.00  0.00    +0.000 C 
ATOM      5  N   UNL     1       3.075   4.152  19.827  0.00  0.00    +0.000 NA
ENDROOT
BRANCH   5   6
ATOM      6  S   UNL     1       1.502   3.766  19.268  0.00  0.00    +0.000 S 
ATOM      7  C   UNL     1       1.523   1.987  19.254  0.00  0.00    +0.000 C 
ATOM      8  O   UNL     1       0.554   4.164  20.287  0.00  0.00    +0.000 OA
ATOM      9  O   UNL     1       1.401   4.236  17.905  0.00  0.00    +0.000 OA
ENDBRANCH   5   6
BRANCH   1  10
ATOM     10  C   UNL     1       2.521   6.708  19.498  0.00  0.00    +0.000 C 
ATOM     11  O   UNL     1       1.894   7.113  20.470  0.00  0.00    +0.000 OA
BRANCH  10  13
ATOM     12  C   UNL     1       2.168   8.582  18.159  0.00  0.00    +0.000 C 
ATOM     13  O   UNL     1       2.363   7.169  18.223  0.00  0.00    +0.000 OA
ENDBRANCH  10  13
ENDBRANCH   1  10
BRANCH   3  14
ATOM     14  O   UNL     1       6.325   4.467  18.816  0.00  0.00    +0.000 OA
BRANCH  14  15
ATOM     15  S   UNL     1       7.442   4.929  17.704  0.00  0.00    +0.000 S 
ATOM     16  O   UNL     1       7.564   6.371  17.784  0.00  0.00    +0.000 OA
ATOM     17  O   UNL     1       8.598   4.066  17.848  0.00  0.00    +0.000 OA
BRANCH  15  18
ATOM     18  C   UNL     1       6.806   4.554  16.096  0.00  0.00    +0.000 A 
ATOM     19  C   UNL     1       7.418   5.184  15.005  0.00  0.00    +0.000 A 
ATOM     20  C   UNL     1       7.054   4.828  13.709  0.00  0.00    +0.000 A 
ATOM     21  C   UNL     1       6.078   3.849  13.497  0.00  0.00    +0.000 A 
ATOM     22  C   UNL     1       5.708   3.439  12.102  0.00  0.00    +0.000 C 
ATOM     23  C   UNL     1       5.459   3.240  14.603  0.00  0.00    +0.000 A 
ATOM     24  C   UNL     1       5.819   3.590  15.908  0.00  0.00    +0.000 A 
ENDBRANCH  15  18
ENDBRANCH  14  15
ENDBRANCH   3  14
TORSDOF 6
ENDMDL
MODEL 2
REMARK VINA RESULT:      -7.7      2.486      3.485
REMARK  Name = 
REMARK  9 active torsions:
REMARK  status: ('A' for Active; 'I' for Inactive)
REMARK    1  A    between atoms: C_1  and  O_2
REMARK    2  A    between atoms: O_2  and  C_3
REMARK    3  A    between atoms: C_3  and  C_5
REMARK    4  A    between atoms: C_7  and  O_8
REMARK    5  A    between atoms: O_8  and  S_9
REMARK    6  A    between atoms: S_9  and  C_12
REMARK    7  A    between atoms: C_15  and  C_16
REMARK    8  A    between atoms: N_20  and  S_21
REMARK    9  A    between atoms: S_21  and  C_22
REMARK                            x       y       z     vdW  Elec       q    Type
REMARK                         _______ _______ _______ _____ _____    ______ ____
ROOT
ATOM      1  C   UNL     1       3.430   5.376  19.452  0.00  0.00    +0.000 C 
ATOM      2  C   UNL     1       4.071   5.185  18.084  0.00  0.00    +0.000 C 
ATOM      3  C   UNL     1       4.865   3.900  18.244  0.00  0.00    +0.000 C 
ATOM      4  C   UNL     1       4.040   3.080  19.263  0.00  0.00    +0.000 C 
ATOM      5  N   UNL     1       2.961   3.994  19.806  0.00  0.00    +0.000 NA
ENDROOT
BRANCH   5   6
ATOM      6  S   UNL     1       1.363   3.644  19.294  0.00  0.00    +0.000 S 
ATOM      7  C   UNL     1       1.302   1.870  19.406  0.00  0.00    +0.000 C 
ATOM      8  O   UNL     1       0.450   4.157  20.293  0.00  0.00    +0.000 OA
ATOM      9  O   UNL     1       1.263   4.021  17.902  0.00  0.00    +0.000 OA
ENDBRANCH   5   6
BRANCH   1  10
ATOM     10  C   UNL     1       2.483   6.556  19.411  0.00  0.00    +0.000 C 
ATOM     11  O   UNL     1       1.897   7.015  20.385  0.00  0.00    +0.000 OA
BRANCH  10  13
ATOM     12  C   UNL     1       2.528   8.380  17.961  0.00  0.00    +0.000 C 
ATOM     13  O   UNL     1       2.304   6.979  18.125  0.00  0.00    +0.000 OA
ENDBRANCH  10  13
ENDBRANCH   1  10
BRANCH   3  14
ATOM     14  O   UNL     1       6.195   4.170  18.714  0.00  0.00    +0.000 OA
BRANCH  14  15
ATOM     15  S   UNL     1       7.266   4.695  17.585  0.00  0.00    +0.000 S 
ATOM     16  O   UNL     1       8.527   4.027  17.839  0.00  0.00    +0.000 OA
ATOM     17  O   UNL     1       6.621   4.618  16.289  0.00  0.00    +0.000 OA
BRANCH  15  18
ATOM     18  C   UNL     1       7.537   6.424  17.844  0.00  0.00    +0.000 A 
ATOM     19  C   UNL     1       8.411   6.785  18.878  0.00  0.00    +0.000 A 
ATOM     20  C   UNL     1       8.770   8.119  19.045  0.00  0.00    +0.000 A 
ATOM     21  C   UNL     1       8.258   9.097  18.186  0.00  0.00    +0.000 A 
ATOM     22  C   UNL     1       8.670  10.532  18.341  0.00  0.00    +0.000 C 
ATOM     23  C   UNL     1       7.367   8.722  17.164  0.00  0.00    +0.000 A 
ATOM     24  C   UNL     1       7.002   7.383  16.989  0.00  0.00    +0.000 A 
ENDBRANCH  15  18
ENDBRANCH  14  15
ENDBRANCH   3  14
TORSDOF 6
ENDMDL
MODEL 3
REMARK VINA RESULT:      -7.4      0.201      1.009
REMARK  Name = 
REMARK  9 active torsions:
REMARK  status: ('A' for Active; 'I' for Inactive)
REMARK    1  A    between atoms: C_1  and  O_2
REMARK    2  A    between atoms: O_2  and  C_3
REMARK    3  A    between atoms: C_3  and  C_5
REMARK    4  A    between atoms: C_7  and  O_8
REMARK    5  A    between atoms: O_8  and  S_9
REMARK    6  A    between atoms: S_9  and  C_12
REMARK    7  A    between atoms: C_15  and  C_16
REMARK    8  A    between atoms: N_20  and  S_21
REMARK    9  A    between atoms: S_21  and  C_22
REMARK                            x       y       z     vdW  Elec       q    Type
REMARK                         _______ _______ _______ _____ _____    ______ ____
ROOT
ATOM      1  C   UNL     1       3.494   5.549  19.498  0.00  0.00    +0.000 C 
ATOM      2  C   UNL     1       4.202   5.521  18.149  0.00  0.00    +0.000 C 
ATOM      3  C   UNL     1       5.006   4.233  18.201  0.00  0.00    +0.000 C 
ATOM      4  C   UNL     1       4.148   3.295  19.081  0.00  0.00    +0.000 C 
ATOM      5  N   UNL     1       3.031   4.131  19.671  0.00  0.00    +0.000 NA
ENDROOT
BRANCH   5   6
ATOM      6  S   UNL     1       1.464   3.826  19.047  0.00  0.00    +0.000 S 
ATOM      7  C   UNL     1       1.460   2.057  18.862  0.00  0.00    +0.000 C 
ATOM      8  O   UNL     1       0.501   4.139  20.081  0.00  0.00    +0.000 OA
ATOM      9  O   UNL     1       1.398   4.426  17.734  0.00  0.00    +0.000 OA
ENDBRANCH   5   6
BRANCH   1  10
ATOM     10  C   UNL     1       2.533   6.717  19.545  0.00  0.00    +0.000 C 
ATOM     11  O   UNL     1       1.911   7.069  20.541  0.00  0.00    +0.000 OA
BRANCH  10  13
ATOM     12  C   UNL     1       2.113   8.666  18.338  0.00  0.00    +0.000 C 
ATOM     13  O   UNL     1       2.388   7.265  18.303  0.00  0.00    +0.000 OA
ENDBRANCH  10  13
ENDBRANCH   1  10
BRANCH   3  14
ATOM     14  O   UNL     1       6.309   4.461  18.762  0.00  0.00    +0.000 OA
BRANCH  14  15
ATOM     15  S   UNL     1       7.481   4.913  17.703  0.00  0.00    +0.000 S 
ATOM     16  O   UNL     1       7.562   6.359  17.736  0.00  0.00    +0.000 OA
ATOM     17  O   UNL     1       8.646   4.086  17.949  0.00  0.00    +0.000 OA
BRANCH  15  18
ATOM     18  C   UNL     1       6.954   4.463  16.075  0.00  0.00    +0.000 A 
ATOM     19  C   UNL     1       5.951   3.491  15.974  0.00  0.00    +0.000 A 
ATOM     20  C   UNL     1       5.399   3.193  14.732  0.00  0.00    +0.000 A 
ATOM     21  C   UNL     1       5.846   3.860  13.587  0.00  0.00    +0.000 A 
ATOM     22  C   UNL     1       5.229   3.566  12.250  0.00  0.00    +0.000 C 
ATOM     23  C   UNL     1       6.867   4.821  13.701  0.00  0.00    +0.000 A 
ATOM     24  C   UNL     1       7.426   5.127  14.946  0.00  0.00    +0.000 A 
ENDBRANCH  15  18
ENDBRANCH  14  15
ENDBRANCH   3  14
TORSDOF 6
ENDMDL
MODEL 4
REMARK VINA RESULT:      -7.3      0.796      1.075
REMARK  Name = 
REMARK  9 active torsions:
REMARK  status: ('A' for Active; 'I' for Inactive)
REMARK    1  A    between atoms: C_1  and  O_2
REMARK    2  A    between atoms: O_2  and  C_3
REMARK    3  A    between atoms: C_3  and  C_5
REMARK    4  A    between atoms: C_7  and  O_8
REMARK    5  A    between atoms: O_8  and  S_9
REMARK    6  A    between atoms: S_9  and  C_12
REMARK    7  A    between atoms: C_15  and  C_16
REMARK    8  A    between atoms: N_20  and  S_21
REMARK    9  A    between atoms: S_21  and  C_22
REMARK                            x       y       z     vdW  Elec       q    Type
REMARK                         _______ _______ _______ _____ _____    ______ ____
ROOT
ATOM      1  C   UNL     1       3.210   6.137  19.550  0.00  0.00    +0.000 C 
ATOM      2  C   UNL     1       3.849   6.164  18.167  0.00  0.00    +0.000 C 
ATOM      3  C   UNL     1       4.889   5.059  18.239  0.00  0.00    +0.000 C 
ATOM      4  C   UNL     1       4.269   4.029  19.211  0.00  0.00    +0.000 C 
ATOM      5  N   UNL     1       3.038   4.670  19.819  0.00  0.00    +0.000 NA
ENDROOT
BRANCH   5   6
ATOM      6  S   UNL     1       1.534   4.034  19.299  0.00  0.00    +0.000 S 
ATOM      7  C   UNL     1       1.840   2.281  19.287  0.00  0.00    +0.000 C 
ATOM      8  O   UNL     1       0.559   4.280  20.339  0.00  0.00    +0.000 OA
ATOM      9  O   UNL     1       1.327   4.474  17.937  0.00  0.00    +0.000 OA
ENDBRANCH   5   6
BRANCH   1  10
ATOM     10  C   UNL     1       2.044   7.100  19.591  0.00  0.00    +0.000 C 
ATOM     11  O   UNL     1       1.654   7.766  18.639  0.00  0.00    +0.000 OA
BRANCH  10  13
ATOM     12  C   UNL     1       1.047   8.492  21.172  0.00  0.00    +0.000 C 
ATOM     13  O   UNL     1       1.545   7.191  20.859  0.00  0.00    +0.000 OA
ENDBRANCH  10  13
ENDBRANCH   1  10
BRANCH   3  14
ATOM     14  O   UNL     1       6.147   5.566  18.715  0.00  0.00    +0.000 OA
BRANCH  14  15
ATOM     15  S   UNL     1       7.426   5.389  17.700  0.00  0.00    +0.000 S 
ATOM     16  O   UNL     1       7.996   6.704  17.487  0.00  0.00    +0.000 OA
ATOM     17  O   UNL     1       8.233   4.287  18.187  0.00  0.00    +0.000 OA
BRANCH  15  18
ATOM     18  C   UNL     1       6.814   4.833  16.136  0.00  0.00    +0.000 A 
ATOM     19  C   UNL     1       7.353   5.432  14.990  0.00  0.00    +0.000 A 
ATOM     20  C   UNL     1       7.014   4.945  13.731  0.00  0.00    +0.000 A 
ATOM     21  C   UNL     1       6.135   3.863  13.610  0.00  0.00    +0.000 A 
ATOM     22  C   UNL     1       5.794   3.314  12.255  0.00  0.00    +0.000 C 
ATOM     23  C   UNL     1       5.587   3.285  14.768  0.00  0.00    +0.000 A 
ATOM     24  C   UNL     1       5.924   3.767  16.038  0.00  0.00    +0.000 A 
ENDBRANCH  15  18
ENDBRANCH  14  15
ENDBRANCH   3  14
TORSDOF 6
ENDMDL
MODEL 5
REMARK VINA RESULT:      -7.2      3.294      7.822
REMARK  Name = 
REMARK  9 active torsions:
REMARK  status: ('A' for Active; 'I' for Inactive)
REMARK    1  A    between atoms: C_1  and  O_2
REMARK    2  A    between atoms: O_2  and  C_3
REMARK    3  A    between atoms: C_3  and  C_5
REMARK    4  A    between atoms: C_7  and  O_8
REMARK    5  A    between atoms: O_8  and  S_9
REMARK    6  A    between atoms: S_9  and  C_12
REMARK    7  A    between atoms: C_15  and  C_16
REMARK    8  A    between atoms: N_20  and  S_21
REMARK    9  A    between atoms: S_21  and  C_22
REMARK                            x       y       z     vdW  Elec       q    Type
REMARK                         _______ _______ _______ _____ _____    ______ ____
ROOT
ATOM      1  C   UNL     1       3.966   5.305  18.956  0.00  0.00    +0.000 C 
ATOM      2  C   UNL     1       2.563   5.582  18.431  0.00  0.00    +0.000 C 
ATOM      3  C   UNL     1       2.653   7.012  17.925  0.00  0.00    +0.000 C 
ATOM      4  C   UNL     1       4.118   7.144  17.448  0.00  0.00    +0.000 C 
ATOM      5  N   UNL     1       4.851   5.897  17.897  0.00  0.00    +0.000 NA
ENDROOT
BRANCH   5   6
ATOM      6  S   UNL     1       5.283   4.800  16.652  0.00  0.00    +0.000 S 
ATOM      7  C   UNL     1       5.529   5.877  15.257  0.00  0.00    +0.000 C 
ATOM      8  O   UNL     1       6.576   4.239  16.979  0.00  0.00    +0.000 OA
ATOM      9  O   UNL     1       4.131   3.966  16.392  0.00  0.00    +0.000 OA
ENDBRANCH   5   6
BRANCH   1  10
ATOM     10  C   UNL     1       4.077   3.854  19.373  0.00  0.00    +0.000 C 
ATOM     11  O   UNL     1       5.119   3.301  19.705  0.00  0.00    +0.000 OA
BRANCH  10  13
ATOM     12  C   UNL     1       2.994   1.855  18.859  0.00  0.00    +0.000 C 
ATOM     13  O   UNL     1       2.872   3.226  19.238  0.00  0.00    +0.000 OA
ENDBRANCH  10  13
ENDBRANCH   1  10
BRANCH   3  14
ATOM     14  O   UNL     1       2.336   7.948  18.968  0.00  0.00    +0.000 OA
BRANCH  14  15
ATOM     15  S   UNL     1       1.509   9.290  18.504  0.00  0.00    +0.000 S 
ATOM     16  O   UNL     1       2.482  10.270  18.066  0.00  0.00    +0.000 OA
ATOM     17  O   UNL     1       0.423   8.868  17.642  0.00  0.00    +0.000 OA
BRANCH  15  18
ATOM     18  C   UNL     1       0.707   9.962  19.931  0.00  0.00    +0.000 A 
ATOM     19  C   UNL     1      -0.078  11.107  19.742  0.00  0.00    +0.000 A 
ATOM     20  C   UNL     1      -0.841  11.603  20.795  0.00  0.00    +0.000 A 
ATOM     21  C   UNL     1      -0.822  10.963  22.039  0.00  0.00    +0.000 A 
ATOM     22  C   UNL     1      -1.670  11.475  23.166  0.00  0.00    +0.000 C 
ATOM     23  C   UNL     1      -0.014   9.826  22.219  0.00  0.00    +0.000 A 
ATOM     24  C   UNL     1       0.755   9.320  21.166  0.00  0.00    +0.000 A 
ENDBRANCH  15  18
ENDBRANCH  14  15
ENDBRANCH   3  14
TORSDOF 6
ENDMDL
MODEL 6
REMARK VINA RESULT:      -7.0      2.223      6.447
REMARK  Name = 
REMARK  9 active torsions:
REMARK  status: ('A' for Active; 'I' for Inactive)
REMARK    1  A    between atoms: C_1  and  O_2
REMARK    2  A    between atoms: O_2  and  C_3
REMARK    3  A    between atoms: C_3  and  C_5
REMARK    4  A    between atoms: C_7  and  O_8
REMARK    5  A    between atoms: O_8  and  S_9
REMARK    6  A    between atoms: S_9  and  C_12
REMARK    7  A    between atoms: C_15  and  C_16
REMARK    8  A    between atoms: N_20  and  S_21
REMARK    9  A    between atoms: S_21  and  C_22
REMARK                            x       y       z     vdW  Elec       q    Type
REMARK                         _______ _______ _______ _____ _____    ______ ____
ROOT
ATOM      1  C   UNL     1       6.297   6.299  18.236  0.00  0.00    +0.000 C 
ATOM      2  C   UNL     1       6.270   5.199  19.291  0.00  0.00    +0.000 C 
ATOM      3  C   UNL     1       4.887   4.592  19.130  0.00  0.00    +0.000 C 
ATOM      4  C   UNL     1       4.579   4.763  17.625  0.00  0.00    +0.000 C 
ATOM      5  N   UNL     1       5.667   5.642  17.042  0.00  0.00    +0.000 NA
ENDROOT
BRANCH   5   6
ATOM      6  S   UNL     1       6.783   4.855  16.006  0.00  0.00    +0.000 S 
ATOM      7  C   UNL     1       5.830   3.491  15.377  0.00  0.00    +0.000 C 
ATOM      8  O   UNL     1       7.048   5.731  14.885  0.00  0.00    +0.000 OA
ATOM      9  O   UNL     1       7.846   4.331  16.834  0.00  0.00    +0.000 OA
ENDBRANCH   5   6
BRANCH   1  10
ATOM     10  C   UNL     1       7.678   6.914  18.177  0.00  0.00    +0.000 C 
ATOM     11  O   UNL     1       8.606   6.619  18.921  0.00  0.00    +0.000 OA
BRANCH  10  13
ATOM     12  C   UNL     1       8.052   9.181  17.786  0.00  0.00    +0.000 C 
ATOM     13  O   UNL     1       7.719   7.905  17.238  0.00  0.00    +0.000 OA
ENDBRANCH  10  13
ENDBRANCH   1  10
BRANCH   3  14
ATOM     14  O   UNL     1       3.927   5.268  19.960  0.00  0.00    +0.000 OA
BRANCH  14  15
ATOM     15  S   UNL     1       2.426   5.455  19.320  0.00  0.00    +0.000 S 
ATOM     16  O   UNL     1       2.475   4.980  17.952  0.00  0.00    +0.000 OA
ATOM     17  O   UNL     1       1.468   4.923  20.269  0.00  0.00    +0.000 OA
BRANCH  15  18
ATOM     18  C   UNL     1       2.069   7.186  19.252  0.00  0.00    +0.000 A 
ATOM     19  C   UNL     1       2.253   7.828  18.021  0.00  0.00    +0.000 A 
ATOM     20  C   UNL     1       1.861   9.155  17.868  0.00  0.00    +0.000 A 
ATOM     21  C   UNL     1       1.289   9.847  18.940  0.00  0.00    +0.000 A 
ATOM     22  C   UNL     1       0.833  11.267  18.769  0.00  0.00    +0.000 C 
ATOM     23  C   UNL     1       1.128   9.195  20.176  0.00  0.00    +0.000 A 
ATOM     24  C   UNL     1       1.518   7.861  20.338  0.00  0.00    +0.000 A 
ENDBRANCH  15  18
ENDBRANCH  14  15
ENDBRANCH   3  14
TORSDOF 6
ENDMDL
MODEL 7
REMARK VINA RESULT:      -7.0      3.217      7.532
REMARK  Name = 
REMARK  9 active torsions:
REMARK  status: ('A' for Active; 'I' for Inactive)
REMARK    1  A    between atoms: C_1  and  O_2
REMARK    2  A    between atoms: O_2  and  C_3
REMARK    3  A    between atoms: C_3  and  C_5
REMARK    4  A    between atoms: C_7  and  O_8
REMARK    5  A    between atoms: O_8  and  S_9
REMARK    6  A    between atoms: S_9  and  C_12
REMARK    7  A    between atoms: C_15  and  C_16
REMARK    8  A    between atoms: N_20  and  S_21
REMARK    9  A    between atoms: S_21  and  C_22
REMARK                            x       y       z     vdW  Elec       q    Type
REMARK                         _______ _______ _______ _____ _____    ______ ____
ROOT
ATOM      1  C   UNL     1       2.580   5.469  19.622  0.00  0.00    +0.000 C 
ATOM      2  C   UNL     1       1.661   6.211  18.659  0.00  0.00    +0.000 C 
ATOM      3  C   UNL     1       2.593   7.192  17.970  0.00  0.00    +0.000 C 
ATOM      4  C   UNL     1       3.952   6.455  17.941  0.00  0.00    +0.000 C 
ATOM      5  N   UNL     1       3.806   5.212  18.795  0.00  0.00    +0.000 NA
ENDROOT
BRANCH   5   6
ATOM      6  S   UNL     1       3.778   3.724  17.944  0.00  0.00    +0.000 S 
ATOM      7  C   UNL     1       5.102   3.925  16.772  0.00  0.00    +0.000 C 
ATOM      8  O   UNL     1       4.183   2.678  18.857  0.00  0.00    +0.000 OA
ATOM      9  O   UNL     1       2.528   3.665  17.220  0.00  0.00    +0.000 OA
ENDBRANCH   5   6
BRANCH   1  10
ATOM     10  C   UNL     1       1.817   4.347  20.292  0.00  0.00    +0.000 C 
ATOM     11  O   UNL     1       0.728   3.924  19.921  0.00  0.00    +0.000 OA
BRANCH  10  13
ATOM     12  C   UNL     1       2.171   2.585  21.775  0.00  0.00    +0.000 C 
ATOM     13  O   UNL     1       2.468   3.935  21.420  0.00  0.00    +0.000 OA
ENDBRANCH  10  13
ENDBRANCH   1  10
BRANCH   3  14
ATOM     14  O   UNL     1       2.663   8.432  18.693  0.00  0.00    +0.000 OA
BRANCH  14  15
ATOM     15  S   UNL     1       1.618   9.606  18.215  0.00  0.00    +0.000 S 
ATOM     16  O   UNL     1       2.404  10.777  17.883  0.00  0.00    +0.000 OA
ATOM     17  O   UNL     1       0.698   9.021  17.260  0.00  0.00    +0.000 OA
BRANCH  15  18
ATOM     18  C   UNL     1       0.606  10.039  19.599  0.00  0.00    +0.000 A 
ATOM     19  C   UNL     1       0.643   9.186  20.710  0.00  0.00    +0.000 A 
ATOM     20  C   UNL     1      -0.023   9.542  21.878  0.00  0.00    +0.000 A 
ATOM     21  C   UNL     1      -0.731  10.747  21.943  0.00  0.00    +0.000 A 
ATOM     22  C   UNL     1      -1.422  11.151  23.213  0.00  0.00    +0.000 C 
ATOM     23  C   UNL     1      -0.775  11.584  20.815  0.00  0.00    +0.000 A 
ATOM     24  C   UNL     1      -0.107  11.234  19.636  0.00  0.00    +0.000 A 
ENDBRANCH  15  18
ENDBRANCH  14  15
ENDBRANCH   3  14
TORSDOF 6
ENDMDL
MODEL 8
REMARK VINA RESULT:      -7.0      3.532      7.609
REMARK  Name = 
REMARK  9 active torsions:
REMARK  status: ('A' for Active; 'I' for Inactive)
REMARK    1  A    between atoms: C_1  and  O_2
REMARK    2  A    between atoms: O_2  and  C_3
REMARK    3  A    between atoms: C_3  and  C_5
REMARK    4  A    between atoms: C_7  and  O_8
REMARK    5  A    between atoms: O_8  and  S_9
REMARK    6  A    between atoms: S_9  and  C_12
REMARK    7  A    between atoms: C_15  and  C_16
REMARK    8  A    between atoms: N_20  and  S_21
REMARK    9  A    between atoms: S_21  and  C_22
REMARK                            x       y       z     vdW  Elec       q    Type
REMARK                         _______ _______ _______ _____ _____    ______ ____
ROOT
ATOM      1  C   UNL     1       3.985   6.682  16.986  0.00  0.00    +0.000 C 
ATOM      2  C   UNL     1       3.857   7.674  18.135  0.00  0.00    +0.000 C 
ATOM      3  C   UNL     1       2.443   7.444  18.642  0.00  0.00    +0.000 C 
ATOM      4  C   UNL     1       2.193   5.942  18.373  0.00  0.00    +0.000 C 
ATOM      5  N   UNL     1       3.351   5.437  17.537  0.00  0.00    +0.000 NA
ENDROOT
BRANCH   5   6
ATOM      6  S   UNL     1       4.447   4.390  18.338  0.00  0.00    +0.000 S 
ATOM      7  C   UNL     1       3.363   3.173  19.052  0.00  0.00    +0.000 C 
ATOM      8  O   UNL     1       5.233   3.710  17.332  0.00  0.00    +0.000 OA
ATOM      9  O   UNL     1       5.060   5.144  19.408  0.00  0.00    +0.000 OA
ENDBRANCH   5   6
BRANCH   1  10
ATOM     10  C   UNL     1       5.403   6.693  16.459  0.00  0.00    +0.000 C 
ATOM     11  O   UNL     1       5.769   6.140  15.428  0.00  0.00    +0.000 OA
BRANCH  10  13
ATOM     12  C   UNL     1       7.555   6.785  17.350  0.00  0.00    +0.000 C 
ATOM     13  O   UNL     1       6.234   7.327  17.338  0.00  0.00    +0.000 OA
ENDBRANCH  10  13
ENDBRANCH   1  10
BRANCH   3  14
ATOM     14  O   UNL     1       1.504   8.283  17.951  0.00  0.00    +0.000 OA
BRANCH  14  15
ATOM     15  S   UNL     1       1.157   9.720  18.668  0.00  0.00    +0.000 S 
ATOM     16  O   UNL     1       1.227   9.517  20.102  0.00  0.00    +0.000 OA
ATOM     17  O   UNL     1       1.942  10.747  18.013  0.00  0.00    +0.000 OA
BRANCH  15  18
ATOM     18  C   UNL     1      -0.521  10.133  18.289  0.00  0.00    +0.000 A 
ATOM     19  C   UNL     1      -1.138  11.100  19.092  0.00  0.00    +0.000 A 
ATOM     20  C   UNL     1      -2.407  11.566  18.761  0.00  0.00    +0.000 A 
ATOM     21  C   UNL     1      -3.066  11.068  17.633  0.00  0.00    +0.000 A 
ATOM     22  C   UNL     1      -4.420  11.593  17.254  0.00  0.00    +0.000 C 
ATOM     23  C   UNL     1      -2.442  10.083  16.846  0.00  0.00    +0.000 A 
ATOM     24  C   UNL     1      -1.166   9.610  17.171  0.00  0.00    +0.000 A 
ENDBRANCH  15  18
ENDBRANCH  14  15
ENDBRANCH   3  14
TORSDOF 6
ENDMDL
MODEL 9
REMARK VINA RESULT:      -7.0      3.150      7.649
REMARK  Name = 
REMARK  9 active torsions:
REMARK  status: ('A' for Active; 'I' for Inactive)
REMARK    1  A    between atoms: C_1  and  O_2
REMARK    2  A    between atoms: O_2  and  C_3
REMARK    3  A    between atoms: C_3  and  C_5
REMARK    4  A    between atoms: C_7  and  O_8
REMARK    5  A    between atoms: O_8  and  S_9
REMARK    6  A    between atoms: S_9  and  C_12
REMARK    7  A    between atoms: C_15  and  C_16
REMARK    8  A    between atoms: N_20  and  S_21
REMARK    9  A    between atoms: S_21  and  C_22
REMARK                            x       y       z     vdW  Elec       q    Type
REMARK                         _______ _______ _______ _____ _____    ______ ____
ROOT
ATOM      1  C   UNL     1       5.217   5.946  18.640  0.00  0.00    +0.000 C 
ATOM      2  C   UNL     1       3.712   5.775  18.814  0.00  0.00    +0.000 C 
ATOM      3  C   UNL     1       3.130   6.853  17.916  0.00  0.00    +0.000 C 
ATOM      4  C   UNL     1       4.158   6.975  16.768  0.00  0.00    +0.000 C 
ATOM      5  N   UNL     1       5.368   6.151  17.161  0.00  0.00    +0.000 NA
ENDROOT
BRANCH   5   6
ATOM      6  S   UNL     1       5.602   4.703  16.274  0.00  0.00    +0.000 S 
ATOM      7  C   UNL     1       5.609   5.279  14.590  0.00  0.00    +0.000 C 
ATOM      8  O   UNL     1       6.935   4.217  16.554  0.00  0.00    +0.000 OA
ATOM      9  O   UNL     1       4.430   3.881  16.473  0.00  0.00    +0.000 OA
ENDBRANCH   5   6
BRANCH   1  10
ATOM     10  C   UNL     1       5.944   4.841  19.374  0.00  0.00    +0.000 C 
ATOM     11  O   UNL     1       5.576   3.672  19.417  0.00  0.00    +0.000 OA
BRANCH  10  13
ATOM     12  C   UNL     1       8.091   5.729  19.200  0.00  0.00    +0.000 C 
ATOM     13  O   UNL     1       7.014   5.344  20.055  0.00  0.00    +0.000 OA
ENDBRANCH  10  13
ENDBRANCH   1  10
BRANCH   3  14
ATOM     14  O   UNL     1       2.967   8.088  18.632  0.00  0.00    +0.000 OA
BRANCH  14  15
ATOM     15  S   UNL     1       1.738   9.055  18.130  0.00  0.00    +0.000 S 
ATOM     16  O   UNL     1       2.328  10.272  17.609  0.00  0.00    +0.000 OA
ATOM     17  O   UNL     1       0.837   8.251  17.328  0.00  0.00    +0.000 OA
BRANCH  15  18
ATOM     18  C   UNL     1       0.782   9.511  19.547  0.00  0.00    +0.000 A 
ATOM     19  C   UNL     1       1.001   8.786  20.725  0.00  0.00    +0.000 A 
ATOM     20  C   UNL     1       0.383   9.183  21.907  0.00  0.00    +0.000 A 
ATOM     21  C   UNL     1      -0.458  10.301  21.918  0.00  0.00    +0.000 A 
ATOM     22  C   UNL     1      -1.100  10.753  23.197  0.00  0.00    +0.000 C 
ATOM     23  C   UNL     1      -0.684  11.008  20.723  0.00  0.00    +0.000 A 
ATOM     24  C   UNL     1      -0.065  10.616  19.531  0.00  0.00    +0.000 A 
ENDBRANCH  15  18
ENDBRANCH  14  15
ENDBRANCH   3  14
TORSDOF 6
ENDMDL
