MODEL 1
REMARK VINA RESULT:      -8.9      0.000      0.000
REMARK  Name = 
REMARK  5 active torsions:
REMARK  status: ('A' for Active; 'I' for Inactive)
REMARK    1  A    between atoms: C_1  and  N_2
REMARK    2  A    between atoms: N_2  and  C_3
REMARK    3  A    between atoms: C_9  and  C_10
REMARK    4  A    between atoms: C_13  and  C_14
REMARK    5  A    between atoms: C_14  and  N_15
REMARK                            x       y       z     vdW  Elec       q    Type
REMARK                         _______ _______ _______ _____ _____    ______ ____
ROOT
ATOM      1  C   UNL     1       0.960   9.236  20.392  0.00  0.00    +0.000 A 
ATOM      2  C   UNL     1       1.093   9.784  19.116  0.00  0.00    +0.000 A 
ATOM      3  C   UNL     1       1.697   9.053  18.072  0.00  0.00    +0.000 A 
ATOM      4  C   UNL     1       2.409   7.884  18.325  0.00  0.00    +0.000 A 
ATOM      5  C   UNL     1       2.313   7.371  19.610  0.00  0.00    +0.000 A 
ATOM      6  C   UNL     1       1.616   8.029  20.620  0.00  0.00    +0.000 A 
ENDROOT
BRANCH   1  15
ATOM      7  C   UNL     1      -3.217  14.538  22.086  0.00  0.00    +0.000 C 
ATOM      8  N   UNL     1      -2.174  13.474  21.951  0.00  0.00    +0.000 N 
ATOM      9  C   UNL     1      -1.075  13.778  21.050  0.00  0.00    +0.000 C 
ATOM     10  C   UNL     1      -2.325  12.185  22.618  0.00  0.00    +0.000 C 
ATOM     11  O   UNL     1      -3.325  11.962  23.308  0.00  0.00    +0.000 OA
ATOM     12  N   UNL     1      -1.201  11.147  22.482  0.00  0.00    +0.000 N 
ATOM     13  N   UNL     1      -0.408  10.544  23.489  0.00  0.00    +0.000 NA
ATOM     14  N   UNL     1       0.457   9.718  22.849  0.00  0.00    +0.000 NA
ATOM     15  C   UNL     1       0.223   9.880  21.497  0.00  0.00    +0.000 A 
ATOM     16  N   UNL     1      -0.769  10.749  21.240  0.00  0.00    +0.000 NA
ENDBRANCH   1  15
BRANCH   4  17
ATOM     17  C   UNL     1       3.295   7.254  17.260  0.00  0.00    +0.000 C 
BRANCH  17  18
ATOM     18  N   UNL     1       3.702   5.863  17.588  0.00  0.00    +0.000 N 
ATOM     19  C   UNL     1       5.062   5.493  17.469  0.00  0.00    +0.000 A 
ATOM     20  C   UNL     1       5.152   4.142  17.609  0.00  0.00    +0.000 A 
ATOM     21  C   UNL     1       3.886   3.651  17.875  0.00  0.00    +0.000 A 
ATOM     22  C   UNL     1       3.523   2.361  18.131  0.00  0.00    +0.000 A 
ATOM     23  C   UNL     1       2.180   2.373  18.359  0.00  0.00    +0.000 A 
ATOM     24  C   UNL     1       0.962   2.329  18.568  0.00  0.00    +0.000 A 
ATOM     25  C   UNL     1       1.480   4.109  18.171  0.00  0.00    +0.000 A 
ATOM     26  C   UNL     1       2.939   4.683  17.882  0.00  0.00    +0.000 A 
ENDBRANCH  17  18
ENDBRANCH   4  17
TORSDOF 3
ENDMDL
MODEL 2
REMARK VINA RESULT:      -8.9      2.604      3.059
REMARK  Name = 
REMARK  5 active torsions:
REMARK  status: ('A' for Active; 'I' for Inactive)
REMARK    1  A    between atoms: C_1  and  N_2
REMARK    2  A    between atoms: N_2  and  C_3
REMARK    3  A    between atoms: C_9  and  C_10
REMARK    4  A    between atoms: C_13  and  C_14
REMARK    5  A    between atoms: C_14  and  N_15
REMARK                            x       y       z     vdW  Elec       q    Type
REMARK                         _______ _______ _______ _____ _____    ______ ____
ROOT
ATOM      1  C   UNL     1       1.063   9.517  18.907  0.00  0.00    +0.000 A 
ATOM      2  C   UNL     1       1.831   9.355  17.753  0.00  0.00    +0.000 A 
ATOM      3  C   UNL     1       2.646   8.217  17.577  0.00  0.00    +0.000 A 
ATOM      4  C   UNL     1       2.923   7.355  18.635  0.00  0.00    +0.000 A 
ATOM      5  C   UNL     1       2.191   7.553  19.797  0.00  0.00    +0.000 A 
ATOM      6  C   UNL     1       1.293   8.608  19.937  0.00  0.00    +0.000 A 
ENDROOT
BRANCH   1  15
ATOM      7  C   UNL     1      -5.246  11.863  17.141  0.00  0.00    +0.000 C 
ATOM      8  N   UNL     1      -3.806  11.622  17.468  0.00  0.00    +0.000 N 
ATOM      9  C   UNL     1      -3.000  11.064  16.396  0.00  0.00    +0.000 C 
ATOM     10  C   UNL     1      -3.293  11.854  18.814  0.00  0.00    +0.000 C 
ATOM     11  O   UNL     1      -4.052  12.255  19.702  0.00  0.00    +0.000 OA
ATOM     12  N   UNL     1      -1.796  11.634  19.081  0.00  0.00    +0.000 N 
ATOM     13  N   UNL     1      -0.821  12.554  19.540  0.00  0.00    +0.000 NA
ATOM     14  N   UNL     1       0.352  11.874  19.586  0.00  0.00    +0.000 NA
ATOM     15  C   UNL     1       0.087  10.605  19.106  0.00  0.00    +0.000 A 
ATOM     16  N   UNL     1      -1.205  10.431  18.780  0.00  0.00    +0.000 NA
ENDBRANCH   1  15
BRANCH   4  17
ATOM     17  C   UNL     1       4.018   6.304  18.529  0.00  0.00    +0.000 C 
BRANCH  17  18
ATOM     18  N   UNL     1       3.489   4.916  18.470  0.00  0.00    +0.000 N 
ATOM     19  C   UNL     1       3.499   4.223  17.238  0.00  0.00    +0.000 A 
ATOM     20  C   UNL     1       2.780   3.077  17.384  0.00  0.00    +0.000 A 
ATOM     21  C   UNL     1       2.362   2.995  18.701  0.00  0.00    +0.000 A 
ATOM     22  C   UNL     1       1.656   1.992  19.298  0.00  0.00    +0.000 A 
ATOM     23  C   UNL     1       1.507   2.345  20.605  0.00  0.00    +0.000 A 
ATOM     24  C   UNL     1       1.339   2.622  21.798  0.00  0.00    +0.000 A 
ATOM     25  C   UNL     1       2.284   4.025  20.942  0.00  0.00    +0.000 A 
ATOM     26  C   UNL     1       2.783   4.115  19.431  0.00  0.00    +0.000 A 
ENDBRANCH  17  18
ENDBRANCH   4  17
TORSDOF 3
ENDMDL
MODEL 3
REMARK VINA RESULT:      -8.8      2.712      3.772
REMARK  Name = 
REMARK  5 active torsions:
REMARK  status: ('A' for Active; 'I' for Inactive)
REMARK    1  A    between atoms: C_1  and  N_2
REMARK    2  A    between atoms: N_2  and  C_3
REMARK    3  A    between atoms: C_9  and  C_10
REMARK    4  A    between atoms: C_13  and  C_14
REMARK    5  A    between atoms: C_14  and  N_15
REMARK                            x       y       z     vdW  Elec       q    Type
REMARK                         _______ _______ _______ _____ _____    ______ ____
ROOT
ATOM      1  C   UNL     1       1.747   8.685  18.967  0.00  0.00    +0.000 A 
ATOM      2  C   UNL     1       2.571   8.195  17.953  0.00  0.00    +0.000 A 
ATOM      3  C   UNL     1       3.117   6.896  18.027  0.00  0.00    +0.000 A 
ATOM      4  C   UNL     1       3.079   6.161  19.208  0.00  0.00    +0.000 A 
ATOM      5  C   UNL     1       2.297   6.680  20.230  0.00  0.00    +0.000 A 
ATOM      6  C   UNL     1       1.655   7.911  20.121  0.00  0.00    +0.000 A 
ENDROOT
BRANCH   1  15
ATOM      7  C   UNL     1      -4.485  11.671  18.142  0.00  0.00    +0.000 C 
ATOM      8  N   UNL     1      -3.059  11.218  18.130  0.00  0.00    +0.000 N 
ATOM      9  C   UNL     1      -2.761  10.092  17.262  0.00  0.00    +0.000 C 
ATOM     10  C   UNL     1      -2.070  11.827  19.015  0.00  0.00    +0.000 C 
ATOM     11  O   UNL     1      -2.408  12.730  19.787  0.00  0.00    +0.000 OA
ATOM     12  N   UNL     1      -0.611  11.355  18.926  0.00  0.00    +0.000 N 
ATOM     13  N   UNL     1       0.556  12.096  18.618  0.00  0.00    +0.000 NA
ATOM     14  N   UNL     1       1.585  11.214  18.646  0.00  0.00    +0.000 NA
ATOM     15  C   UNL     1       1.031   9.974  18.901  0.00  0.00    +0.000 A 
ATOM     16  N   UNL     1      -0.302  10.023  19.065  0.00  0.00    +0.000 NA
ENDBRANCH   1  15
BRANCH   4  17
ATOM     17  C   UNL     1       3.909   4.897  19.377  0.00  0.00    +0.000 C 
BRANCH  17  18
ATOM     18  N   UNL     1       5.191   4.937  18.627  0.00  0.00    +0.000 N 
ATOM     19  C   UNL     1       6.349   5.444  19.262  0.00  0.00    +0.000 A 
ATOM     20  C   UNL     1       7.326   5.581  18.325  0.00  0.00    +0.000 A 
ATOM     21  C   UNL     1       6.836   5.114  17.118  0.00  0.00    +0.000 A 
ATOM     22  C   UNL     1       7.490   5.020  15.925  0.00  0.00    +0.000 A 
ATOM     23  C   UNL     1       6.609   4.478  15.039  0.00  0.00    +0.000 A 
ATOM     24  C   UNL     1       5.846   3.995  14.195  0.00  0.00    +0.000 A 
ATOM     25  C   UNL     1       4.940   4.171  15.851  0.00  0.00    +0.000 A 
ATOM     26  C   UNL     1       5.507   4.691  17.248  0.00  0.00    +0.000 A 
ENDBRANCH  17  18
ENDBRANCH   4  17
TORSDOF 3
ENDMDL
MODEL 4
REMARK VINA RESULT:      -8.6      2.616      3.305
REMARK  Name = 
REMARK  5 active torsions:
REMARK  status: ('A' for Active; 'I' for Inactive)
REMARK    1  A    between atoms: C_1  and  N_2
REMARK    2  A    between atoms: N_2  and  C_3
REMARK    3  A    between atoms: C_9  and  C_10
REMARK    4  A    between atoms: C_13  and  C_14
REMARK    5  A    between atoms: C_14  and  N_15
REMARK                            x       y       z     vdW  Elec       q    Type
REMARK                         _______ _______ _______ _____ _____    ______ ____
ROOT
ATOM      1  C   UNL     1       1.336   9.282  18.873  0.00  0.00    +0.000 A 
ATOM      2  C   UNL     1       1.501   8.267  19.816  0.00  0.00    +0.000 A 
ATOM      3  C   UNL     1       2.537   7.318  19.687  0.00  0.00    +0.000 A 
ATOM      4  C   UNL     1       3.260   7.193  18.505  0.00  0.00    +0.000 A 
ATOM      5  C   UNL     1       3.055   8.179  17.551  0.00  0.00    +0.000 A 
ATOM      6  C   UNL     1       2.114   9.191  17.722  0.00  0.00    +0.000 A 
ENDROOT
BRANCH   1  15
ATOM      7  C   UNL     1      -4.883  11.642  16.827  0.00  0.00    +0.000 C 
ATOM      8  N   UNL     1      -3.458  11.395  17.209  0.00  0.00    +0.000 N 
ATOM      9  C   UNL     1      -2.623  10.796  16.182  0.00  0.00    +0.000 C 
ATOM     10  C   UNL     1      -2.987  11.662  18.564  0.00  0.00    +0.000 C 
ATOM     11  O   UNL     1      -3.770  12.098  19.414  0.00  0.00    +0.000 OA
ATOM     12  N   UNL     1      -1.502  11.435  18.888  0.00  0.00    +0.000 N 
ATOM     13  N   UNL     1      -0.532  12.357  19.352  0.00  0.00    +0.000 NA
ATOM     14  N   UNL     1       0.630  11.666  19.457  0.00  0.00    +0.000 NA
ATOM     15  C   UNL     1       0.366  10.387  19.007  0.00  0.00    +0.000 A 
ATOM     16  N   UNL     1      -0.916  10.217  18.643  0.00  0.00    +0.000 NA
ENDBRANCH   1  15
BRANCH   4  17
ATOM     17  C   UNL     1       4.170   5.998  18.260  0.00  0.00    +0.000 C 
BRANCH  17  18
ATOM     18  N   UNL     1       3.444   4.701  18.271  0.00  0.00    +0.000 N 
ATOM     19  C   UNL     1       3.216   4.024  17.051  0.00  0.00    +0.000 A 
ATOM     20  C   UNL     1       2.360   2.993  17.285  0.00  0.00    +0.000 A 
ATOM     21  C   UNL     1       2.085   2.961  18.641  0.00  0.00    +0.000 A 
ATOM     22  C   UNL     1       1.313   2.064  19.320  0.00  0.00    +0.000 A 
ATOM     23  C   UNL     1       1.363   2.424  20.634  0.00  0.00    +0.000 A 
ATOM     24  C   UNL     1       1.371   2.712  21.836  0.00  0.00    +0.000 A 
ATOM     25  C   UNL     1       2.406   3.971  20.868  0.00  0.00    +0.000 A 
ATOM     26  C   UNL     1       2.741   4.002  19.311  0.00  0.00    +0.000 A 
ENDBRANCH  17  18
ENDBRANCH   4  17
TORSDOF 3
ENDMDL
MODEL 5
REMARK VINA RESULT:      -8.5      2.125      3.438
REMARK  Name = 
REMARK  5 active torsions:
REMARK  status: ('A' for Active; 'I' for Inactive)
REMARK    1  A    between atoms: C_1  and  N_2
REMARK    2  A    between atoms: N_2  and  C_3
REMARK    3  A    between atoms: C_9  and  C_10
REMARK    4  A    between atoms: C_13  and  C_14
REMARK    5  A    between atoms: C_14  and  N_15
REMARK                            x       y       z     vdW  Elec       q    Type
REMARK                         _______ _______ _______ _____ _____    ______ ____
ROOT
ATOM      1  C   UNL     1       1.753   7.560  20.091  0.00  0.00    +0.000 A 
ATOM      2  C   UNL     1       2.346   7.533  18.829  0.00  0.00    +0.000 A 
ATOM      3  C   UNL     1       2.732   6.314  18.234  0.00  0.00    +0.000 A 
ATOM      4  C   UNL     1       2.782   5.134  18.970  0.00  0.00    +0.000 A 
ATOM      5  C   UNL     1       2.234   5.179  20.243  0.00  0.00    +0.000 A 
ATOM      6  C   UNL     1       1.741   6.359  20.796  0.00  0.00    +0.000 A 
ENDROOT
BRANCH   1  15
ATOM      7  C   UNL     1      -0.185  14.148  18.964  0.00  0.00    +0.000 C 
ATOM      8  N   UNL     1       0.366  12.837  19.429  0.00  0.00    +0.000 N 
ATOM      9  C   UNL     1       1.595  12.406  18.786  0.00  0.00    +0.000 C 
ATOM     10  C   UNL     1      -0.356  12.021  20.400  0.00  0.00    +0.000 C 
ATOM     11  O   UNL     1      -1.438  12.412  20.850  0.00  0.00    +0.000 OA
ATOM     12  N   UNL     1       0.280  10.707  20.878  0.00  0.00    +0.000 N 
ATOM     13  N   UNL     1       0.647  10.309  22.187  0.00  0.00    +0.000 NA
ATOM     14  N   UNL     1       1.190   9.072  22.071  0.00  0.00    +0.000 NA
ATOM     15  C   UNL     1       1.201   8.775  20.722  0.00  0.00    +0.000 A 
ATOM     16  N   UNL     1       0.666   9.751  19.969  0.00  0.00    +0.000 NA
ENDBRANCH   1  15
BRANCH   4  17
ATOM     17  C   UNL     1       3.464   3.890  18.419  0.00  0.00    +0.000 C 
BRANCH  17  18
ATOM     18  N   UNL     1       4.842   4.150  17.929  0.00  0.00    +0.000 N 
ATOM     19  C   UNL     1       5.830   4.588  18.840  0.00  0.00    +0.000 A 
ATOM     20  C   UNL     1       6.931   4.962  18.132  0.00  0.00    +0.000 A 
ATOM     21  C   UNL     1       6.688   4.712  16.793  0.00  0.00    +0.000 A 
ATOM     22  C   UNL     1       7.533   4.892  15.737  0.00  0.00    +0.000 A 
ATOM     23  C   UNL     1       6.860   4.484  14.625  0.00  0.00    +0.000 A 
ATOM     24  C   UNL     1       6.291   4.133  13.585  0.00  0.00    +0.000 A 
ATOM     25  C   UNL     1       5.116   3.929  15.059  0.00  0.00    +0.000 A 
ATOM     26  C   UNL     1       5.399   4.197  16.605  0.00  0.00    +0.000 A 
ENDBRANCH  17  18
ENDBRANCH   4  17
TORSDOF 3
ENDMDL
MODEL 6
REMARK VINA RESULT:      -8.5      2.134      3.451
REMARK  Name = 
REMARK  5 active torsions:
REMARK  status: ('A' for Active; 'I' for Inactive)
REMARK    1  A    between atoms: C_1  and  N_2
REMARK    2  A    between atoms: N_2  and  C_3
REMARK    3  A    between atoms: C_9  and  C_10
REMARK    4  A    between atoms: C_13  and  C_14
REMARK    5  A    between atoms: C_14  and  N_15
REMARK                            x       y       z     vdW  Elec       q    Type
REMARK                         _______ _______ _______ _____ _____    ______ ____
ROOT
ATOM      1  C   UNL     1       1.658   8.484  19.205  0.00  0.00    +0.000 A 
ATOM      2  C   UNL     1       2.462   8.056  18.149  0.00  0.00    +0.000 A 
ATOM      3  C   UNL     1       3.052   6.775  18.158  0.00  0.00    +0.000 A 
ATOM      4  C   UNL     1       3.076   5.998  19.312  0.00  0.00    +0.000 A 
ATOM      5  C   UNL     1       2.313   6.454  20.377  0.00  0.00    +0.000 A 
ATOM      6  C   UNL     1       1.629   7.666  20.333  0.00  0.00    +0.000 A 
ENDROOT
BRANCH   1  15
ATOM      7  C   UNL     1      -1.123  13.411  23.257  0.00  0.00    +0.000 C 
ATOM      8  N   UNL     1      -0.774  12.357  22.255  0.00  0.00    +0.000 N 
ATOM      9  C   UNL     1      -0.944  10.984  22.697  0.00  0.00    +0.000 C 
ATOM     10  C   UNL     1      -0.211  12.713  20.956  0.00  0.00    +0.000 C 
ATOM     11  O   UNL     1      -0.017  13.900  20.673  0.00  0.00    +0.000 OA
ATOM     12  N   UNL     1       0.085  11.593  19.948  0.00  0.00    +0.000 N 
ATOM     13  N   UNL     1      -0.433  11.397  18.644  0.00  0.00    +0.000 NA
ATOM     14  N   UNL     1       0.123  10.250  18.181  0.00  0.00    +0.000 NA
ATOM     15  C   UNL     1       0.899   9.750  19.209  0.00  0.00    +0.000 A 
ATOM     16  N   UNL     1       0.888  10.535  20.300  0.00  0.00    +0.000 NA
ENDBRANCH   1  15
BRANCH   4  17
ATOM     17  C   UNL     1       3.951   4.756  19.408  0.00  0.00    +0.000 C 
BRANCH  17  18
ATOM     18  N   UNL     1       5.219   4.876  18.643  0.00  0.00    +0.000 N 
ATOM     19  C   UNL     1       6.355   5.440  19.267  0.00  0.00    +0.000 A 
ATOM     20  C   UNL     1       7.310   5.641  18.320  0.00  0.00    +0.000 A 
ATOM     21  C   UNL     1       6.830   5.160  17.114  0.00  0.00    +0.000 A 
ATOM     22  C   UNL     1       7.472   5.115  15.912  0.00  0.00    +0.000 A 
ATOM     23  C   UNL     1       6.610   4.535  15.031  0.00  0.00    +0.000 A 
ATOM     24  C   UNL     1       5.864   4.019  14.191  0.00  0.00    +0.000 A 
ATOM     25  C   UNL     1       4.973   4.127  15.862  0.00  0.00    +0.000 A 
ATOM     26  C   UNL     1       5.528   4.662  17.256  0.00  0.00    +0.000 A 
ENDBRANCH  17  18
ENDBRANCH   4  17
TORSDOF 3
ENDMDL
MODEL 7
REMARK VINA RESULT:      -8.5      3.899      8.981
REMARK  Name = 
REMARK  5 active torsions:
REMARK  status: ('A' for Active; 'I' for Inactive)
REMARK    1  A    between atoms: C_1  and  N_2
REMARK    2  A    between atoms: N_2  and  C_3
REMARK    3  A    between atoms: C_9  and  C_10
REMARK    4  A    between atoms: C_13  and  C_14
REMARK    5  A    between atoms: C_14  and  N_15
REMARK                            x       y       z     vdW  Elec       q    Type
REMARK                         _______ _______ _______ _____ _____    ______ ____
ROOT
ATOM      1  C   UNL     1       1.946   8.021  19.122  0.00  0.00    +0.000 A 
ATOM      2  C   UNL     1       1.357   8.553  20.270  0.00  0.00    +0.000 A 
ATOM      3  C   UNL     1       0.601   9.743  20.213  0.00  0.00    +0.000 A 
ATOM      4  C   UNL     1       0.627  10.563  19.089  0.00  0.00    +0.000 A 
ATOM      5  C   UNL     1       1.257  10.048  17.965  0.00  0.00    +0.000 A 
ATOM      6  C   UNL     1       1.907   8.817  17.980  0.00  0.00    +0.000 A 
ENDROOT
BRANCH   1  15
ATOM      7  C   UNL     1       7.213   4.500  16.245  0.00  0.00    +0.000 C 
ATOM      8  N   UNL     1       5.929   5.030  16.799  0.00  0.00    +0.000 N 
ATOM      9  C   UNL     1       5.168   5.893  15.913  0.00  0.00    +0.000 C 
ATOM     10  C   UNL     1       5.536   4.756  18.177  0.00  0.00    +0.000 C 
ATOM     11  O   UNL     1       6.270   4.078  18.904  0.00  0.00    +0.000 OA
ATOM     12  N   UNL     1       4.184   5.286  18.679  0.00  0.00    +0.000 N 
ATOM     13  N   UNL     1       3.072   4.571  19.186  0.00  0.00    +0.000 NA
ATOM     14  N   UNL     1       2.120   5.496  19.465  0.00  0.00    +0.000 NA
ATOM     15  C   UNL     1       2.635   6.717  19.073  0.00  0.00    +0.000 A 
ATOM     16  N   UNL     1       3.882   6.623  18.581  0.00  0.00    +0.000 NA
ENDBRANCH   1  15
BRANCH   4  17
ATOM     17  C   UNL     1       0.052  11.972  19.128  0.00  0.00    +0.000 C 
BRANCH  17  18
ATOM     18  N   UNL     1      -1.412  12.011  18.877  0.00  0.00    +0.000 N 
ATOM     19  C   UNL     1      -2.276  12.482  19.892  0.00  0.00    +0.000 A 
ATOM     20  C   UNL     1      -3.559  12.222  19.519  0.00  0.00    +0.000 A 
ATOM     21  C   UNL     1      -3.534  11.650  18.259  0.00  0.00    +0.000 A 
ATOM     22  C   UNL     1      -4.593  11.275  17.485  0.00  0.00    +0.000 A 
ATOM     23  C   UNL     1      -4.073  10.789  16.323  0.00  0.00    +0.000 A 
ATOM     24  C   UNL     1      -3.653  10.333  15.254  0.00  0.00    +0.000 A 
ATOM     25  C   UNL     1      -2.193  10.823  16.360  0.00  0.00    +0.000 A 
ATOM     26  C   UNL     1      -2.217  11.500  17.803  0.00  0.00    +0.000 A 
ENDBRANCH  17  18
ENDBRANCH   4  17
TORSDOF 3
ENDMDL
MODEL 8
REMARK VINA RESULT:      -8.5      1.774      3.294
REMARK  Name = 
REMARK  5 active torsions:
REMARK  status: ('A' for Active; 'I' for Inactive)
REMARK    1  A    between atoms: C_1  and  N_2
REMARK    2  A    between atoms: N_2  and  C_3
REMARK    3  A    between atoms: C_9  and  C_10
REMARK    4  A    between atoms: C_13  and  C_14
REMARK    5  A    between atoms: C_14  and  N_15
REMARK                            x       y       z     vdW  Elec       q    Type
REMARK                         _______ _______ _______ _____ _____    ______ ____
ROOT
ATOM      1  C   UNL     1       1.186   9.323  19.996  0.00  0.00    +0.000 A 
ATOM      2  C   UNL     1       1.464   8.118  20.640  0.00  0.00    +0.000 A 
ATOM      3  C   UNL     1       2.124   7.070  19.965  0.00  0.00    +0.000 A 
ATOM      4  C   UNL     1       2.288   7.089  18.583  0.00  0.00    +0.000 A 
ATOM      5  C   UNL     1       1.962   8.275  17.942  0.00  0.00    +0.000 A 
ATOM      6  C   UNL     1       1.418   9.361  18.623  0.00  0.00    +0.000 A 
ENDROOT
BRANCH   1  15
ATOM      7  C   UNL     1      -4.552  13.171  20.834  0.00  0.00    +0.000 C 
ATOM      8  N   UNL     1      -3.191  12.591  20.614  0.00  0.00    +0.000 N 
ATOM      9  C   UNL     1      -2.910  12.134  19.264  0.00  0.00    +0.000 C 
ATOM     10  C   UNL     1      -2.258  12.421  21.723  0.00  0.00    +0.000 C 
ATOM     11  O   UNL     1      -2.591  12.759  22.864  0.00  0.00    +0.000 OA
ATOM     12  N   UNL     1      -0.857  11.864  21.432  0.00  0.00    +0.000 N 
ATOM     13  N   UNL     1       0.410  12.456  21.658  0.00  0.00    +0.000 NA
ATOM     14  N   UNL     1       1.331  11.569  21.204  0.00  0.00    +0.000 NA
ATOM     15  C   UNL     1       0.622  10.511  20.668  0.00  0.00    +0.000 A 
ATOM     16  N   UNL     1      -0.708  10.664  20.779  0.00  0.00    +0.000 NA
ENDBRANCH   1  15
BRANCH   4  17
ATOM     17  C   UNL     1       2.734   5.847  17.825  0.00  0.00    +0.000 C 
BRANCH  17  18
ATOM     18  N   UNL     1       4.131   5.447  18.134  0.00  0.00    +0.000 N 
ATOM     19  C   UNL     1       4.369   4.228  18.810  0.00  0.00    +0.000 A 
ATOM     20  C   UNL     1       5.681   4.185  19.168  0.00  0.00    +0.000 A 
ATOM     21  C   UNL     1       6.299   5.323  18.680  0.00  0.00    +0.000 A 
ATOM     22  C   UNL     1       7.616   5.666  18.766  0.00  0.00    +0.000 A 
ATOM     23  C   UNL     1       7.752   6.857  18.118  0.00  0.00    +0.000 A 
ATOM     24  C   UNL     1       7.927   7.939  17.547  0.00  0.00    +0.000 A 
ATOM     25  C   UNL     1       6.093   7.465  17.474  0.00  0.00    +0.000 A 
ATOM     26  C   UNL     1       5.380   6.147  18.017  0.00  0.00    +0.000 A 
ENDBRANCH  17  18
ENDBRANCH   4  17
TORSDOF 3
ENDMDL
MODEL 9
REMARK VINA RESULT:      -8.5      0.492      1.049
REMARK  Name = 
REMARK  5 active torsions:
REMARK  status: ('A' for Active; 'I' for Inactive)
REMARK    1  A    between atoms: C_1  and  N_2
REMARK    2  A    between atoms: N_2  and  C_3
REMARK    3  A    between atoms: C_9  and  C_10
REMARK    4  A    between atoms: C_13  and  C_14
REMARK    5  A    between atoms: C_14  and  N_15
REMARK                            x       y       z     vdW  Elec       q    Type
REMARK                         _______ _______ _______ _____ _____    ______ ____
ROOT
ATOM      1  C   UNL     1       1.013   9.015  20.482  0.00  0.00    +0.000 A 
ATOM      2  C   UNL     1       1.656   7.785  20.618  0.00  0.00    +0.000 A 
ATOM      3  C   UNL     1       2.506   7.295  19.604  0.00  0.00    +0.000 A 
ATOM      4  C   UNL     1       2.533   7.875  18.339  0.00  0.00    +0.000 A 
ATOM      5  C   UNL     1       1.850   9.074  18.198  0.00  0.00    +0.000 A 
ATOM      6  C   UNL     1       1.103   9.627  19.235  0.00  0.00    +0.000 A 
ENDROOT
BRANCH   1  15
ATOM      7  C   UNL     1      -2.027  14.941  22.498  0.00  0.00    +0.000 C 
ATOM      8  N   UNL     1      -1.272  13.662  22.327  0.00  0.00    +0.000 N 
ATOM      9  C   UNL     1       0.046  13.782  21.727  0.00  0.00    +0.000 C 
ATOM     10  C   UNL     1      -1.881  12.379  22.662  0.00  0.00    +0.000 C 
ATOM     11  O   UNL     1      -3.038  12.341  23.095  0.00  0.00    +0.000 OA
ATOM     12  N   UNL     1      -1.042  11.101  22.511  0.00  0.00    +0.000 N 
ATOM     13  N   UNL     1      -0.676  10.145  23.490  0.00  0.00    +0.000 NA
ATOM     14  N   UNL     1       0.087   9.222  22.853  0.00  0.00    +0.000 NA
ATOM     15  C   UNL     1       0.219   9.657  21.549  0.00  0.00    +0.000 A 
ATOM     16  N   UNL     1      -0.444  10.801  21.311  0.00  0.00    +0.000 NA
ENDBRANCH   1  15
BRANCH   4  17
ATOM     17  C   UNL     1       3.221   7.186  17.170  0.00  0.00    +0.000 C 
BRANCH  17  18
ATOM     18  N   UNL     1       3.623   5.788  17.473  0.00  0.00    +0.000 N 
ATOM     19  C   UNL     1       4.963   5.390  17.259  0.00  0.00    +0.000 A 
ATOM     20  C   UNL     1       5.037   4.038  17.396  0.00  0.00    +0.000 A 
ATOM     21  C   UNL     1       3.784   3.572  17.754  0.00  0.00    +0.000 A 
ATOM     22  C   UNL     1       3.414   2.290  18.039  0.00  0.00    +0.000 A 
ATOM     23  C   UNL     1       2.091   2.329  18.362  0.00  0.00    +0.000 A 
ATOM     24  C   UNL     1       0.890   2.310  18.657  0.00  0.00    +0.000 A 
ATOM     25  C   UNL     1       1.414   4.078  18.218  0.00  0.00    +0.000 A 
ATOM     26  C   UNL     1       2.860   4.623  17.824  0.00  0.00    +0.000 A 
ENDBRANCH  17  18
ENDBRANCH   4  17
TORSDOF 3
ENDMDL
