MODEL 1
REMARK VINA RESULT:      -7.3      0.000      0.000
REMARK  Name = 
REMARK  5 active torsions:
REMARK  status: ('A' for Active; 'I' for Inactive)
REMARK    1  A    between atoms: C_1  and  O_2
REMARK    2  A    between atoms: O_2  and  C_3
REMARK    3  A    between atoms: C_9  and  O_10
REMARK    4  A    between atoms: O_10  and  C_11
REMARK    5  A    between atoms: C_11  and  C_12
REMARK                            x       y       z     vdW  Elec       q    Type
REMARK                         _______ _______ _______ _____ _____    ______ ____
ROOT
ATOM      1  C   UNL     1       6.042   6.008  16.773  0.00  0.00    +0.000 C 
ATOM      2  C   UNL     1       7.323   6.678  17.313  0.00  0.00    +0.000 C 
ATOM      3  O   UNL     1       7.987   7.492  16.671  0.00  0.00    +0.000 OA
ATOM      4  C   UNL     1       7.773   6.357  18.690  0.00  0.00    +0.000 C 
ATOM      5  C   UNL     1       7.085   5.511  19.454  0.00  0.00    +0.000 C 
ATOM      6  C   UNL     1       5.861   4.790  18.998  0.00  0.00    +0.000 C 
ATOM      7  C   UNL     1       5.752   4.653  17.468  0.00  0.00    +0.000 C 
ENDROOT
BRANCH   1   9
ATOM      8  C   UNL     1       6.767   4.887  14.759  0.00  0.00    +0.000 C 
ATOM      9  O   UNL     1       5.993   5.924  15.343  0.00  0.00    +0.000 OA
ENDBRANCH   1   9
BRANCH   7  10
ATOM     10  O   UNL     1       4.423   4.211  17.123  0.00  0.00    +0.000 OA
BRANCH  10  11
ATOM     11  C   UNL     1       3.396   5.110  17.539  0.00  0.00    +0.000 C 
BRANCH  11  12
ATOM     12  C   UNL     1       2.451   4.413  18.480  0.00  0.00    +0.000 A 
ATOM     13  C   UNL     1       2.179   4.948  19.744  0.00  0.00    +0.000 A 
ATOM     14  C   UNL     1       1.281   4.310  20.603  0.00  0.00    +0.000 A 
ATOM     15  C   UNL     1       0.653   3.130  20.209  0.00  0.00    +0.000 A 
ATOM     16  C   UNL     1       0.924   2.583  18.957  0.00  0.00    +0.000 A 
ATOM     17  C   UNL     1       1.823   3.218  18.098  0.00  0.00    +0.000 A 
ENDBRANCH  11  12
ENDBRANCH  10  11
ENDBRANCH   7  10
TORSDOF 4
ENDMDL
MODEL 2
REMARK VINA RESULT:      -7.1      1.708      2.867
REMARK  Name = 
REMARK  5 active torsions:
REMARK  status: ('A' for Active; 'I' for Inactive)
REMARK    1  A    between atoms: C_1  and  O_2
REMARK    2  A    between atoms: O_2  and  C_3
REMARK    3  A    between atoms: C_9  and  O_10
REMARK    4  A    between atoms: O_10  and  C_11
REMARK    5  A    between atoms: C_11  and  C_12
REMARK                            x       y       z     vdW  Elec       q    Type
REMARK                         _______ _______ _______ _____ _____    ______ ____
ROOT
ATOM      1  C   UNL     1       6.193   4.925  18.298  0.00  0.00    +0.000 C 
ATOM      2  C   UNL     1       7.295   4.539  17.289  0.00  0.00    +0.000 C 
ATOM      3  O   UNL     1       8.357   4.005  17.612  0.00  0.00    +0.000 OA
ATOM      4  C   UNL     1       7.064   4.790  15.845  0.00  0.00    +0.000 C 
ATOM      5  C   UNL     1       5.925   5.334  15.420  0.00  0.00    +0.000 C 
ATOM      6  C   UNL     1       4.827   5.773  16.329  0.00  0.00    +0.000 C 
ATOM      7  C   UNL     1       5.288   6.067  17.769  0.00  0.00    +0.000 C 
ENDROOT
BRANCH   1   9
ATOM      8  C   UNL     1       7.874   5.940  19.707  0.00  0.00    +0.000 C 
ATOM      9  O   UNL     1       6.684   5.171  19.622  0.00  0.00    +0.000 OA
ENDBRANCH   1   9
BRANCH   7  10
ATOM     10  O   UNL     1       4.132   6.197  18.623  0.00  0.00    +0.000 OA
BRANCH  10  11
ATOM     11  C   UNL     1       2.945   5.637  18.066  0.00  0.00    +0.000 C 
BRANCH  11  12
ATOM     12  C   UNL     1       2.309   4.692  19.051  0.00  0.00    +0.000 A 
ATOM     13  C   UNL     1       1.394   3.723  18.622  0.00  0.00    +0.000 A 
ATOM     14  C   UNL     1       0.827   2.834  19.536  0.00  0.00    +0.000 A 
ATOM     15  C   UNL     1       1.164   2.908  20.887  0.00  0.00    +0.000 A 
ATOM     16  C   UNL     1       2.065   3.875  21.326  0.00  0.00    +0.000 A 
ATOM     17  C   UNL     1       2.632   4.767  20.414  0.00  0.00    +0.000 A 
ENDBRANCH  11  12
ENDBRANCH  10  11
ENDBRANCH   7  10
TORSDOF 4
ENDMDL
MODEL 3
REMARK VINA RESULT:      -7.1      1.629      2.747
REMARK  Name = 
REMARK  5 active torsions:
REMARK  status: ('A' for Active; 'I' for Inactive)
REMARK    1  A    between atoms: C_1  and  O_2
REMARK    2  A    between atoms: O_2  and  C_3
REMARK    3  A    between atoms: C_9  and  O_10
REMARK    4  A    between atoms: O_10  and  C_11
REMARK    5  A    between atoms: C_11  and  C_12
REMARK                            x       y       z     vdW  Elec       q    Type
REMARK                         _______ _______ _______ _____ _____    ______ ____
ROOT
ATOM      1  C   UNL     1       5.946   5.183  18.790  0.00  0.00    +0.000 C 
ATOM      2  C   UNL     1       7.321   5.674  19.291  0.00  0.00    +0.000 C 
ATOM      3  O   UNL     1       7.905   5.188  20.260  0.00  0.00    +0.000 OA
ATOM      4  C   UNL     1       8.000   6.771  18.558  0.00  0.00    +0.000 C 
ATOM      5  C   UNL     1       7.441   7.322  17.481  0.00  0.00    +0.000 C 
ATOM      6  C   UNL     1       6.100   6.935  16.955  0.00  0.00    +0.000 C 
ATOM      7  C   UNL     1       5.183   6.279  18.004  0.00  0.00    +0.000 C 
ENDROOT
BRANCH   1   9
ATOM      8  C   UNL     1       4.857   3.192  19.621  0.00  0.00    +0.000 C 
ATOM      9  O   UNL     1       5.146   4.569  19.809  0.00  0.00    +0.000 OA
ENDBRANCH   1   9
BRANCH   7  10
ATOM     10  O   UNL     1       4.046   5.689  17.340  0.00  0.00    +0.000 OA
BRANCH  10  11
ATOM     11  C   UNL     1       2.791   6.161  17.828  0.00  0.00    +0.000 C 
BRANCH  11  12
ATOM     12  C   UNL     1       2.073   5.058  18.557  0.00  0.00    +0.000 A 
ATOM     13  C   UNL     1       1.686   3.892  17.885  0.00  0.00    +0.000 A 
ATOM     14  C   UNL     1       1.043   2.861  18.572  0.00  0.00    +0.000 A 
ATOM     15  C   UNL     1       0.775   2.988  19.935  0.00  0.00    +0.000 A 
ATOM     16  C   UNL     1       1.147   4.148  20.610  0.00  0.00    +0.000 A 
ATOM     17  C   UNL     1       1.788   5.180  19.925  0.00  0.00    +0.000 A 
ENDBRANCH  11  12
ENDBRANCH  10  11
ENDBRANCH   7  10
TORSDOF 4
ENDMDL
MODEL 4
REMARK VINA RESULT:      -7.0      1.590      2.427
REMARK  Name = 
REMARK  5 active torsions:
REMARK  status: ('A' for Active; 'I' for Inactive)
REMARK    1  A    between atoms: C_1  and  O_2
REMARK    2  A    between atoms: O_2  and  C_3
REMARK    3  A    between atoms: C_9  and  O_10
REMARK    4  A    between atoms: O_10  and  C_11
REMARK    5  A    between atoms: C_11  and  C_12
REMARK                            x       y       z     vdW  Elec       q    Type
REMARK                         _______ _______ _______ _____ _____    ______ ____
ROOT
ATOM      1  C   UNL     1       6.042   5.073  18.704  0.00  0.00    +0.000 C 
ATOM      2  C   UNL     1       7.399   5.645  19.166  0.00  0.00    +0.000 C 
ATOM      3  O   UNL     1       8.067   5.158  20.079  0.00  0.00    +0.000 OA
ATOM      4  C   UNL     1       7.955   6.827  18.463  0.00  0.00    +0.000 C 
ATOM      5  C   UNL     1       7.303   7.385  17.444  0.00  0.00    +0.000 C 
ATOM      6  C   UNL     1       5.970   6.921  16.960  0.00  0.00    +0.000 C 
ATOM      7  C   UNL     1       5.159   6.144  18.013  0.00  0.00    +0.000 C 
ENDROOT
BRANCH   1   9
ATOM      8  C   UNL     1       4.933   3.034  19.377  0.00  0.00    +0.000 C 
ATOM      9  O   UNL     1       5.344   4.348  19.724  0.00  0.00    +0.000 OA
ENDBRANCH   1   9
BRANCH   7  10
ATOM     10  O   UNL     1       4.038   5.500  17.372  0.00  0.00    +0.000 OA
BRANCH  10  11
ATOM     11  C   UNL     1       2.772   5.979  17.821  0.00  0.00    +0.000 C 
BRANCH  11  12
ATOM     12  C   UNL     1       2.077   4.918  18.631  0.00  0.00    +0.000 A 
ATOM     13  C   UNL     1       1.945   5.052  20.018  0.00  0.00    +0.000 A 
ATOM     14  C   UNL     1       1.277   4.077  20.761  0.00  0.00    +0.000 A 
ATOM     15  C   UNL     1       0.740   2.957  20.126  0.00  0.00    +0.000 A 
ATOM     16  C   UNL     1       0.875   2.810  18.748  0.00  0.00    +0.000 A 
ATOM     17  C   UNL     1       1.544   3.782  18.003  0.00  0.00    +0.000 A 
ENDBRANCH  11  12
ENDBRANCH  10  11
ENDBRANCH   7  10
TORSDOF 4
ENDMDL
MODEL 5
REMARK VINA RESULT:      -7.0      1.092      1.185
REMARK  Name = 
REMARK  5 active torsions:
REMARK  status: ('A' for Active; 'I' for Inactive)
REMARK    1  A    between atoms: C_1  and  O_2
REMARK    2  A    between atoms: O_2  and  C_3
REMARK    3  A    between atoms: C_9  and  O_10
REMARK    4  A    between atoms: O_10  and  C_11
REMARK    5  A    between atoms: C_11  and  C_12
REMARK                            x       y       z     vdW  Elec       q    Type
REMARK                         _______ _______ _______ _____ _____    ______ ____
ROOT
ATOM      1  C   UNL     1       5.814   6.238  16.904  0.00  0.00    +0.000 C 
ATOM      2  C   UNL     1       7.225   6.696  17.333  0.00  0.00    +0.000 C 
ATOM      3  O   UNL     1       7.950   7.407  16.636  0.00  0.00    +0.000 OA
ATOM      4  C   UNL     1       7.736   6.289  18.664  0.00  0.00    +0.000 C 
ATOM      5  C   UNL     1       6.993   5.548  19.485  0.00  0.00    +0.000 C 
ATOM      6  C   UNL     1       5.638   5.031  19.135  0.00  0.00    +0.000 C 
ATOM      7  C   UNL     1       5.379   4.934  17.620  0.00  0.00    +0.000 C 
ENDROOT
BRANCH   1   9
ATOM      8  C   UNL     1       6.187   5.050  14.833  0.00  0.00    +0.000 C 
ATOM      9  O   UNL     1       5.632   6.183  15.484  0.00  0.00    +0.000 OA
ENDBRANCH   1   9
BRANCH   7  10
ATOM     10  O   UNL     1       3.973   4.707  17.390  0.00  0.00    +0.000 OA
BRANCH  10  11
ATOM     11  C   UNL     1       3.571   3.354  17.598  0.00  0.00    +0.000 C 
BRANCH  11  12
ATOM     12  C   UNL     1       2.768   3.244  18.866  0.00  0.00    +0.000 A 
ATOM     13  C   UNL     1       3.286   2.576  19.982  0.00  0.00    +0.000 A 
ATOM     14  C   UNL     1       2.547   2.497  21.164  0.00  0.00    +0.000 A 
ATOM     15  C   UNL     1       1.283   3.081  21.240  0.00  0.00    +0.000 A 
ATOM     16  C   UNL     1       0.754   3.738  20.132  0.00  0.00    +0.000 A 
ATOM     17  C   UNL     1       1.490   3.815  18.948  0.00  0.00    +0.000 A 
ENDBRANCH  11  12
ENDBRANCH  10  11
ENDBRANCH   7  10
TORSDOF 4
ENDMDL
MODEL 6
REMARK VINA RESULT:      -7.0      1.465      2.419
REMARK  Name = 
REMARK  5 active torsions:
REMARK  status: ('A' for Active; 'I' for Inactive)
REMARK    1  A    between atoms: C_1  and  O_2
REMARK    2  A    between atoms: O_2  and  C_3
REMARK    3  A    between atoms: C_9  and  O_10
REMARK    4  A    between atoms: O_10  and  C_11
REMARK    5  A    between atoms: C_11  and  C_12
REMARK                            x       y       z     vdW  Elec       q    Type
REMARK                         _______ _______ _______ _____ _____    ______ ____
ROOT
ATOM      1  C   UNL     1       6.321   5.841  16.606  0.00  0.00    +0.000 C 
ATOM      2  C   UNL     1       6.910   5.200  15.331  0.00  0.00    +0.000 C 
ATOM      3  O   UNL     1       7.869   5.668  14.716  0.00  0.00    +0.000 OA
ATOM      4  C   UNL     1       6.319   3.937  14.826  0.00  0.00    +0.000 C 
ATOM      5  C   UNL     1       5.302   3.357  15.460  0.00  0.00    +0.000 C 
ATOM      6  C   UNL     1       4.647   3.929  16.673  0.00  0.00    +0.000 C 
ATOM      7  C   UNL     1       4.838   5.449  16.826  0.00  0.00    +0.000 C 
ENDROOT
BRANCH   1   9
ATOM      8  C   UNL     1       7.589   7.659  17.569  0.00  0.00    +0.000 C 
ATOM      9  O   UNL     1       6.544   7.254  16.697  0.00  0.00    +0.000 OA
ENDBRANCH   1   9
BRANCH   7  10
ATOM     10  O   UNL     1       4.428   5.849  18.151  0.00  0.00    +0.000 OA
BRANCH  10  11
ATOM     11  C   UNL     1       3.027   6.096  18.265  0.00  0.00    +0.000 C 
BRANCH  11  12
ATOM     12  C   UNL     1       2.379   5.014  19.086  0.00  0.00    +0.000 A 
ATOM     13  C   UNL     1       2.605   4.933  20.465  0.00  0.00    +0.000 A 
ATOM     14  C   UNL     1       1.980   3.943  21.227  0.00  0.00    +0.000 A 
ATOM     15  C   UNL     1       1.130   3.022  20.616  0.00  0.00    +0.000 A 
ATOM     16  C   UNL     1       0.907   3.087  19.243  0.00  0.00    +0.000 A 
ATOM     17  C   UNL     1       1.532   4.074  18.480  0.00  0.00    +0.000 A 
ENDBRANCH  11  12
ENDBRANCH  10  11
ENDBRANCH   7  10
TORSDOF 4
ENDMDL
MODEL 7
REMARK VINA RESULT:      -7.0      1.479      2.650
REMARK  Name = 
REMARK  5 active torsions:
REMARK  status: ('A' for Active; 'I' for Inactive)
REMARK    1  A    between atoms: C_1  and  O_2
REMARK    2  A    between atoms: O_2  and  C_3
REMARK    3  A    between atoms: C_9  and  O_10
REMARK    4  A    between atoms: O_10  and  C_11
REMARK    5  A    between atoms: C_11  and  C_12
REMARK                            x       y       z     vdW  Elec       q    Type
REMARK                         _______ _______ _______ _____ _____    ______ ____
ROOT
ATOM      1  C   UNL     1       6.219   5.849  16.701  0.00  0.00    +0.000 C 
ATOM      2  C   UNL     1       6.852   5.216  15.443  0.00  0.00    +0.000 C 
ATOM      3  O   UNL     1       7.822   5.696  14.856  0.00  0.00    +0.000 OA
ATOM      4  C   UNL     1       6.291   3.946  14.921  0.00  0.00    +0.000 C 
ATOM      5  C   UNL     1       5.263   3.353  15.525  0.00  0.00    +0.000 C 
ATOM      6  C   UNL     1       4.567   3.916  16.718  0.00  0.00    +0.000 C 
ATOM      7  C   UNL     1       4.735   5.439  16.878  0.00  0.00    +0.000 C 
ENDROOT
BRANCH   1   9
ATOM      8  C   UNL     1       7.520   7.675  17.600  0.00  0.00    +0.000 C 
ATOM      9  O   UNL     1       6.422   7.264  16.800  0.00  0.00    +0.000 OA
ENDBRANCH   1   9
BRANCH   7  10
ATOM     10  O   UNL     1       4.282   5.832  18.191  0.00  0.00    +0.000 OA
BRANCH  10  11
ATOM     11  C   UNL     1       2.868   6.000  18.281  0.00  0.00    +0.000 C 
BRANCH  11  12
ATOM     12  C   UNL     1       2.278   4.931  19.161  0.00  0.00    +0.000 A 
ATOM     13  C   UNL     1       1.453   3.937  18.621  0.00  0.00    +0.000 A 
ATOM     14  C   UNL     1       0.928   2.934  19.437  0.00  0.00    +0.000 A 
ATOM     15  C   UNL     1       1.217   2.918  20.801  0.00  0.00    +0.000 A 
ATOM     16  C   UNL     1       2.028   3.909  21.351  0.00  0.00    +0.000 A 
ATOM     17  C   UNL     1       2.552   4.914  20.537  0.00  0.00    +0.000 A 
ENDBRANCH  11  12
ENDBRANCH  10  11
ENDBRANCH   7  10
TORSDOF 4
ENDMDL
MODEL 8
REMARK VINA RESULT:      -7.0      1.171      1.286
REMARK  Name = 
REMARK  5 active torsions:
REMARK  status: ('A' for Active; 'I' for Inactive)
REMARK    1  A    between atoms: C_1  and  O_2
REMARK    2  A    between atoms: O_2  and  C_3
REMARK    3  A    between atoms: C_9  and  O_10
REMARK    4  A    between atoms: O_10  and  C_11
REMARK    5  A    between atoms: C_11  and  C_12
REMARK                            x       y       z     vdW  Elec       q    Type
REMARK                         _______ _______ _______ _____ _____    ______ ____
ROOT
ATOM      1  C   UNL     1       5.836   6.337  17.035  0.00  0.00    +0.000 C 
ATOM      2  C   UNL     1       7.223   6.891  17.427  0.00  0.00    +0.000 C 
ATOM      3  O   UNL     1       7.841   7.715  16.752  0.00  0.00    +0.000 OA
ATOM      4  C   UNL     1       7.842   6.438  18.696  0.00  0.00    +0.000 C 
ATOM      5  C   UNL     1       7.216   5.572  19.492  0.00  0.00    +0.000 C 
ATOM      6  C   UNL     1       5.895   4.958  19.170  0.00  0.00    +0.000 C 
ATOM      7  C   UNL     1       5.560   4.949  17.667  0.00  0.00    +0.000 C 
ENDROOT
BRANCH   1   9
ATOM      8  C   UNL     1       6.100   5.280  14.878  0.00  0.00    +0.000 C 
ATOM      9  O   UNL     1       5.579   6.369  15.625  0.00  0.00    +0.000 OA
ENDBRANCH   1   9
BRANCH   7  10
ATOM     10  O   UNL     1       4.169   4.610  17.491  0.00  0.00    +0.000 OA
BRANCH  10  11
ATOM     11  C   UNL     1       3.860   3.263  17.846  0.00  0.00    +0.000 C 
BRANCH  11  12
ATOM     12  C   UNL     1       2.969   3.241  19.059  0.00  0.00    +0.000 A 
ATOM     13  C   UNL     1       1.691   3.812  19.016  0.00  0.00    +0.000 A 
ATOM     14  C   UNL     1       0.859   3.766  20.136  0.00  0.00    +0.000 A 
ATOM     15  C   UNL     1       1.299   3.156  21.310  0.00  0.00    +0.000 A 
ATOM     16  C   UNL     1       2.572   2.595  21.367  0.00  0.00    +0.000 A 
ATOM     17  C   UNL     1       3.406   2.641  20.249  0.00  0.00    +0.000 A 
ENDBRANCH  11  12
ENDBRANCH  10  11
ENDBRANCH   7  10
TORSDOF 4
ENDMDL
MODEL 9
REMARK VINA RESULT:      -6.8      1.541      2.626
REMARK  Name = 
REMARK  5 active torsions:
REMARK  status: ('A' for Active; 'I' for Inactive)
REMARK    1  A    between atoms: C_1  and  O_2
REMARK    2  A    between atoms: O_2  and  C_3
REMARK    3  A    between atoms: C_9  and  O_10
REMARK    4  A    between atoms: O_10  and  C_11
REMARK    5  A    between atoms: C_11  and  C_12
REMARK                            x       y       z     vdW  Elec       q    Type
REMARK                         _______ _______ _______ _____ _____    ______ ____
ROOT
ATOM      1  C   UNL     1       6.469   5.851  16.503  0.00  0.00    +0.000 C 
ATOM      2  C   UNL     1       6.971   5.188  15.202  0.00  0.00    +0.000 C 
ATOM      3  O   UNL     1       7.933   5.603  14.554  0.00  0.00    +0.000 OA
ATOM      4  C   UNL     1       6.287   3.968  14.709  0.00  0.00    +0.000 C 
ATOM      5  C   UNL     1       5.260   3.443  15.377  0.00  0.00    +0.000 C 
ATOM      6  C   UNL     1       4.687   4.041  16.617  0.00  0.00    +0.000 C 
ATOM      7  C   UNL     1       4.974   5.546  16.776  0.00  0.00    +0.000 C 
ENDROOT
BRANCH   1   9
ATOM      8  C   UNL     1       7.657   7.614  17.651  0.00  0.00    +0.000 C 
ATOM      9  O   UNL     1       6.780   7.247  16.597  0.00  0.00    +0.000 OA
ENDBRANCH   1   9
BRANCH   7  10
ATOM     10  O   UNL     1       4.638   5.957  18.117  0.00  0.00    +0.000 OA
BRANCH  10  11
ATOM     11  C   UNL     1       4.913   4.964  19.104  0.00  0.00    +0.000 C 
BRANCH  11  12
ATOM     12  C   UNL     1       3.629   4.479  19.720  0.00  0.00    +0.000 A 
ATOM     13  C   UNL     1       2.595   5.376  20.014  0.00  0.00    +0.000 A 
ATOM     14  C   UNL     1       1.396   4.918  20.562  0.00  0.00    +0.000 A 
ATOM     15  C   UNL     1       1.221   3.560  20.827  0.00  0.00    +0.000 A 
ATOM     16  C   UNL     1       2.247   2.660  20.548  0.00  0.00    +0.000 A 
ATOM     17  C   UNL     1       3.447   3.117  20.002  0.00  0.00    +0.000 A 
ENDBRANCH  11  12
ENDBRANCH  10  11
ENDBRANCH   7  10
TORSDOF 4
ENDMDL
