MODEL 1
REMARK VINA RESULT:      -9.3      0.000      0.000
REMARK  Name = 
REMARK  6 active torsions:
REMARK  status: ('A' for Active; 'I' for Inactive)
REMARK    1  A    between atoms: C_1  and  O_2
REMARK    2  A    between atoms: O_2  and  C_3
REMARK    3  A    between atoms: C_6  and  C_7
REMARK    4  A    between atoms: N_9  and  C_10
REMARK    5  A    between atoms: C_17  and  C_18
REMARK    6  A    between atoms: N_24  and  C_25
REMARK                            x       y       z     vdW  Elec       q    Type
REMARK                         _______ _______ _______ _____ _____    ______ ____
ROOT
ATOM      1  C   UNL     1       0.845  10.661  18.927  0.00  0.00    +0.000 A 
ATOM      2  N   UNL     1       1.487  10.502  17.718  0.00  0.00    +0.000 N 
ATOM      3  N   UNL     1       2.061   9.296  17.519  0.00  0.00    +0.000 NA
ATOM      4  C   UNL     1       1.824   8.646  18.659  0.00  0.00    +0.000 A 
ATOM      5  N   UNL     1       2.263   7.409  19.013  0.00  0.00    +0.000 NA
ATOM      6  C   UNL     1       1.942   7.068  20.298  0.00  0.00    +0.000 A 
ATOM      7  N   UNL     1       2.338   5.806  20.818  0.00  0.00    +0.000 N 
ATOM      8  C   UNL     1       1.178   7.873  21.195  0.00  0.00    +0.000 A 
ATOM      9  C   UNL     1       0.674   9.123  20.844  0.00  0.00    +0.000 A 
ATOM     10  C   UNL     1       1.053   9.446  19.551  0.00  0.00    +0.000 A 
ATOM     11  H   UNL     1       1.587  11.204  16.989  0.00  0.00    +0.000 HD
ATOM     12  H   UNL     1       2.828   5.882  21.704  0.00  0.00    +0.000 HD
ENDROOT
BRANCH   7  13
ATOM     13  C   UNL     1       2.673   4.663  20.062  0.00  0.00    +0.000 A 
ATOM     14  C   UNL     1       3.986   4.474  19.613  0.00  0.00    +0.000 A 
ATOM     15  C   UNL     1       4.339   3.355  18.857  0.00  0.00    +0.000 A 
ATOM     16  C   UNL     1       3.378   2.392  18.573  0.00  0.00    +0.000 A 
ATOM     17  F   UNL     1       3.734   1.293  17.895  0.00  0.00    +0.000 F 
ATOM     18  C   UNL     1       2.068   2.545  18.995  0.00  0.00    +0.000 A 
ATOM     19  C   UNL     1       1.718   3.689  19.720  0.00  0.00    +0.000 A 
ATOM     20  F   UNL     1       0.443   3.835  20.110  0.00  0.00    +0.000 F 
ENDBRANCH   7  13
BRANCH   1  26
ATOM     21  C   UNL     1       0.931  13.091  19.656  0.00  0.00    +0.000 A 
ATOM     22  C   UNL     1       0.256  14.176  20.198  0.00  0.00    +0.000 A 
ATOM     23  C   UNL     1      -1.091  14.116  20.519  0.00  0.00    +0.000 A 
ATOM     24  C   UNL     1      -1.842  12.983  20.212  0.00  0.00    +0.000 A 
ATOM     25  C   UNL     1      -1.187  11.882  19.647  0.00  0.00    +0.000 A 
ATOM     26  C   UNL     1       0.205  11.905  19.376  0.00  0.00    +0.000 A 
BRANCH  24  27
ATOM     27  C   UNL     1      -3.297  12.995  20.536  0.00  0.00    +0.000 C 
ATOM     28  O   UNL     1      -4.099  12.506  19.736  0.00  0.00    +0.000 OA
ATOM     29  N   UNL     1      -3.682  13.521  21.751  0.00  0.00    +0.000 N 
ATOM     30  H   UNL     1      -2.967  13.711  22.451  0.00  0.00    +0.000 HD
BRANCH  29  31
ATOM     31  C   UNL     1      -5.075  13.495  22.202  0.00  0.00    +0.000 C 
ATOM     32  C   UNL     1      -5.692  14.893  22.131  0.00  0.00    +0.000 C 
ATOM     33  C   UNL     1      -7.114  14.881  22.675  0.00  0.00    +0.000 C 
ATOM     34  O   UNL     1      -7.139  14.369  24.006  0.00  0.00    +0.000 OA
ATOM     35  C   UNL     1      -6.678  13.018  24.072  0.00  0.00    +0.000 C 
ATOM     36  C   UNL     1      -5.226  12.926  23.619  0.00  0.00    +0.000 C 
ENDBRANCH  29  31
ENDBRANCH  24  27
BRANCH  21  38
ATOM     37  C   UNL     1       2.631  13.933  18.246  0.00  0.00    +0.000 C 
ATOM     38  O   UNL     1       2.283  13.162  19.411  0.00  0.00    +0.000 OA
ENDBRANCH  21  38
ENDBRANCH   1  26
TORSDOF 5
ENDMDL
MODEL 2
REMARK VINA RESULT:      -9.2      1.556      1.903
REMARK  Name = 
REMARK  6 active torsions:
REMARK  status: ('A' for Active; 'I' for Inactive)
REMARK    1  A    between atoms: C_1  and  O_2
REMARK    2  A    between atoms: O_2  and  C_3
REMARK    3  A    between atoms: C_6  and  C_7
REMARK    4  A    between atoms: N_9  and  C_10
REMARK    5  A    between atoms: C_17  and  C_18
REMARK    6  A    between atoms: N_24  and  C_25
REMARK                            x       y       z     vdW  Elec       q    Type
REMARK                         _______ _______ _______ _____ _____    ______ ____
ROOT
ATOM      1  C   UNL     1       0.975  11.058  19.070  0.00  0.00    +0.000 A 
ATOM      2  N   UNL     1       1.558  10.853  17.837  0.00  0.00    +0.000 N 
ATOM      3  N   UNL     1       2.015   9.603  17.611  0.00  0.00    +0.000 NA
ATOM      4  C   UNL     1       1.761   8.966  18.755  0.00  0.00    +0.000 A 
ATOM      5  N   UNL     1       2.100   7.691  19.085  0.00  0.00    +0.000 NA
ATOM      6  C   UNL     1       1.795   7.368  20.379  0.00  0.00    +0.000 A 
ATOM      7  N   UNL     1       2.095   6.072  20.877  0.00  0.00    +0.000 N 
ATOM      8  C   UNL     1       1.138   8.231  21.307  0.00  0.00    +0.000 A 
ATOM      9  C   UNL     1       0.735   9.523  20.982  0.00  0.00    +0.000 A 
ATOM     10  C   UNL     1       1.096   9.823  19.678  0.00  0.00    +0.000 A 
ATOM     11  H   UNL     1       1.695  11.550  17.110  0.00  0.00    +0.000 HD
ATOM     12  H   UNL     1       2.620   6.096  21.746  0.00  0.00    +0.000 HD
ENDROOT
BRANCH   7  13
ATOM     13  C   UNL     1       2.300   4.911  20.103  0.00  0.00    +0.000 A 
ATOM     14  C   UNL     1       1.244   4.019  19.875  0.00  0.00    +0.000 A 
ATOM     15  C   UNL     1       1.425   2.860  19.118  0.00  0.00    +0.000 A 
ATOM     16  C   UNL     1       2.667   2.603  18.550  0.00  0.00    +0.000 A 
ATOM     17  F   UNL     1       2.821   1.518  17.780  0.00  0.00    +0.000 F 
ATOM     18  C   UNL     1       3.737   3.457  18.757  0.00  0.00    +0.000 A 
ATOM     19  C   UNL     1       3.553   4.596  19.547  0.00  0.00    +0.000 A 
ATOM     20  F   UNL     1       4.600   5.408  19.754  0.00  0.00    +0.000 F 
ENDBRANCH   7  13
BRANCH   1  26
ATOM     21  C   UNL     1       1.311  13.423  19.926  0.00  0.00    +0.000 A 
ATOM     22  C   UNL     1       0.741  14.557  20.488  0.00  0.00    +0.000 A 
ATOM     23  C   UNL     1      -0.618  14.650  20.737  0.00  0.00    +0.000 A 
ATOM     24  C   UNL     1      -1.482  13.632  20.334  0.00  0.00    +0.000 A 
ATOM     25  C   UNL     1      -0.932  12.486  19.747  0.00  0.00    +0.000 A 
ATOM     26  C   UNL     1       0.465  12.349  19.549  0.00  0.00    +0.000 A 
BRANCH  24  27
ATOM     27  C   UNL     1      -2.940  13.808  20.583  0.00  0.00    +0.000 C 
ATOM     28  O   UNL     1      -3.372  14.924  20.890  0.00  0.00    +0.000 OA
ATOM     29  N   UNL     1      -3.760  12.712  20.417  0.00  0.00    +0.000 N 
ATOM     30  H   UNL     1      -3.382  11.883  19.961  0.00  0.00    +0.000 HD
BRANCH  29  31
ATOM     31  C   UNL     1      -5.216  12.804  20.547  0.00  0.00    +0.000 C 
ATOM     32  C   UNL     1      -5.637  12.648  22.009  0.00  0.00    +0.000 C 
ATOM     33  C   UNL     1      -7.155  12.663  22.135  0.00  0.00    +0.000 C 
ATOM     34  O   UNL     1      -7.737  11.651  21.316  0.00  0.00    +0.000 OA
ATOM     35  C   UNL     1      -7.453  11.850  19.930  0.00  0.00    +0.000 C 
ATOM     36  C   UNL     1      -5.951  11.776  19.676  0.00  0.00    +0.000 C 
ENDBRANCH  29  31
ENDBRANCH  24  27
BRANCH  21  38
ATOM     37  C   UNL     1       3.168  14.046  18.602  0.00  0.00    +0.000 C 
ATOM     38  O   UNL     1       2.674  13.338  19.754  0.00  0.00    +0.000 OA
ENDBRANCH  21  38
ENDBRANCH   1  26
TORSDOF 5
ENDMDL
MODEL 3
REMARK VINA RESULT:      -9.2      0.799      1.146
REMARK  Name = 
REMARK  6 active torsions:
REMARK  status: ('A' for Active; 'I' for Inactive)
REMARK    1  A    between atoms: C_1  and  O_2
REMARK    2  A    between atoms: O_2  and  C_3
REMARK    3  A    between atoms: C_6  and  C_7
REMARK    4  A    between atoms: N_9  and  C_10
REMARK    5  A    between atoms: C_17  and  C_18
REMARK    6  A    between atoms: N_24  and  C_25
REMARK                            x       y       z     vdW  Elec       q    Type
REMARK                         _______ _______ _______ _____ _____    ______ ____
ROOT
ATOM      1  C   UNL     1       0.875  10.678  18.908  0.00  0.00    +0.000 A 
ATOM      2  N   UNL     1       1.533  10.508  17.708  0.00  0.00    +0.000 N 
ATOM      3  N   UNL     1       2.101   9.297  17.524  0.00  0.00    +0.000 NA
ATOM      4  C   UNL     1       1.844   8.655  18.664  0.00  0.00    +0.000 A 
ATOM      5  N   UNL     1       2.269   7.416  19.030  0.00  0.00    +0.000 NA
ATOM      6  C   UNL     1       1.928   7.084  20.312  0.00  0.00    +0.000 A 
ATOM      7  N   UNL     1       2.307   5.822  20.844  0.00  0.00    +0.000 N 
ATOM      8  C   UNL     1       1.157   7.900  21.194  0.00  0.00    +0.000 A 
ATOM      9  C   UNL     1       0.667   9.151  20.830  0.00  0.00    +0.000 A 
ATOM     10  C   UNL     1       1.066   9.465  19.540  0.00  0.00    +0.000 A 
ATOM     11  H   UNL     1       1.648  11.206  16.978  0.00  0.00    +0.000 HD
ATOM     12  H   UNL     1       2.785   5.899  21.736  0.00  0.00    +0.000 HD
ENDROOT
BRANCH   7  13
ATOM     13  C   UNL     1       2.644   4.673  20.098  0.00  0.00    +0.000 A 
ATOM     14  C   UNL     1       1.699   3.659  19.898  0.00  0.00    +0.000 A 
ATOM     15  C   UNL     1       2.013   2.510  19.170  0.00  0.00    +0.000 A 
ATOM     16  C   UNL     1       3.275   2.384  18.603  0.00  0.00    +0.000 A 
ATOM     17  F   UNL     1       3.553   1.305  17.860  0.00  0.00    +0.000 F 
ATOM     18  C   UNL     1       4.239   3.362  18.783  0.00  0.00    +0.000 A 
ATOM     19  C   UNL     1       3.925   4.493  19.545  0.00  0.00    +0.000 A 
ATOM     20  F   UNL     1       4.871   5.425  19.727  0.00  0.00    +0.000 F 
ENDBRANCH   7  13
BRANCH   1  26
ATOM     21  C   UNL     1       0.966  13.120  19.596  0.00  0.00    +0.000 A 
ATOM     22  C   UNL     1       0.294  14.213  20.126  0.00  0.00    +0.000 A 
ATOM     23  C   UNL     1      -1.050  14.158  20.459  0.00  0.00    +0.000 A 
ATOM     24  C   UNL     1      -1.803  13.019  20.178  0.00  0.00    +0.000 A 
ATOM     25  C   UNL     1      -1.151  11.910  19.625  0.00  0.00    +0.000 A 
ATOM     26  C   UNL     1       0.238  11.928  19.342  0.00  0.00    +0.000 A 
BRANCH  24  27
ATOM     27  C   UNL     1      -3.254  13.035  20.514  0.00  0.00    +0.000 C 
ATOM     28  O   UNL     1      -4.047  12.407  19.806  0.00  0.00    +0.000 OA
ATOM     29  N   UNL     1      -3.648  13.727  21.640  0.00  0.00    +0.000 N 
ATOM     30  H   UNL     1      -2.934  14.041  22.295  0.00  0.00    +0.000 HD
BRANCH  29  31
ATOM     31  C   UNL     1      -5.036  13.726  22.106  0.00  0.00    +0.000 C 
ATOM     32  C   UNL     1      -5.564  15.156  22.231  0.00  0.00    +0.000 C 
ATOM     33  C   UNL     1      -6.979  15.159  22.792  0.00  0.00    +0.000 C 
ATOM     34  O   UNL     1      -7.025  14.477  24.044  0.00  0.00    +0.000 OA
ATOM     35  C   UNL     1      -6.650  13.104  23.923  0.00  0.00    +0.000 C 
ATOM     36  C   UNL     1      -5.210  12.984  23.438  0.00  0.00    +0.000 C 
ENDBRANCH  29  31
ENDBRANCH  24  27
BRANCH  21  38
ATOM     37  C   UNL     1       2.657  13.980  18.185  0.00  0.00    +0.000 C 
ATOM     38  O   UNL     1       2.315  13.188  19.338  0.00  0.00    +0.000 OA
ENDBRANCH  21  38
ENDBRANCH   1  26
TORSDOF 5
ENDMDL
MODEL 4
REMARK VINA RESULT:      -9.1      1.468      1.905
REMARK  Name = 
REMARK  6 active torsions:
REMARK  status: ('A' for Active; 'I' for Inactive)
REMARK    1  A    between atoms: C_1  and  O_2
REMARK    2  A    between atoms: O_2  and  C_3
REMARK    3  A    between atoms: C_6  and  C_7
REMARK    4  A    between atoms: N_9  and  C_10
REMARK    5  A    between atoms: C_17  and  C_18
REMARK    6  A    between atoms: N_24  and  C_25
REMARK                            x       y       z     vdW  Elec       q    Type
REMARK                         _______ _______ _______ _____ _____    ______ ____
ROOT
ATOM      1  C   UNL     1       1.172  11.051  18.926  0.00  0.00    +0.000 A 
ATOM      2  N   UNL     1       1.768  10.757  17.718  0.00  0.00    +0.000 N 
ATOM      3  N   UNL     1       2.166   9.476  17.564  0.00  0.00    +0.000 NA
ATOM      4  C   UNL     1       1.860   8.910  18.732  0.00  0.00    +0.000 A 
ATOM      5  N   UNL     1       2.130   7.639  19.132  0.00  0.00    +0.000 NA
ATOM      6  C   UNL     1       1.785   7.397  20.433  0.00  0.00    +0.000 A 
ATOM      7  N   UNL     1       2.011   6.114  21.001  0.00  0.00    +0.000 N 
ATOM      8  C   UNL     1       1.153   8.336  21.304  0.00  0.00    +0.000 A 
ATOM      9  C   UNL     1       0.821   9.628  20.907  0.00  0.00    +0.000 A 
ATOM     10  C   UNL     1       1.221   9.844  19.597  0.00  0.00    +0.000 A 
ATOM     11  H   UNL     1       1.952  11.409  16.961  0.00  0.00    +0.000 HD
ATOM     12  H   UNL     1       2.521   6.157  21.879  0.00  0.00    +0.000 HD
ENDROOT
BRANCH   7  13
ATOM     13  C   UNL     1       2.174   4.907  20.290  0.00  0.00    +0.000 A 
ATOM     14  C   UNL     1       1.101   4.017  20.157  0.00  0.00    +0.000 A 
ATOM     15  C   UNL     1       1.240   2.813  19.463  0.00  0.00    +0.000 A 
ATOM     16  C   UNL     1       2.456   2.507  18.864  0.00  0.00    +0.000 A 
ATOM     17  F   UNL     1       2.569   1.377  18.154  0.00  0.00    +0.000 F 
ATOM     18  C   UNL     1       3.542   3.359  18.978  0.00  0.00    +0.000 A 
ATOM     19  C   UNL     1       3.401   4.545  19.706  0.00  0.00    +0.000 A 
ATOM     20  F   UNL     1       4.463   5.355  19.823  0.00  0.00    +0.000 F 
ENDBRANCH   7  13
BRANCH   1  26
ATOM     21  C   UNL     1       1.329  13.584  18.875  0.00  0.00    +0.000 A 
ATOM     22  C   UNL     1       0.912  14.794  19.411  0.00  0.00    +0.000 A 
ATOM     23  C   UNL     1      -0.045  14.863  20.411  0.00  0.00    +0.000 A 
ATOM     24  C   UNL     1      -0.699  13.712  20.845  0.00  0.00    +0.000 A 
ATOM     25  C   UNL     1      -0.309  12.480  20.304  0.00  0.00    +0.000 A 
ATOM     26  C   UNL     1       0.717  12.388  19.330  0.00  0.00    +0.000 A 
BRANCH  24  27
ATOM     27  C   UNL     1      -1.754  13.854  21.887  0.00  0.00    +0.000 C 
ATOM     28  O   UNL     1      -1.618  14.700  22.775  0.00  0.00    +0.000 OA
ATOM     29  N   UNL     1      -2.871  13.051  21.788  0.00  0.00    +0.000 N 
ATOM     30  H   UNL     1      -3.024  12.530  20.926  0.00  0.00    +0.000 HD
BRANCH  29  31
ATOM     31  C   UNL     1      -4.004  13.179  22.708  0.00  0.00    +0.000 C 
ATOM     32  C   UNL     1      -3.769  12.349  23.971  0.00  0.00    +0.000 C 
ATOM     33  C   UNL     1      -4.980  12.417  24.891  0.00  0.00    +0.000 C 
ATOM     34  O   UNL     1      -6.157  11.997  24.205  0.00  0.00    +0.000 OA
ATOM     35  C   UNL     1      -6.459  12.836  23.089  0.00  0.00    +0.000 C 
ATOM     36  C   UNL     1      -5.337  12.782  22.059  0.00  0.00    +0.000 C 
ENDBRANCH  29  31
ENDBRANCH  24  27
BRANCH  21  38
ATOM     37  C   UNL     1       3.215  14.680  17.964  0.00  0.00    +0.000 C 
ATOM     38  O   UNL     1       2.329  13.546  17.931  0.00  0.00    +0.000 OA
ENDBRANCH  21  38
ENDBRANCH   1  26
TORSDOF 5
ENDMDL
MODEL 5
REMARK VINA RESULT:      -9.1      1.399      1.624
REMARK  Name = 
REMARK  6 active torsions:
REMARK  status: ('A' for Active; 'I' for Inactive)
REMARK    1  A    between atoms: C_1  and  O_2
REMARK    2  A    between atoms: O_2  and  C_3
REMARK    3  A    between atoms: C_6  and  C_7
REMARK    4  A    between atoms: N_9  and  C_10
REMARK    5  A    between atoms: C_17  and  C_18
REMARK    6  A    between atoms: N_24  and  C_25
REMARK                            x       y       z     vdW  Elec       q    Type
REMARK                         _______ _______ _______ _____ _____    ______ ____
ROOT
ATOM      1  C   UNL     1       1.000  10.954  19.020  0.00  0.00    +0.000 A 
ATOM      2  N   UNL     1       1.584  10.762  17.785  0.00  0.00    +0.000 N 
ATOM      3  N   UNL     1       2.070   9.523  17.559  0.00  0.00    +0.000 NA
ATOM      4  C   UNL     1       1.836   8.881  18.704  0.00  0.00    +0.000 A 
ATOM      5  N   UNL     1       2.207   7.615  19.034  0.00  0.00    +0.000 NA
ATOM      6  C   UNL     1       1.915   7.286  20.329  0.00  0.00    +0.000 A 
ATOM      7  N   UNL     1       2.247   5.998  20.827  0.00  0.00    +0.000 N 
ATOM      8  C   UNL     1       1.240   8.133  21.259  0.00  0.00    +0.000 A 
ATOM      9  C   UNL     1       0.804   9.415  20.934  0.00  0.00    +0.000 A 
ATOM     10  C   UNL     1       1.154   9.723  19.629  0.00  0.00    +0.000 A 
ATOM     11  H   UNL     1       1.701  11.462  17.057  0.00  0.00    +0.000 HD
ATOM     12  H   UNL     1       2.775   6.035  21.693  0.00  0.00    +0.000 HD
ENDROOT
BRANCH   7  13
ATOM     13  C   UNL     1       2.477   4.841  20.052  0.00  0.00    +0.000 A 
ATOM     14  C   UNL     1       3.735   4.615  19.478  0.00  0.00    +0.000 A 
ATOM     15  C   UNL     1       3.983   3.482  18.702  0.00  0.00    +0.000 A 
ATOM     16  C   UNL     1       2.975   2.542  18.524  0.00  0.00    +0.000 A 
ATOM     17  F   UNL     1       3.235   1.430  17.824  0.00  0.00    +0.000 F 
ATOM     18  C   UNL     1       1.718   2.732  19.071  0.00  0.00    +0.000 A 
ATOM     19  C   UNL     1       1.469   3.889  19.816  0.00  0.00    +0.000 A 
ATOM     20  F   UNL     1       0.243   4.071  20.327  0.00  0.00    +0.000 F 
ENDBRANCH   7  13
BRANCH   1  26
ATOM     21  C   UNL     1       1.283  13.318  19.898  0.00  0.00    +0.000 A 
ATOM     22  C   UNL     1       0.685  14.439  20.459  0.00  0.00    +0.000 A 
ATOM     23  C   UNL     1      -0.680  14.506  20.687  0.00  0.00    +0.000 A 
ATOM     24  C   UNL     1      -1.520  13.476  20.264  0.00  0.00    +0.000 A 
ATOM     25  C   UNL     1      -0.942  12.344  19.678  0.00  0.00    +0.000 A 
ATOM     26  C   UNL     1       0.461  12.232  19.500  0.00  0.00    +0.000 A 
BRANCH  24  27
ATOM     27  C   UNL     1      -2.984  13.625  20.493  0.00  0.00    +0.000 C 
ATOM     28  O   UNL     1      -3.427  14.704  20.898  0.00  0.00    +0.000 OA
ATOM     29  N   UNL     1      -3.796  12.551  20.197  0.00  0.00    +0.000 N 
ATOM     30  H   UNL     1      -3.404  11.772  19.671  0.00  0.00    +0.000 HD
BRANCH  29  31
ATOM     31  C   UNL     1      -5.255  12.628  20.299  0.00  0.00    +0.000 C 
ATOM     32  C   UNL     1      -5.705  12.448  21.750  0.00  0.00    +0.000 C 
ATOM     33  C   UNL     1      -7.224  12.448  21.845  0.00  0.00    +0.000 C 
ATOM     34  O   UNL     1      -7.781  11.443  21.000  0.00  0.00    +0.000 OA
ATOM     35  C   UNL     1      -7.470  11.663  19.623  0.00  0.00    +0.000 C 
ATOM     36  C   UNL     1      -5.963  11.606  19.399  0.00  0.00    +0.000 C 
ENDBRANCH  29  31
ENDBRANCH  24  27
BRANCH  21  38
ATOM     37  C   UNL     1       3.149  13.992  18.612  0.00  0.00    +0.000 C 
ATOM     38  O   UNL     1       2.649  13.258  19.745  0.00  0.00    +0.000 OA
ENDBRANCH  21  38
ENDBRANCH   1  26
TORSDOF 5
ENDMDL
MODEL 6
REMARK VINA RESULT:      -9.0      0.921      1.060
REMARK  Name = 
REMARK  6 active torsions:
REMARK  status: ('A' for Active; 'I' for Inactive)
REMARK    1  A    between atoms: C_1  and  O_2
REMARK    2  A    between atoms: O_2  and  C_3
REMARK    3  A    between atoms: C_6  and  C_7
REMARK    4  A    between atoms: N_9  and  C_10
REMARK    5  A    between atoms: C_17  and  C_18
REMARK    6  A    between atoms: N_24  and  C_25
REMARK                            x       y       z     vdW  Elec       q    Type
REMARK                         _______ _______ _______ _____ _____    ______ ____
ROOT
ATOM      1  C   UNL     1       0.771  10.580  18.949  0.00  0.00    +0.000 A 
ATOM      2  N   UNL     1       1.396  10.452  17.726  0.00  0.00    +0.000 N 
ATOM      3  N   UNL     1       1.995   9.263  17.502  0.00  0.00    +0.000 NA
ATOM      4  C   UNL     1       1.794   8.593  18.638  0.00  0.00    +0.000 A 
ATOM      5  N   UNL     1       2.269   7.362  18.967  0.00  0.00    +0.000 NA
ATOM      6  C   UNL     1       1.979   6.997  20.253  0.00  0.00    +0.000 A 
ATOM      7  N   UNL     1       2.415   5.739  20.749  0.00  0.00    +0.000 N 
ATOM      8  C   UNL     1       1.212   7.772  21.173  0.00  0.00    +0.000 A 
ATOM      9  C   UNL     1       0.671   9.013  20.848  0.00  0.00    +0.000 A 
ATOM     10  C   UNL     1       1.020   9.363  19.553  0.00  0.00    +0.000 A 
ATOM     11  H   UNL     1       1.466  11.166  17.006  0.00  0.00    +0.000 HD
ATOM     12  H   UNL     1       2.918   5.816  21.628  0.00  0.00    +0.000 HD
ENDROOT
BRANCH   7  13
ATOM     13  C   UNL     1       2.764   4.615  19.973  0.00  0.00    +0.000 A 
ATOM     14  C   UNL     1       4.074   4.462  19.502  0.00  0.00    +0.000 A 
ATOM     15  C   UNL     1       4.441   3.361  18.725  0.00  0.00    +0.000 A 
ATOM     16  C   UNL     1       3.497   2.380  18.442  0.00  0.00    +0.000 A 
ATOM     17  F   UNL     1       3.868   1.299  17.743  0.00  0.00    +0.000 F 
ATOM     18  C   UNL     1       2.191   2.498  18.885  0.00  0.00    +0.000 A 
ATOM     19  C   UNL     1       1.826   3.624  19.632  0.00  0.00    +0.000 A 
ATOM     20  F   UNL     1       0.554   3.736  20.041  0.00  0.00    +0.000 F 
ENDBRANCH   7  13
BRANCH   1  26
ATOM     21  C   UNL     1       0.600  13.104  19.153  0.00  0.00    +0.000 A 
ATOM     22  C   UNL     1      -0.020  14.192  19.753  0.00  0.00    +0.000 A 
ATOM     23  C   UNL     1      -1.068  14.038  20.646  0.00  0.00    +0.000 A 
ATOM     24  C   UNL     1      -1.604  12.776  20.898  0.00  0.00    +0.000 A 
ATOM     25  C   UNL     1      -1.008  11.666  20.288  0.00  0.00    +0.000 A 
ATOM     26  C   UNL     1       0.109  11.802  19.425  0.00  0.00    +0.000 A 
BRANCH  24  27
ATOM     27  C   UNL     1      -2.762  12.678  21.830  0.00  0.00    +0.000 C 
ATOM     28  O   UNL     1      -2.590  12.223  22.964  0.00  0.00    +0.000 OA
ATOM     29  N   UNL     1      -3.984  13.146  21.393  0.00  0.00    +0.000 N 
ATOM     30  H   UNL     1      -4.017  13.700  20.538  0.00  0.00    +0.000 HD
BRANCH  29  31
ATOM     31  C   UNL     1      -5.160  13.180  22.264  0.00  0.00    +0.000 C 
ATOM     32  C   UNL     1      -6.371  12.566  21.559  0.00  0.00    +0.000 C 
ATOM     33  C   UNL     1      -7.613  12.674  22.434  0.00  0.00    +0.000 C 
ATOM     34  O   UNL     1      -7.855  14.031  22.798  0.00  0.00    +0.000 OA
ATOM     35  C   UNL     1      -6.783  14.584  23.563  0.00  0.00    +0.000 C 
ATOM     36  C   UNL     1      -5.495  14.597  22.747  0.00  0.00    +0.000 C 
ENDBRANCH  29  31
ENDBRANCH  24  27
BRANCH  21  38
ATOM     37  C   UNL     1       2.819  13.898  18.959  0.00  0.00    +0.000 C 
ATOM     38  O   UNL     1       1.681  13.288  18.321  0.00  0.00    +0.000 OA
ENDBRANCH  21  38
ENDBRANCH   1  26
TORSDOF 5
ENDMDL
MODEL 7
REMARK VINA RESULT:      -8.9      4.842     11.692
REMARK  Name = 
REMARK  6 active torsions:
REMARK  status: ('A' for Active; 'I' for Inactive)
REMARK    1  A    between atoms: C_1  and  O_2
REMARK    2  A    between atoms: O_2  and  C_3
REMARK    3  A    between atoms: C_6  and  C_7
REMARK    4  A    between atoms: N_9  and  C_10
REMARK    5  A    between atoms: C_17  and  C_18
REMARK    6  A    between atoms: N_24  and  C_25
REMARK                            x       y       z     vdW  Elec       q    Type
REMARK                         _______ _______ _______ _____ _____    ______ ____
ROOT
ATOM      1  C   UNL     1       2.167   6.294  19.668  0.00  0.00    +0.000 A 
ATOM      2  N   UNL     1       1.921   6.457  21.015  0.00  0.00    +0.000 N 
ATOM      3  N   UNL     1       1.502   7.686  21.384  0.00  0.00    +0.000 NA
ATOM      4  C   UNL     1       1.510   8.375  20.243  0.00  0.00    +0.000 A 
ATOM      5  N   UNL     1       1.246   9.698  20.073  0.00  0.00    +0.000 NA
ATOM      6  C   UNL     1       1.447  10.129  18.791  0.00  0.00    +0.000 A 
ATOM      7  N   UNL     1       1.220  11.491  18.455  0.00  0.00    +0.000 N 
ATOM      8  C   UNL     1       1.841   9.300  17.698  0.00  0.00    +0.000 A 
ATOM      9  C   UNL     1       2.070   7.933  17.831  0.00  0.00    +0.000 A 
ATOM     10  C   UNL     1       1.893   7.545  19.150  0.00  0.00    +0.000 A 
ATOM     11  H   UNL     1       2.050   5.757  21.741  0.00  0.00    +0.000 HD
ATOM     12  H   UNL     1       2.009  11.915  17.977  0.00  0.00    +0.000 HD
ENDROOT
BRANCH   7  13
ATOM     13  C   UNL     1       0.415  12.401  19.172  0.00  0.00    +0.000 A 
ATOM     14  C   UNL     1       0.997  13.488  19.835  0.00  0.00    +0.000 A 
ATOM     15  C   UNL     1       0.221  14.396  20.557  0.00  0.00    +0.000 A 
ATOM     16  C   UNL     1      -1.160  14.239  20.590  0.00  0.00    +0.000 A 
ATOM     17  F   UNL     1      -1.905  15.144  21.239  0.00  0.00    +0.000 F 
ATOM     18  C   UNL     1      -1.772  13.174  19.952  0.00  0.00    +0.000 A 
ATOM     19  C   UNL     1      -0.981  12.250  19.262  0.00  0.00    +0.000 A 
ATOM     20  F   UNL     1      -1.583  11.213  18.662  0.00  0.00    +0.000 F 
ENDBRANCH   7  13
BRANCH   1  26
ATOM     21  C   UNL     1       2.240   3.768  19.428  0.00  0.00    +0.000 A 
ATOM     22  C   UNL     1       2.879   2.661  18.886  0.00  0.00    +0.000 A 
ATOM     23  C   UNL     1       3.965   2.784  18.035  0.00  0.00    +0.000 A 
ATOM     24  C   UNL     1       4.394   4.041  17.612  0.00  0.00    +0.000 A 
ATOM     25  C   UNL     1       3.752   5.173  18.130  0.00  0.00    +0.000 A 
ATOM     26  C   UNL     1       2.684   5.063  19.056  0.00  0.00    +0.000 A 
BRANCH  24  27
ATOM     27  C   UNL     1       5.536   4.110  16.658  0.00  0.00    +0.000 C 
ATOM     28  O   UNL     1       6.683   4.249  17.094  0.00  0.00    +0.000 OA
ATOM     29  N   UNL     1       5.262   3.970  15.313  0.00  0.00    +0.000 N 
ATOM     30  H   UNL     1       4.337   3.647  15.034  0.00  0.00    +0.000 HD
BRANCH  29  31
ATOM     31  C   UNL     1       6.323   3.930  14.305  0.00  0.00    +0.000 C 
ATOM     32  C   UNL     1       7.012   5.291  14.192  0.00  0.00    +0.000 C 
ATOM     33  C   UNL     1       8.060   5.273  13.088  0.00  0.00    +0.000 C 
ATOM     34  O   UNL     1       7.476   4.881  11.847  0.00  0.00    +0.000 OA
ATOM     35  C   UNL     1       6.933   3.560  11.900  0.00  0.00    +0.000 C 
ATOM     36  C   UNL     1       5.811   3.484  12.928  0.00  0.00    +0.000 C 
ENDBRANCH  29  31
ENDBRANCH  24  27
BRANCH  21  38
ATOM     37  C   UNL     1       1.571   2.910  21.527  0.00  0.00    +0.000 C 
ATOM     38  O   UNL     1       1.207   3.609  20.323  0.00  0.00    +0.000 OA
ENDBRANCH  21  38
ENDBRANCH   1  26
TORSDOF 5
ENDMDL
MODEL 8
REMARK VINA RESULT:      -8.9      1.158      1.566
REMARK  Name = 
REMARK  6 active torsions:
REMARK  status: ('A' for Active; 'I' for Inactive)
REMARK    1  A    between atoms: C_1  and  O_2
REMARK    2  A    between atoms: O_2  and  C_3
REMARK    3  A    between atoms: C_6  and  C_7
REMARK    4  A    between atoms: N_9  and  C_10
REMARK    5  A    between atoms: C_17  and  C_18
REMARK    6  A    between atoms: N_24  and  C_25
REMARK                            x       y       z     vdW  Elec       q    Type
REMARK                         _______ _______ _______ _____ _____    ______ ____
ROOT
ATOM      1  C   UNL     1       0.789  10.684  18.965  0.00  0.00    +0.000 A 
ATOM      2  N   UNL     1       1.453  10.556  17.764  0.00  0.00    +0.000 N 
ATOM      3  N   UNL     1       2.055   9.366  17.557  0.00  0.00    +0.000 NA
ATOM      4  C   UNL     1       1.814   8.694  18.683  0.00  0.00    +0.000 A 
ATOM      5  N   UNL     1       2.274   7.460  19.025  0.00  0.00    +0.000 NA
ATOM      6  C   UNL     1       1.940   7.094  20.300  0.00  0.00    +0.000 A 
ATOM      7  N   UNL     1       2.354   5.833  20.807  0.00  0.00    +0.000 N 
ATOM      8  C   UNL     1       1.146   7.870  21.196  0.00  0.00    +0.000 A 
ATOM      9  C   UNL     1       0.621   9.114  20.856  0.00  0.00    +0.000 A 
ATOM     10  C   UNL     1       1.013   9.464  19.574  0.00  0.00    +0.000 A 
ATOM     11  H   UNL     1       1.549  11.272  17.048  0.00  0.00    +0.000 HD
ATOM     12  H   UNL     1       2.829   5.906  21.702  0.00  0.00    +0.000 HD
ENDROOT
BRANCH   7  13
ATOM     13  C   UNL     1       2.725   4.709  20.040  0.00  0.00    +0.000 A 
ATOM     14  C   UNL     1       1.808   3.674  19.817  0.00  0.00    +0.000 A 
ATOM     15  C   UNL     1       2.154   2.548  19.067  0.00  0.00    +0.000 A 
ATOM     16  C   UNL     1       3.421   2.469  18.501  0.00  0.00    +0.000 A 
ATOM     17  F   UNL     1       3.730   1.412  17.737  0.00  0.00    +0.000 F 
ATOM     18  C   UNL     1       4.357   3.469  18.703  0.00  0.00    +0.000 A 
ATOM     19  C   UNL     1       4.011   4.574  19.487  0.00  0.00    +0.000 A 
ATOM     20  F   UNL     1       4.930   5.529  19.690  0.00  0.00    +0.000 F 
ENDBRANCH   7  13
BRANCH   1  26
ATOM     21  C   UNL     1       0.817  13.087  19.781  0.00  0.00    +0.000 A 
ATOM     22  C   UNL     1       0.106  14.149  20.324  0.00  0.00    +0.000 A 
ATOM     23  C   UNL     1      -1.255  14.070  20.571  0.00  0.00    +0.000 A 
ATOM     24  C   UNL     1      -1.980  12.943  20.187  0.00  0.00    +0.000 A 
ATOM     25  C   UNL     1      -1.287  11.867  19.619  0.00  0.00    +0.000 A 
ATOM     26  C   UNL     1       0.116  11.907  19.422  0.00  0.00    +0.000 A 
BRANCH  24  27
ATOM     27  C   UNL     1      -3.450  12.935  20.434  0.00  0.00    +0.000 C 
ATOM     28  O   UNL     1      -4.214  12.582  19.530  0.00  0.00    +0.000 OA
ATOM     29  N   UNL     1      -3.894  13.285  21.691  0.00  0.00    +0.000 N 
ATOM     30  H   UNL     1      -3.215  13.358  22.447  0.00  0.00    +0.000 HD
BRANCH  29  31
ATOM     31  C   UNL     1      -5.309  13.219  22.061  0.00  0.00    +0.000 C 
ATOM     32  C   UNL     1      -5.464  12.987  23.565  0.00  0.00    +0.000 C 
ATOM     33  C   UNL     1      -6.932  12.838  23.938  0.00  0.00    +0.000 C 
ATOM     34  O   UNL     1      -7.538  11.789  23.185  0.00  0.00    +0.000 OA
ATOM     35  C   UNL     1      -7.510  12.049  21.780  0.00  0.00    +0.000 C 
ATOM     36  C   UNL     1      -6.072  12.140  21.282  0.00  0.00    +0.000 C 
ENDBRANCH  29  31
ENDBRANCH  24  27
BRANCH  21  38
ATOM     37  C   UNL     1       2.872  13.806  20.703  0.00  0.00    +0.000 C 
ATOM     38  O   UNL     1       2.180  13.175  19.609  0.00  0.00    +0.000 OA
ENDBRANCH  21  38
ENDBRANCH   1  26
TORSDOF 5
ENDMDL
MODEL 9
REMARK VINA RESULT:      -8.9      5.064     11.757
REMARK  Name = 
REMARK  6 active torsions:
REMARK  status: ('A' for Active; 'I' for Inactive)
REMARK    1  A    between atoms: C_1  and  O_2
REMARK    2  A    between atoms: O_2  and  C_3
REMARK    3  A    between atoms: C_6  and  C_7
REMARK    4  A    between atoms: N_9  and  C_10
REMARK    5  A    between atoms: C_17  and  C_18
REMARK    6  A    between atoms: N_24  and  C_25
REMARK                            x       y       z     vdW  Elec       q    Type
REMARK                         _______ _______ _______ _____ _____    ______ ____
ROOT
ATOM      1  C   UNL     1       2.166   6.449  19.696  0.00  0.00    +0.000 A 
ATOM      2  N   UNL     1       1.874   6.657  21.028  0.00  0.00    +0.000 N 
ATOM      3  N   UNL     1       1.441   7.897  21.340  0.00  0.00    +0.000 NA
ATOM      4  C   UNL     1       1.487   8.547  20.176  0.00  0.00    +0.000 A 
ATOM      5  N   UNL     1       1.228   9.863  19.952  0.00  0.00    +0.000 NA
ATOM      6  C   UNL     1       1.472  10.250  18.664  0.00  0.00    +0.000 A 
ATOM      7  N   UNL     1       1.255  11.599  18.274  0.00  0.00    +0.000 N 
ATOM      8  C   UNL     1       1.904   9.385  17.614  0.00  0.00    +0.000 A 
ATOM      9  C   UNL     1       2.130   8.024  17.802  0.00  0.00    +0.000 A 
ATOM     10  C   UNL     1       1.908   7.681  19.127  0.00  0.00    +0.000 A 
ATOM     11  H   UNL     1       1.979   5.983  21.782  0.00  0.00    +0.000 HD
ATOM     12  H   UNL     1       2.059  12.009  17.808  0.00  0.00    +0.000 HD
ENDROOT
BRANCH   7  13
ATOM     13  C   UNL     1       0.425  12.531  18.931  0.00  0.00    +0.000 A 
ATOM     14  C   UNL     1      -0.882  12.179  19.293  0.00  0.00    +0.000 A 
ATOM     15  C   UNL     1      -1.724  13.087  19.937  0.00  0.00    +0.000 A 
ATOM     16  C   UNL     1      -1.247  14.352  20.258  0.00  0.00    +0.000 A 
ATOM     17  F   UNL     1      -2.041  15.200  20.925  0.00  0.00    +0.000 F 
ATOM     18  C   UNL     1       0.037  14.739  19.913  0.00  0.00    +0.000 A 
ATOM     19  C   UNL     1       0.860  13.834  19.235  0.00  0.00    +0.000 A 
ATOM     20  F   UNL     1       2.095  14.224  18.891  0.00  0.00    +0.000 F 
ENDBRANCH   7  13
BRANCH   1  26
ATOM     21  C   UNL     1       2.296   3.916  19.592  0.00  0.00    +0.000 A 
ATOM     22  C   UNL     1       2.954   2.796  19.102  0.00  0.00    +0.000 A 
ATOM     23  C   UNL     1       4.028   2.898  18.233  0.00  0.00    +0.000 A 
ATOM     24  C   UNL     1       4.423   4.140  17.738  0.00  0.00    +0.000 A 
ATOM     25  C   UNL     1       3.761   5.283  18.202  0.00  0.00    +0.000 A 
ATOM     26  C   UNL     1       2.705   5.199  19.145  0.00  0.00    +0.000 A 
BRANCH  24  27
ATOM     27  C   UNL     1       5.553   4.183  16.768  0.00  0.00    +0.000 C 
ATOM     28  O   UNL     1       6.706   4.320  17.187  0.00  0.00    +0.000 OA
ATOM     29  N   UNL     1       5.261   4.023  15.430  0.00  0.00    +0.000 N 
ATOM     30  H   UNL     1       4.329   3.703  15.168  0.00  0.00    +0.000 HD
BRANCH  29  31
ATOM     31  C   UNL     1       6.308   3.957  14.408  0.00  0.00    +0.000 C 
ATOM     32  C   UNL     1       7.022   5.304  14.280  0.00  0.00    +0.000 C 
ATOM     33  C   UNL     1       8.055   5.259  13.163  0.00  0.00    +0.000 C 
ATOM     34  O   UNL     1       7.448   4.873  11.932  0.00  0.00    +0.000 OA
ATOM     35  C   UNL     1       6.880   3.564  11.998  0.00  0.00    +0.000 C 
ATOM     36  C   UNL     1       5.769   3.515  13.041  0.00  0.00    +0.000 C 
ENDBRANCH  29  31
ENDBRANCH  24  27
BRANCH  21  38
ATOM     37  C   UNL     1       1.550   2.845  21.563  0.00  0.00    +0.000 C 
ATOM     38  O   UNL     1       1.276   3.782  20.505  0.00  0.00    +0.000 OA
ENDBRANCH  21  38
ENDBRANCH   1  26
TORSDOF 5
ENDMDL
