MODEL 1
REMARK VINA RESULT:      -8.0      0.000      0.000
REMARK  Name = 
REMARK  5 active torsions:
REMARK  status: ('A' for Active; 'I' for Inactive)
REMARK    1  A    between atoms: C_1  and  O_2
REMARK    2  A    between atoms: O_2  and  C_3
REMARK    3  A    between atoms: C_7  and  N_8
REMARK    4  A    between atoms: C_9  and  C_11
REMARK    5  A    between atoms: C_22  and  C_23
REMARK                            x       y       z     vdW  Elec       q    Type
REMARK                         _______ _______ _______ _____ _____    ______ ____
ROOT
ATOM      1  N   UNL     1      -1.075  12.074  19.363  0.00  0.00    +0.000 N 
ATOM      2  C   UNL     1      -0.346  13.292  19.330  0.00  0.00    +0.000 C 
ATOM      3  O   UNL     1      -0.849  14.412  19.196  0.00  0.00    +0.000 OA
ATOM      4  C   UNL     1      -0.418  10.900  19.684  0.00  0.00    +0.000 A 
ATOM      5  N   UNL     1       0.428  10.249  18.929  0.00  0.00    +0.000 NA
ATOM      6  C   UNL     1       0.947   9.168  19.611  0.00  0.00    +0.000 A 
ATOM      7  C   UNL     1       0.483   9.038  20.915  0.00  0.00    +0.000 A 
ATOM      8  S   UNL     1      -0.665  10.267  21.264  0.00  0.00    +0.000 S 
ENDROOT
BRANCH   2   9
ATOM      9  C   UNL     1       1.167  13.279  19.353  0.00  0.00    +0.000 A 
ATOM     10  C   UNL     1       1.984  13.422  18.207  0.00  0.00    +0.000 A 
ATOM     11  C   UNL     1       3.292  13.906  18.311  0.00  0.00    +0.000 A 
ATOM     12  C   UNL     1       3.779  14.121  19.576  0.00  0.00    +0.000 A 
ATOM     13  C   UNL     1       3.059  13.765  20.696  0.00  0.00    +0.000 A 
ATOM     14  C   UNL     1       1.760  13.309  20.616  0.00  0.00    +0.000 A 
ATOM     15  O   UNL     1       3.728  14.050  21.851  0.00  0.00    +0.000 OA
ATOM     16  C   UNL     1       4.732  14.937  21.316  0.00  0.00    +0.000 C 
ATOM     17  O   UNL     1       4.945  14.746  19.907  0.00  0.00    +0.000 OA
ENDBRANCH   2   9
BRANCH   6  18
ATOM     18  C   UNL     1       1.960   8.305  19.015  0.00  0.00    +0.000 A 
ATOM     19  C   UNL     1       2.644   8.734  17.863  0.00  0.00    +0.000 A 
ATOM     20  C   UNL     1       3.603   7.924  17.246  0.00  0.00    +0.000 A 
ATOM     21  C   UNL     1       3.882   6.662  17.770  0.00  0.00    +0.000 A 
ATOM     22 CL   UNL     1       5.061   5.669  17.013  0.00  0.00    +0.000 Cl
ATOM     23  C   UNL     1       3.215   6.213  18.901  0.00  0.00    +0.000 A 
ATOM     24  C   UNL     1       2.261   7.021  19.529  0.00  0.00    +0.000 A 
ATOM     25 CL   UNL     1       1.538   6.374  20.963  0.00  0.00    +0.000 Cl
ENDBRANCH   6  18
BRANCH   1  30
ATOM     26  C   UNL     1      -3.900  11.221  16.960  0.00  0.00    +0.000 A 
ATOM     27  C   UNL     1      -5.017  11.524  17.719  0.00  0.00    +0.000 A 
ATOM     28  C   UNL     1      -4.861  12.040  19.012  0.00  0.00    +0.000 A 
ATOM     29  C   UNL     1      -3.574  12.223  19.554  0.00  0.00    +0.000 A 
ATOM     30  C   UNL     1      -2.427  11.894  18.831  0.00  0.00    +0.000 A 
ATOM     31  C   UNL     1      -2.629  11.420  17.511  0.00  0.00    +0.000 A 
BRANCH  26  33
ATOM     32  C   UNL     1      -3.027  10.340  14.921  0.00  0.00    +0.000 C 
ATOM     33  O   UNL     1      -4.150  10.744  15.699  0.00  0.00    +0.000 OA
ENDBRANCH  26  33
ENDBRANCH   1  30
TORSDOF 4
ENDMDL
MODEL 2
REMARK VINA RESULT:      -7.9      1.321      1.759
REMARK  Name = 
REMARK  5 active torsions:
REMARK  status: ('A' for Active; 'I' for Inactive)
REMARK    1  A    between atoms: C_1  and  O_2
REMARK    2  A    between atoms: O_2  and  C_3
REMARK    3  A    between atoms: C_7  and  N_8
REMARK    4  A    between atoms: C_9  and  C_11
REMARK    5  A    between atoms: C_22  and  C_23
REMARK                            x       y       z     vdW  Elec       q    Type
REMARK                         _______ _______ _______ _____ _____    ______ ____
ROOT
ATOM      1  N   UNL     1      -1.442  12.517  20.429  0.00  0.00    +0.000 N 
ATOM      2  C   UNL     1      -0.663  13.662  20.118  0.00  0.00    +0.000 C 
ATOM      3  O   UNL     1      -1.118  14.796  19.938  0.00  0.00    +0.000 OA
ATOM      4  C   UNL     1      -0.805  11.337  20.770  0.00  0.00    +0.000 A 
ATOM      5  N   UNL     1      -0.154  10.542  19.962  0.00  0.00    +0.000 NA
ATOM      6  C   UNL     1       0.421   9.505  20.668  0.00  0.00    +0.000 A 
ATOM      7  C   UNL     1       0.202   9.558  22.040  0.00  0.00    +0.000 A 
ATOM      8  S   UNL     1      -0.788  10.903  22.435  0.00  0.00    +0.000 S 
ENDROOT
BRANCH   2   9
ATOM      9  C   UNL     1       0.824  13.532  19.871  0.00  0.00    +0.000 A 
ATOM     10  C   UNL     1       1.430  13.602  18.595  0.00  0.00    +0.000 A 
ATOM     11  C   UNL     1       2.769  13.984  18.454  0.00  0.00    +0.000 A 
ATOM     12  C   UNL     1       3.489  14.172  19.607  0.00  0.00    +0.000 A 
ATOM     13  C   UNL     1       2.957  13.883  20.844  0.00  0.00    +0.000 A 
ATOM     14  C   UNL     1       1.634  13.528  21.007  0.00  0.00    +0.000 A 
ATOM     15  O   UNL     1       3.841  14.126  21.855  0.00  0.00    +0.000 OA
ATOM     16  C   UNL     1       4.796  14.928  21.130  0.00  0.00    +0.000 C 
ATOM     17  O   UNL     1       4.739  14.708  19.710  0.00  0.00    +0.000 OA
ENDBRANCH   2   9
BRANCH   6  18
ATOM     18  C   UNL     1       1.254   8.505  20.012  0.00  0.00    +0.000 A 
ATOM     19  C   UNL     1       1.491   7.273  20.649  0.00  0.00    +0.000 A 
ATOM     20  C   UNL     1       2.305   6.299  20.065  0.00  0.00    +0.000 A 
ATOM     21  C   UNL     1       2.909   6.551  18.833  0.00  0.00    +0.000 A 
ATOM     22 CL   UNL     1       3.908   5.354  18.114  0.00  0.00    +0.000 Cl
ATOM     23  C   UNL     1       2.699   7.762  18.188  0.00  0.00    +0.000 A 
ATOM     24  C   UNL     1       1.876   8.738  18.762  0.00  0.00    +0.000 A 
ATOM     25 CL   UNL     1       1.646  10.182  17.836  0.00  0.00    +0.000 Cl
ENDBRANCH   6  18
BRANCH   1  30
ATOM     26  C   UNL     1      -4.712  11.771  18.632  0.00  0.00    +0.000 A 
ATOM     27  C   UNL     1      -5.647  12.111  19.593  0.00  0.00    +0.000 A 
ATOM     28  C   UNL     1      -5.222  12.618  20.828  0.00  0.00    +0.000 A 
ATOM     29  C   UNL     1      -3.848  12.754  21.107  0.00  0.00    +0.000 A 
ATOM     30  C   UNL     1      -2.877  12.386  20.174  0.00  0.00    +0.000 A 
ATOM     31  C   UNL     1      -3.352  11.923  18.921  0.00  0.00    +0.000 A 
BRANCH  26  33
ATOM     32  C   UNL     1      -4.312  11.159  16.360  0.00  0.00    +0.000 C 
ATOM     33  O   UNL     1      -5.221  11.307  17.446  0.00  0.00    +0.000 OA
ENDBRANCH  26  33
ENDBRANCH   1  30
TORSDOF 4
ENDMDL
MODEL 3
REMARK VINA RESULT:      -7.6      1.813      2.739
REMARK  Name = 
REMARK  5 active torsions:
REMARK  status: ('A' for Active; 'I' for Inactive)
REMARK    1  A    between atoms: C_1  and  O_2
REMARK    2  A    between atoms: O_2  and  C_3
REMARK    3  A    between atoms: C_7  and  N_8
REMARK    4  A    between atoms: C_9  and  C_11
REMARK    5  A    between atoms: C_22  and  C_23
REMARK                            x       y       z     vdW  Elec       q    Type
REMARK                         _______ _______ _______ _____ _____    ______ ____
ROOT
ATOM      1  N   UNL     1      -1.439  12.551  20.360  0.00  0.00    +0.000 N 
ATOM      2  C   UNL     1      -0.649  13.681  20.023  0.00  0.00    +0.000 C 
ATOM      3  O   UNL     1      -1.093  14.816  19.819  0.00  0.00    +0.000 OA
ATOM      4  C   UNL     1      -0.812  11.372  20.726  0.00  0.00    +0.000 A 
ATOM      5  N   UNL     1      -0.170  10.554  19.935  0.00  0.00    +0.000 NA
ATOM      6  C   UNL     1       0.396   9.527  20.664  0.00  0.00    +0.000 A 
ATOM      7  C   UNL     1       0.178   9.612  22.035  0.00  0.00    +0.000 A 
ATOM      8  S   UNL     1      -0.798  10.976  22.400  0.00  0.00    +0.000 S 
ENDROOT
BRANCH   2   9
ATOM      9  C   UNL     1       0.837  13.532  19.778  0.00  0.00    +0.000 A 
ATOM     10  C   UNL     1       1.443  13.572  18.500  0.00  0.00    +0.000 A 
ATOM     11  C   UNL     1       2.785  13.938  18.352  0.00  0.00    +0.000 A 
ATOM     12  C   UNL     1       3.508  14.139  19.500  0.00  0.00    +0.000 A 
ATOM     13  C   UNL     1       2.974  13.878  20.743  0.00  0.00    +0.000 A 
ATOM     14  C   UNL     1       1.648  13.539  20.913  0.00  0.00    +0.000 A 
ATOM     15  O   UNL     1       3.861  14.130  21.749  0.00  0.00    +0.000 OA
ATOM     16  C   UNL     1       4.824  14.909  21.009  0.00  0.00    +0.000 C 
ATOM     17  O   UNL     1       4.763  14.664  19.593  0.00  0.00    +0.000 OA
ENDBRANCH   2   9
BRANCH   6  18
ATOM     18  C   UNL     1       1.218   8.505  20.029  0.00  0.00    +0.000 A 
ATOM     19  C   UNL     1       1.440   7.283  20.691  0.00  0.00    +0.000 A 
ATOM     20  C   UNL     1       2.244   6.288  20.127  0.00  0.00    +0.000 A 
ATOM     21  C   UNL     1       2.852   6.509  18.892  0.00  0.00    +0.000 A 
ATOM     22 CL   UNL     1       3.839   5.287  18.198  0.00  0.00    +0.000 Cl
ATOM     23  C   UNL     1       2.657   7.709  18.222  0.00  0.00    +0.000 A 
ATOM     24  C   UNL     1       1.845   8.706  18.776  0.00  0.00    +0.000 A 
ATOM     25 CL   UNL     1       1.633  10.134  17.821  0.00  0.00    +0.000 Cl
ENDBRANCH   6  18
BRANCH   1  30
ATOM     26  C   UNL     1      -5.202  12.723  20.899  0.00  0.00    +0.000 A 
ATOM     27  C   UNL     1      -5.681  12.212  19.706  0.00  0.00    +0.000 A 
ATOM     28  C   UNL     1      -4.782  11.777  18.724  0.00  0.00    +0.000 A 
ATOM     29  C   UNL     1      -3.393  11.884  18.933  0.00  0.00    +0.000 A 
ATOM     30  C   UNL     1      -2.875  12.428  20.109  0.00  0.00    +0.000 A 
ATOM     31  C   UNL     1      -3.819  12.811  21.095  0.00  0.00    +0.000 A 
BRANCH  26  33
ATOM     32  C   UNL     1      -5.812  13.006  23.188  0.00  0.00    +0.000 C 
ATOM     33  O   UNL     1      -6.155  13.101  21.810  0.00  0.00    +0.000 OA
ENDBRANCH  26  33
ENDBRANCH   1  30
TORSDOF 4
ENDMDL
MODEL 4
REMARK VINA RESULT:      -7.6      3.672      7.200
REMARK  Name = 
REMARK  5 active torsions:
REMARK  status: ('A' for Active; 'I' for Inactive)
REMARK    1  A    between atoms: C_1  and  O_2
REMARK    2  A    between atoms: O_2  and  C_3
REMARK    3  A    between atoms: C_7  and  N_8
REMARK    4  A    between atoms: C_9  and  C_11
REMARK    5  A    between atoms: C_22  and  C_23
REMARK                            x       y       z     vdW  Elec       q    Type
REMARK                         _______ _______ _______ _____ _____    ______ ____
ROOT
ATOM      1  N   UNL     1       0.999   9.478  20.610  0.00  0.00    +0.000 N 
ATOM      2  C   UNL     1       1.080  10.054  21.905  0.00  0.00    +0.000 C 
ATOM      3  O   UNL     1       1.798   9.634  22.818  0.00  0.00    +0.000 OA
ATOM      4  C   UNL     1       0.286  10.134  19.621  0.00  0.00    +0.000 A 
ATOM      5  N   UNL     1      -1.014  10.241  19.539  0.00  0.00    +0.000 NA
ATOM      6  C   UNL     1      -1.364  11.037  18.467  0.00  0.00    +0.000 A 
ATOM      7  C   UNL     1      -0.283  11.546  17.756  0.00  0.00    +0.000 A 
ATOM      8  S   UNL     1       1.192  10.968  18.420  0.00  0.00    +0.000 S 
ENDROOT
BRANCH   2   9
ATOM      9  C   UNL     1       0.173  11.202  22.292  0.00  0.00    +0.000 A 
ATOM     10  C   UNL     1       0.272  12.510  21.764  0.00  0.00    +0.000 A 
ATOM     11  C   UNL     1      -0.837  13.363  21.741  0.00  0.00    +0.000 A 
ATOM     12  C   UNL     1      -1.980  12.916  22.356  0.00  0.00    +0.000 A 
ATOM     13  C   UNL     1      -2.002  11.736  23.067  0.00  0.00    +0.000 A 
ATOM     14  C   UNL     1      -0.929  10.871  23.081  0.00  0.00    +0.000 A 
ATOM     15  O   UNL     1      -3.229  11.484  23.610  0.00  0.00    +0.000 OA
ATOM     16  C   UNL     1      -4.010  12.428  22.847  0.00  0.00    +0.000 C 
ATOM     17  O   UNL     1      -3.214  13.496  22.305  0.00  0.00    +0.000 OA
ENDBRANCH   2   9
BRANCH   6  18
ATOM     18  C   UNL     1      -2.755  11.365  18.183  0.00  0.00    +0.000 A 
ATOM     19  C   UNL     1      -3.526  12.021  19.161  0.00  0.00    +0.000 A 
ATOM     20  C   UNL     1      -4.871  12.330  18.938  0.00  0.00    +0.000 A 
ATOM     21  C   UNL     1      -5.471  11.971  17.731  0.00  0.00    +0.000 A 
ATOM     22 CL   UNL     1      -7.123  12.351  17.455  0.00  0.00    +0.000 Cl
ATOM     23  C   UNL     1      -4.735  11.315  16.753  0.00  0.00    +0.000 A 
ATOM     24  C   UNL     1      -3.386  11.013  16.966  0.00  0.00    +0.000 A 
ATOM     25 CL   UNL     1      -2.560  10.245  15.652  0.00  0.00    +0.000 Cl
ENDBRANCH   6  18
BRANCH   1  30
ATOM     26  C   UNL     1       2.555   6.540  18.760  0.00  0.00    +0.000 A 
ATOM     27  C   UNL     1       2.173   5.473  19.553  0.00  0.00    +0.000 A 
ATOM     28  C   UNL     1       1.376   5.696  20.684  0.00  0.00    +0.000 A 
ATOM     29  C   UNL     1       0.989   7.004  21.033  0.00  0.00    +0.000 A 
ATOM     30  C   UNL     1       1.386   8.107  20.277  0.00  0.00    +0.000 A 
ATOM     31  C   UNL     1       2.150   7.831  19.115  0.00  0.00    +0.000 A 
BRANCH  26  33
ATOM     32  C   UNL     1       4.002   4.977  17.684  0.00  0.00    +0.000 C 
ATOM     33  O   UNL     1       3.312   6.222  17.661  0.00  0.00    +0.000 OA
ENDBRANCH  26  33
ENDBRANCH   1  30
TORSDOF 4
ENDMDL
MODEL 5
REMARK VINA RESULT:      -7.5      0.972      1.652
REMARK  Name = 
REMARK  5 active torsions:
REMARK  status: ('A' for Active; 'I' for Inactive)
REMARK    1  A    between atoms: C_1  and  O_2
REMARK    2  A    between atoms: O_2  and  C_3
REMARK    3  A    between atoms: C_7  and  N_8
REMARK    4  A    between atoms: C_9  and  C_11
REMARK    5  A    between atoms: C_22  and  C_23
REMARK                            x       y       z     vdW  Elec       q    Type
REMARK                         _______ _______ _______ _____ _____    ______ ____
ROOT
ATOM      1  N   UNL     1      -1.114  12.044  19.404  0.00  0.00    +0.000 N 
ATOM      2  C   UNL     1      -0.393  13.266  19.364  0.00  0.00    +0.000 C 
ATOM      3  O   UNL     1      -0.906  14.383  19.235  0.00  0.00    +0.000 OA
ATOM      4  C   UNL     1      -0.445  10.874  19.717  0.00  0.00    +0.000 A 
ATOM      5  N   UNL     1       0.397  10.229  18.953  0.00  0.00    +0.000 NA
ATOM      6  C   UNL     1       0.931   9.151  19.630  0.00  0.00    +0.000 A 
ATOM      7  C   UNL     1       0.481   9.018  20.939  0.00  0.00    +0.000 A 
ATOM      8  S   UNL     1      -0.671  10.239  21.300  0.00  0.00    +0.000 S 
ENDROOT
BRANCH   2   9
ATOM      9  C   UNL     1       1.120  13.264  19.370  0.00  0.00    +0.000 A 
ATOM     10  C   UNL     1       1.924  13.412  18.216  0.00  0.00    +0.000 A 
ATOM     11  C   UNL     1       3.230  13.905  18.306  0.00  0.00    +0.000 A 
ATOM     12  C   UNL     1       3.729  14.124  19.565  0.00  0.00    +0.000 A 
ATOM     13  C   UNL     1       3.023  13.763  20.693  0.00  0.00    +0.000 A 
ATOM     14  C   UNL     1       1.727  13.298  20.627  0.00  0.00    +0.000 A 
ATOM     15  O   UNL     1       3.702  14.053  21.841  0.00  0.00    +0.000 OA
ATOM     16  C   UNL     1       4.694  14.947  21.294  0.00  0.00    +0.000 C 
ATOM     17  O   UNL     1       4.894  14.757  19.883  0.00  0.00    +0.000 OA
ENDBRANCH   2   9
BRANCH   6  18
ATOM     18  C   UNL     1       1.943   8.296  19.023  0.00  0.00    +0.000 A 
ATOM     19  C   UNL     1       2.620   8.734  17.870  0.00  0.00    +0.000 A 
ATOM     20  C   UNL     1       3.578   7.932  17.243  0.00  0.00    +0.000 A 
ATOM     21  C   UNL     1       3.864   6.667  17.756  0.00  0.00    +0.000 A 
ATOM     22 CL   UNL     1       5.041   5.681  16.987  0.00  0.00    +0.000 Cl
ATOM     23  C   UNL     1       3.203   6.207  18.888  0.00  0.00    +0.000 A 
ATOM     24  C   UNL     1       2.250   7.009  19.526  0.00  0.00    +0.000 A 
ATOM     25 CL   UNL     1       1.536   6.350  20.959  0.00  0.00    +0.000 Cl
ENDBRANCH   6  18
BRANCH   1  30
ATOM     26  C   UNL     1      -4.913  12.090  19.197  0.00  0.00    +0.000 A 
ATOM     27  C   UNL     1      -5.135  11.512  17.960  0.00  0.00    +0.000 A 
ATOM     28  C   UNL     1      -4.050  11.071  17.192  0.00  0.00    +0.000 A 
ATOM     29  C   UNL     1      -2.732  11.242  17.660  0.00  0.00    +0.000 A 
ATOM     30  C   UNL     1      -2.470  11.854  18.886  0.00  0.00    +0.000 A 
ATOM     31  C   UNL     1      -3.598  12.241  19.651  0.00  0.00    +0.000 A 
BRANCH  26  33
ATOM     32  C   UNL     1      -7.162  11.598  19.824  0.00  0.00    +0.000 C 
ATOM     33  O   UNL     1      -6.037  12.468  19.887  0.00  0.00    +0.000 OA
ENDBRANCH  26  33
ENDBRANCH   1  30
TORSDOF 4
ENDMDL
MODEL 6
REMARK VINA RESULT:      -7.4      3.790      7.374
REMARK  Name = 
REMARK  5 active torsions:
REMARK  status: ('A' for Active; 'I' for Inactive)
REMARK    1  A    between atoms: C_1  and  O_2
REMARK    2  A    between atoms: O_2  and  C_3
REMARK    3  A    between atoms: C_7  and  N_8
REMARK    4  A    between atoms: C_9  and  C_11
REMARK    5  A    between atoms: C_22  and  C_23
REMARK                            x       y       z     vdW  Elec       q    Type
REMARK                         _______ _______ _______ _____ _____    ______ ____
ROOT
ATOM      1  N   UNL     1       0.952   9.933  20.390  0.00  0.00    +0.000 N 
ATOM      2  C   UNL     1       1.052  10.385  21.732  0.00  0.00    +0.000 C 
ATOM      3  O   UNL     1       1.834   9.929  22.572  0.00  0.00    +0.000 OA
ATOM      4  C   UNL     1       0.156  10.632  19.499  0.00  0.00    +0.000 A 
ATOM      5  N   UNL     1      -1.151  10.657  19.475  0.00  0.00    +0.000 NA
ATOM      6  C   UNL     1      -1.597  11.528  18.501  0.00  0.00    +0.000 A 
ATOM      7  C   UNL     1      -0.582  12.175  17.806  0.00  0.00    +0.000 A 
ATOM      8  S   UNL     1       0.954  11.638  18.353  0.00  0.00    +0.000 S 
ENDROOT
BRANCH   2   9
ATOM      9  C   UNL     1       0.091  11.426  22.264  0.00  0.00    +0.000 A 
ATOM     10  C   UNL     1       0.094  12.787  21.879  0.00  0.00    +0.000 A 
ATOM     11  C   UNL     1      -1.064  13.565  21.978  0.00  0.00    +0.000 A 
ATOM     12  C   UNL     1      -2.158  12.985  22.569  0.00  0.00    +0.000 A 
ATOM     13  C   UNL     1      -2.086  11.737  23.148  0.00  0.00    +0.000 A 
ATOM     14  C   UNL     1      -0.963  10.944  23.041  0.00  0.00    +0.000 A 
ATOM     15  O   UNL     1      -3.278  11.352  23.692  0.00  0.00    +0.000 OA
ATOM     16  C   UNL     1      -4.138  12.320  23.056  0.00  0.00    +0.000 C 
ATOM     17  O   UNL     1      -3.424  13.488  22.613  0.00  0.00    +0.000 OA
ENDBRANCH   2   9
BRANCH   6  18
ATOM     18  C   UNL     1      -3.017  11.787  18.303  0.00  0.00    +0.000 A 
ATOM     19  C   UNL     1      -3.783  12.300  19.366  0.00  0.00    +0.000 A 
ATOM     20  C   UNL     1      -5.154  12.536  19.225  0.00  0.00    +0.000 A 
ATOM     21  C   UNL     1      -5.783  12.248  18.014  0.00  0.00    +0.000 A 
ATOM     22 CL   UNL     1      -7.466  12.540  17.839  0.00  0.00    +0.000 Cl
ATOM     23  C   UNL     1      -5.051  11.733  16.952  0.00  0.00    +0.000 A 
ATOM     24  C   UNL     1      -3.677  11.503  17.084  0.00  0.00    +0.000 A 
ATOM     25 CL   UNL     1      -2.865  10.913  15.674  0.00  0.00    +0.000 Cl
ENDBRANCH   6  18
BRANCH   1  30
ATOM     26  C   UNL     1       1.806   6.226  20.339  0.00  0.00    +0.000 A 
ATOM     27  C   UNL     1       2.296   6.067  19.055  0.00  0.00    +0.000 A 
ATOM     28  C   UNL     1       2.382   7.173  18.201  0.00  0.00    +0.000 A 
ATOM     29  C   UNL     1       1.945   8.441  18.633  0.00  0.00    +0.000 A 
ATOM     30  C   UNL     1       1.412   8.630  19.908  0.00  0.00    +0.000 A 
ATOM     31  C   UNL     1       1.387   7.494  20.756  0.00  0.00    +0.000 A 
BRANCH  26  33
ATOM     32  C   UNL     1       1.108   3.956  20.578  0.00  0.00    +0.000 C 
ATOM     33  O   UNL     1       1.782   5.092  21.111  0.00  0.00    +0.000 OA
ENDBRANCH  26  33
ENDBRANCH   1  30
TORSDOF 4
ENDMDL
MODEL 7
REMARK VINA RESULT:      -7.4      2.084      2.724
REMARK  Name = 
REMARK  5 active torsions:
REMARK  status: ('A' for Active; 'I' for Inactive)
REMARK    1  A    between atoms: C_1  and  O_2
REMARK    2  A    between atoms: O_2  and  C_3
REMARK    3  A    between atoms: C_7  and  N_8
REMARK    4  A    between atoms: C_9  and  C_11
REMARK    5  A    between atoms: C_22  and  C_23
REMARK                            x       y       z     vdW  Elec       q    Type
REMARK                         _______ _______ _______ _____ _____    ______ ____
ROOT
ATOM      1  N   UNL     1      -2.156  13.049  21.284  0.00  0.00    +0.000 N 
ATOM      2  C   UNL     1      -1.474  14.267  21.027  0.00  0.00    +0.000 C 
ATOM      3  O   UNL     1      -2.010  15.380  20.987  0.00  0.00    +0.000 OA
ATOM      4  C   UNL     1      -1.424  11.889  21.468  0.00  0.00    +0.000 A 
ATOM      5  N   UNL     1      -0.789  11.215  20.546  0.00  0.00    +0.000 NA
ATOM      6  C   UNL     1      -0.099  10.161  21.111  0.00  0.00    +0.000 A 
ATOM      7  C   UNL     1      -0.218  10.077  22.494  0.00  0.00    +0.000 A 
ATOM      8  S   UNL     1      -1.256  11.312  23.080  0.00  0.00    +0.000 S 
ENDROOT
BRANCH   2   9
ATOM      9  C   UNL     1      -0.005  14.261  20.667  0.00  0.00    +0.000 A 
ATOM     10  C   UNL     1       0.500  14.499  19.367  0.00  0.00    +0.000 A 
ATOM     11  C   UNL     1       1.799  14.980  19.176  0.00  0.00    +0.000 A 
ATOM     12  C   UNL     1       2.591  15.098  20.290  0.00  0.00    +0.000 A 
ATOM     13  C   UNL     1       2.171  14.650  21.524  0.00  0.00    +0.000 A 
ATOM     14  C   UNL     1       0.888  14.195  21.738  0.00  0.00    +0.000 A 
ATOM     15  O   UNL     1       3.113  14.848  22.492  0.00  0.00    +0.000 OA
ATOM     16  C   UNL     1       3.963  15.780  21.791  0.00  0.00    +0.000 C 
ATOM     17  O   UNL     1       3.812  15.701  20.363  0.00  0.00    +0.000 OA
ENDBRANCH   2   9
BRANCH   6  18
ATOM     18  C   UNL     1       0.741   9.282  20.308  0.00  0.00    +0.000 A 
ATOM     19  C   UNL     1       1.184   8.061  20.849  0.00  0.00    +0.000 A 
ATOM     20  C   UNL     1       2.013   7.203  20.121  0.00  0.00    +0.000 A 
ATOM     21  C   UNL     1       2.424   7.563  18.838  0.00  0.00    +0.000 A 
ATOM     22 CL   UNL     1       3.441   6.509  17.942  0.00  0.00    +0.000 Cl
ATOM     23  C   UNL     1       2.008   8.766  18.284  0.00  0.00    +0.000 A 
ATOM     24  C   UNL     1       1.170   9.626  19.003  0.00  0.00    +0.000 A 
ATOM     25 CL   UNL     1       0.674  11.068  18.185  0.00  0.00    +0.000 Cl
ENDBRANCH   6  18
BRANCH   1  30
ATOM     26  C   UNL     1      -5.506  12.297  19.643  0.00  0.00    +0.000 A 
ATOM     27  C   UNL     1      -6.380  12.439  20.707  0.00  0.00    +0.000 A 
ATOM     28  C   UNL     1      -5.890  12.814  21.965  0.00  0.00    +0.000 A 
ATOM     29  C   UNL     1      -4.509  13.015  22.159  0.00  0.00    +0.000 A 
ATOM     30  C   UNL     1      -3.596  12.845  21.117  0.00  0.00    +0.000 A 
ATOM     31  C   UNL     1      -4.139  12.513  19.851  0.00  0.00    +0.000 A 
BRANCH  26  33
ATOM     32  C   UNL     1      -6.777  10.713  18.390  0.00  0.00    +0.000 C 
ATOM     33  O   UNL     1      -6.079  11.953  18.445  0.00  0.00    +0.000 OA
ENDBRANCH  26  33
ENDBRANCH   1  30
TORSDOF 4
ENDMDL
MODEL 8
REMARK VINA RESULT:      -7.3      2.439      3.433
REMARK  Name = 
REMARK  5 active torsions:
REMARK  status: ('A' for Active; 'I' for Inactive)
REMARK    1  A    between atoms: C_1  and  O_2
REMARK    2  A    between atoms: O_2  and  C_3
REMARK    3  A    between atoms: C_7  and  N_8
REMARK    4  A    between atoms: C_9  and  C_11
REMARK    5  A    between atoms: C_22  and  C_23
REMARK                            x       y       z     vdW  Elec       q    Type
REMARK                         _______ _______ _______ _____ _____    ______ ____
ROOT
ATOM      1  N   UNL     1      -2.287  13.013  21.079  0.00  0.00    +0.000 N 
ATOM      2  C   UNL     1      -1.596  14.219  20.790  0.00  0.00    +0.000 C 
ATOM      3  O   UNL     1      -2.130  15.326  20.667  0.00  0.00    +0.000 OA
ATOM      4  C   UNL     1      -1.562  11.868  21.357  0.00  0.00    +0.000 A 
ATOM      5  N   UNL     1      -0.884  11.148  20.502  0.00  0.00    +0.000 NA
ATOM      6  C   UNL     1      -0.220  10.128  21.153  0.00  0.00    +0.000 A 
ATOM      7  C   UNL     1      -0.402  10.116  22.531  0.00  0.00    +0.000 A 
ATOM      8  S   UNL     1      -1.467  11.377  23.003  0.00  0.00    +0.000 S 
ENDROOT
BRANCH   2   9
ATOM      9  C   UNL     1      -0.111  14.200  20.498  0.00  0.00    +0.000 A 
ATOM     10  C   UNL     1       0.454  14.413  19.219  0.00  0.00    +0.000 A 
ATOM     11  C   UNL     1       1.763  14.884  19.080  0.00  0.00    +0.000 A 
ATOM     12  C   UNL     1       2.504  15.017  20.227  0.00  0.00    +0.000 A 
ATOM     13  C   UNL     1       2.025  14.593  21.448  0.00  0.00    +0.000 A 
ATOM     14  C   UNL     1       0.730  14.147  21.611  0.00  0.00    +0.000 A 
ATOM     15  O   UNL     1       2.923  14.802  22.455  0.00  0.00    +0.000 OA
ATOM     16  C   UNL     1       3.809  15.718  21.779  0.00  0.00    +0.000 C 
ATOM     17  O   UNL     1       3.724  15.616  20.347  0.00  0.00    +0.000 OA
ENDBRANCH   2   9
BRANCH   6  18
ATOM     18  C   UNL     1       0.658   9.211  20.437  0.00  0.00    +0.000 A 
ATOM     19  C   UNL     1       1.052   8.007  21.050  0.00  0.00    +0.000 A 
ATOM     20  C   UNL     1       1.914   7.115  20.406  0.00  0.00    +0.000 A 
ATOM     21  C   UNL     1       2.407   7.422  19.139  0.00  0.00    +0.000 A 
ATOM     22 CL   UNL     1       3.465   6.325  18.347  0.00  0.00    +0.000 Cl
ATOM     23  C   UNL     1       2.041   8.608  18.516  0.00  0.00    +0.000 A 
ATOM     24  C   UNL     1       1.170   9.501  19.149  0.00  0.00    +0.000 A 
ATOM     25 CL   UNL     1       0.743  10.917  18.250  0.00  0.00    +0.000 Cl
ENDBRANCH   6  18
BRANCH   1  30
ATOM     26  C   UNL     1      -6.024  12.769  21.752  0.00  0.00    +0.000 A 
ATOM     27  C   UNL     1      -6.509  12.379  20.516  0.00  0.00    +0.000 A 
ATOM     28  C   UNL     1      -5.618  12.161  19.457  0.00  0.00    +0.000 A 
ATOM     29  C   UNL     1      -4.236  12.366  19.636  0.00  0.00    +0.000 A 
ATOM     30  C   UNL     1      -3.717  12.794  20.858  0.00  0.00    +0.000 A 
ATOM     31  C   UNL     1      -4.647  12.957  21.915  0.00  0.00    +0.000 A 
BRANCH  26  33
ATOM     32  C   UNL     1      -6.652  13.833  23.793  0.00  0.00    +0.000 C 
ATOM     33  O   UNL     1      -6.967  12.935  22.734  0.00  0.00    +0.000 OA
ENDBRANCH  26  33
ENDBRANCH   1  30
TORSDOF 4
ENDMDL
MODEL 9
REMARK VINA RESULT:      -7.3      3.778      7.178
REMARK  Name = 
REMARK  5 active torsions:
REMARK  status: ('A' for Active; 'I' for Inactive)
REMARK    1  A    between atoms: C_1  and  O_2
REMARK    2  A    between atoms: O_2  and  C_3
REMARK    3  A    between atoms: C_7  and  N_8
REMARK    4  A    between atoms: C_9  and  C_11
REMARK    5  A    between atoms: C_22  and  C_23
REMARK                            x       y       z     vdW  Elec       q    Type
REMARK                         _______ _______ _______ _____ _____    ______ ____
ROOT
ATOM      1  N   UNL     1       0.268  11.807  19.466  0.00  0.00    +0.000 N 
ATOM      2  C   UNL     1       1.056  12.987  19.400  0.00  0.00    +0.000 C 
ATOM      3  O   UNL     1       2.273  13.010  19.194  0.00  0.00    +0.000 OA
ATOM      4  C   UNL     1      -1.110  11.917  19.537  0.00  0.00    +0.000 A 
ATOM      5  N   UNL     1      -1.808  12.313  20.569  0.00  0.00    +0.000 NA
ATOM      6  C   UNL     1      -3.148  12.377  20.246  0.00  0.00    +0.000 A 
ATOM      7  C   UNL     1      -3.435  12.038  18.928  0.00  0.00    +0.000 A 
ATOM      8  S   UNL     1      -2.000  11.582  18.104  0.00  0.00    +0.000 S 
ENDROOT
BRANCH   2   9
ATOM      9  C   UNL     1       0.440  14.337  19.696  0.00  0.00    +0.000 A 
ATOM     10  C   UNL     1       0.562  15.015  20.931  0.00  0.00    +0.000 A 
ATOM     11  C   UNL     1       0.439  16.407  21.003  0.00  0.00    +0.000 A 
ATOM     12  C   UNL     1       0.082  17.062  19.851  0.00  0.00    +0.000 A 
ATOM     13  C   UNL     1      -0.257  16.375  18.707  0.00  0.00    +0.000 A 
ATOM     14  C   UNL     1      -0.120  15.006  18.608  0.00  0.00    +0.000 A 
ATOM     15  O   UNL     1      -0.593  17.212  17.683  0.00  0.00    +0.000 OA
ATOM     16  C   UNL     1      -0.064  18.443  18.217  0.00  0.00    +0.000 C 
ATOM     17  O   UNL     1       0.076  18.411  19.648  0.00  0.00    +0.000 OA
ENDBRANCH   2   9
BRANCH   6  18
ATOM     18  C   UNL     1      -4.141  12.847  21.204  0.00  0.00    +0.000 A 
ATOM     19  C   UNL     1      -5.288  13.518  20.740  0.00  0.00    +0.000 A 
ATOM     20  C   UNL     1      -6.250  14.007  21.629  0.00  0.00    +0.000 A 
ATOM     21  C   UNL     1      -6.070  13.842  23.002  0.00  0.00    +0.000 A 
ATOM     22 CL   UNL     1      -7.252  14.442  24.094  0.00  0.00    +0.000 Cl
ATOM     23  C   UNL     1      -4.943  13.192  23.485  0.00  0.00    +0.000 A 
ATOM     24  C   UNL     1      -3.980  12.691  22.601  0.00  0.00    +0.000 A 
ATOM     25 CL   UNL     1      -2.649  11.850  23.320  0.00  0.00    +0.000 Cl
ENDBRANCH   6  18
BRANCH   1  30
ATOM     26  C   UNL     1       1.878   8.408  18.891  0.00  0.00    +0.000 A 
ATOM     27  C   UNL     1       1.816   7.849  20.154  0.00  0.00    +0.000 A 
ATOM     28  C   UNL     1       1.220   8.561  21.203  0.00  0.00    +0.000 A 
ATOM     29  C   UNL     1       0.711   9.857  20.982  0.00  0.00    +0.000 A 
ATOM     30  C   UNL     1       0.790  10.466  19.730  0.00  0.00    +0.000 A 
ATOM     31  C   UNL     1       1.357   9.691  18.687  0.00  0.00    +0.000 A 
BRANCH  26  33
ATOM     32  C   UNL     1       3.090   6.425  18.349  0.00  0.00    +0.000 C 
ATOM     33  O   UNL     1       2.457   7.627  17.923  0.00  0.00    +0.000 OA
ENDBRANCH  26  33
ENDBRANCH   1  30
TORSDOF 4
ENDMDL
