MODEL 1
REMARK VINA RESULT:      -9.1      0.000      0.000
REMARK  Name = 
REMARK  5 active torsions:
REMARK  status: ('A' for Active; 'I' for Inactive)
REMARK    1  A    between atoms: C_2  and  C_23
REMARK    2  A    between atoms: N_3  and  C_4
REMARK    3  A    between atoms: C_9  and  N_10
REMARK    4  A    between atoms: C_11  and  C_13
REMARK    5  A    between atoms: C_26  and  N_27
REMARK                            x       y       z     vdW  Elec       q    Type
REMARK                         _______ _______ _______ _____ _____    ______ ____
ROOT
ATOM      1  C   UNL     1       4.943   6.074  17.437  0.00  0.00    +0.000 C 
ATOM      2  C   UNL     1       4.381   4.672  17.150  0.00  0.00    +0.000 C 
ATOM      3  C   UNL     1       5.454   3.673  16.730  0.00  0.00    +0.000 C 
ATOM      4  C   UNL     1       6.208   4.182  15.516  0.00  0.00    +0.000 C 
ATOM      5  C   UNL     1       6.893   5.502  15.840  0.00  0.00    +0.000 C 
ATOM      6  C   UNL     1       5.908   6.590  16.316  0.00  0.00    +0.000 C 
ENDROOT
BRANCH   1   9
ATOM      7  O   UNL     1       3.242   6.122  19.712  0.00  0.00    +0.000 OA
ATOM      8  C   UNL     1       3.079   6.985  18.846  0.00  0.00    +0.000 C 
ATOM      9  N   UNL     1       3.826   7.007  17.680  0.00  0.00    +0.000 N 
ATOM     10  H   UNL     1       3.589   7.676  16.961  0.00  0.00    +0.000 HD
BRANCH   8  11
ATOM     11  C   UNL     1       2.052   8.049  19.047  0.00  0.00    +0.000 A 
ATOM     12  C   UNL     1       1.684   8.960  18.050  0.00  0.00    +0.000 A 
ATOM     13  C   UNL     1       0.757   9.979  18.327  0.00  0.00    +0.000 A 
ATOM     14  C   UNL     1       0.217  10.132  19.611  0.00  0.00    +0.000 A 
ATOM     15  C   UNL     1       0.597   9.230  20.612  0.00  0.00    +0.000 A 
ATOM     16  C   UNL     1       1.489   8.188  20.327  0.00  0.00    +0.000 A 
BRANCH  14  17
ATOM     17  N   UNL     1      -0.697  11.194  19.905  0.00  0.00    +0.000 N 
ATOM     18  C   UNL     1      -1.923  11.277  19.248  0.00  0.00    +0.000 A 
ATOM     19  C   UNL     1      -2.796  12.261  19.498  0.00  0.00    +0.000 A 
ATOM     20  C   UNL     1      -2.455  13.308  20.422  0.00  0.00    +0.000 A 
ATOM     21  C   UNL     1      -1.291  13.275  21.078  0.00  0.00    +0.000 A 
ATOM     22  C   UNL     1      -0.330  12.150  20.872  0.00  0.00    +0.000 A 
ATOM     23  O   UNL     1       0.718  12.162  21.518  0.00  0.00    +0.000 OA
ENDBRANCH  14  17
ENDBRANCH   8  11
ENDBRANCH   1   9
BRANCH   6  24
ATOM     24  N   UNL     1       6.655   7.776  16.763  0.00  0.00    +0.000 N 
ATOM     25  C   UNL     1       7.588   7.731  17.773  0.00  0.00    +0.000 C 
ATOM     26  O   UNL     1       7.876   6.704  18.382  0.00  0.00    +0.000 OA
ATOM     27  H   UNL     1       6.475   8.651  16.273  0.00  0.00    +0.000 HD
BRANCH  25  28
ATOM     28  C   UNL     1       8.246   9.011  18.160  0.00  0.00    +0.000 A 
ATOM     29  C   UNL     1       9.113   9.107  19.251  0.00  0.00    +0.000 A 
ATOM     30  C   UNL     1       9.639  10.351  19.636  0.00  0.00    +0.000 A 
ATOM     31  C   UNL     1       9.302  11.514  18.910  0.00  0.00    +0.000 A 
ATOM     32  C   UNL     1       9.600  12.901  19.034  0.00  0.00    +0.000 A 
ATOM     33 CL   UNL     1      10.526  13.613  20.270  0.00  0.00    +0.000 Cl
ATOM     34  C   UNL     1       8.991  13.565  17.995  0.00  0.00    +0.000 A 
ATOM     35  N   UNL     1       8.322  12.633  17.243  0.00  0.00    +0.000 N 
ATOM     36  C   UNL     1       8.466  11.381  17.799  0.00  0.00    +0.000 A 
ATOM     37  C   UNL     1       7.919  10.155  17.410  0.00  0.00    +0.000 A 
ATOM     38  H   UNL     1       7.784  12.832  16.411  0.00  0.00    +0.000 HD
ENDBRANCH  25  28
ENDBRANCH   6  24
TORSDOF 5
ENDMDL
MODEL 2
REMARK VINA RESULT:      -9.1      0.817      1.156
REMARK  Name = 
REMARK  5 active torsions:
REMARK  status: ('A' for Active; 'I' for Inactive)
REMARK    1  A    between atoms: C_2  and  C_23
REMARK    2  A    between atoms: N_3  and  C_4
REMARK    3  A    between atoms: C_9  and  N_10
REMARK    4  A    between atoms: C_11  and  C_13
REMARK    5  A    between atoms: C_26  and  N_27
REMARK                            x       y       z     vdW  Elec       q    Type
REMARK                         _______ _______ _______ _____ _____    ______ ____
ROOT
ATOM      1  C   UNL     1       4.979   6.033  17.392  0.00  0.00    +0.000 C 
ATOM      2  C   UNL     1       4.434   4.625  17.099  0.00  0.00    +0.000 C 
ATOM      3  C   UNL     1       5.520   3.636  16.691  0.00  0.00    +0.000 C 
ATOM      4  C   UNL     1       6.281   4.152  15.484  0.00  0.00    +0.000 C 
ATOM      5  C   UNL     1       6.950   5.477  15.814  0.00  0.00    +0.000 C 
ATOM      6  C   UNL     1       5.951   6.557  16.279  0.00  0.00    +0.000 C 
ENDROOT
BRANCH   1   9
ATOM      7  O   UNL     1       3.314   6.127  19.691  0.00  0.00    +0.000 OA
ATOM      8  C   UNL     1       3.123   6.960  18.800  0.00  0.00    +0.000 C 
ATOM      9  N   UNL     1       3.851   6.955  17.623  0.00  0.00    +0.000 N 
ATOM     10  H   UNL     1       3.592   7.597  16.886  0.00  0.00    +0.000 HD
BRANCH   8  11
ATOM     11  C   UNL     1       2.082   8.013  18.984  0.00  0.00    +0.000 A 
ATOM     12  C   UNL     1       1.698   8.898  17.971  0.00  0.00    +0.000 A 
ATOM     13  C   UNL     1       0.758   9.910  18.231  0.00  0.00    +0.000 A 
ATOM     14  C   UNL     1       0.220  10.081  19.514  0.00  0.00    +0.000 A 
ATOM     15  C   UNL     1       0.617   9.205  20.531  0.00  0.00    +0.000 A 
ATOM     16  C   UNL     1       1.522   8.170  20.264  0.00  0.00    +0.000 A 
BRANCH  14  17
ATOM     17  N   UNL     1      -0.706  11.136  19.791  0.00  0.00    +0.000 N 
ATOM     18  C   UNL     1      -0.397  12.126  20.721  0.00  0.00    +0.000 A 
ATOM     19  C   UNL     1      -1.245  13.123  21.005  0.00  0.00    +0.000 A 
ATOM     20  C   UNL     1      -2.544  13.159  20.389  0.00  0.00    +0.000 A 
ATOM     21  C   UNL     1      -2.890  12.232  19.490  0.00  0.00    +0.000 A 
ATOM     22  C   UNL     1      -1.934  11.151  19.102  0.00  0.00    +0.000 A 
ATOM     23  O   UNL     1      -2.300  10.337  18.254  0.00  0.00    +0.000 OA
ENDBRANCH  14  17
ENDBRANCH   8  11
ENDBRANCH   1   9
BRANCH   6  24
ATOM     24  N   UNL     1       6.681   7.751  16.732  0.00  0.00    +0.000 N 
ATOM     25  C   UNL     1       7.592   7.718  17.764  0.00  0.00    +0.000 C 
ATOM     26  O   UNL     1       7.871   6.698  18.388  0.00  0.00    +0.000 OA
ATOM     27  H   UNL     1       6.509   8.620  16.231  0.00  0.00    +0.000 HD
BRANCH  25  28
ATOM     28  C   UNL     1       8.235   9.005  18.154  0.00  0.00    +0.000 A 
ATOM     29  C   UNL     1       9.101   9.108  19.246  0.00  0.00    +0.000 A 
ATOM     30  C   UNL     1       9.612  10.357  19.634  0.00  0.00    +0.000 A 
ATOM     31  C   UNL     1       9.263  11.518  18.911  0.00  0.00    +0.000 A 
ATOM     32  C   UNL     1       9.545  12.908  19.039  0.00  0.00    +0.000 A 
ATOM     33 CL   UNL     1      10.462  13.627  20.277  0.00  0.00    +0.000 Cl
ATOM     34  C   UNL     1       8.930  13.567  18.000  0.00  0.00    +0.000 A 
ATOM     35  N   UNL     1       8.271  12.630  17.246  0.00  0.00    +0.000 N 
ATOM     36  C   UNL     1       8.428  11.378  17.799  0.00  0.00    +0.000 A 
ATOM     37  C   UNL     1       7.896  10.147  17.406  0.00  0.00    +0.000 A 
ATOM     38  H   UNL     1       7.732  12.825  16.414  0.00  0.00    +0.000 HD
ENDBRANCH  25  28
ENDBRANCH   6  24
TORSDOF 5
ENDMDL
MODEL 3
REMARK VINA RESULT:      -9.0      3.776      8.875
REMARK  Name = 
REMARK  5 active torsions:
REMARK  status: ('A' for Active; 'I' for Inactive)
REMARK    1  A    between atoms: C_2  and  C_23
REMARK    2  A    between atoms: N_3  and  C_4
REMARK    3  A    between atoms: C_9  and  N_10
REMARK    4  A    between atoms: C_11  and  C_13
REMARK    5  A    between atoms: C_26  and  N_27
REMARK                            x       y       z     vdW  Elec       q    Type
REMARK                         _______ _______ _______ _____ _____    ______ ____
ROOT
ATOM      1  C   UNL     1      -0.369  12.292  19.483  0.00  0.00    +0.000 C 
ATOM      2  C   UNL     1      -1.494  13.255  19.895  0.00  0.00    +0.000 C 
ATOM      3  C   UNL     1      -2.839  12.560  20.077  0.00  0.00    +0.000 C 
ATOM      4  C   UNL     1      -3.233  11.824  18.809  0.00  0.00    +0.000 C 
ATOM      5  C   UNL     1      -2.195  10.763  18.476  0.00  0.00    +0.000 C 
ATOM      6  C   UNL     1      -0.776  11.343  18.303  0.00  0.00    +0.000 C 
ENDROOT
BRANCH   1   9
ATOM      7  O   UNL     1       1.600  13.150  21.341  0.00  0.00    +0.000 OA
ATOM      8  C   UNL     1       1.780  13.399  20.146  0.00  0.00    +0.000 C 
ATOM      9  N   UNL     1       0.849  13.066  19.177  0.00  0.00    +0.000 N 
ATOM     10  H   UNL     1       1.000  13.376  18.227  0.00  0.00    +0.000 HD
BRANCH   8  11
ATOM     11  C   UNL     1       3.038  14.077  19.714  0.00  0.00    +0.000 A 
ATOM     12  C   UNL     1       3.348  14.338  18.374  0.00  0.00    +0.000 A 
ATOM     13  C   UNL     1       4.581  14.920  18.032  0.00  0.00    +0.000 A 
ATOM     14  C   UNL     1       5.538  15.211  19.014  0.00  0.00    +0.000 A 
ATOM     15  C   UNL     1       5.233  14.935  20.352  0.00  0.00    +0.000 A 
ATOM     16  C   UNL     1       3.988  14.393  20.700  0.00  0.00    +0.000 A 
BRANCH  14  17
ATOM     17  N   UNL     1       6.809  15.767  18.664  0.00  0.00    +0.000 N 
ATOM     18  C   UNL     1       7.838  14.948  18.201  0.00  0.00    +0.000 A 
ATOM     19  C   UNL     1       9.039  15.438  17.869  0.00  0.00    +0.000 A 
ATOM     20  C   UNL     1       9.320  16.837  18.046  0.00  0.00    +0.000 A 
ATOM     21  C   UNL     1       8.367  17.665  18.488  0.00  0.00    +0.000 A 
ATOM     22  C   UNL     1       6.996  17.156  18.796  0.00  0.00    +0.000 A 
ATOM     23  O   UNL     1       6.155  17.968  19.180  0.00  0.00    +0.000 OA
ENDBRANCH  14  17
ENDBRANCH   8  11
ENDBRANCH   1   9
BRANCH   6  24
ATOM     24  N   UNL     1       0.194  10.248  18.145  0.00  0.00    +0.000 N 
ATOM     25  C   UNL     1       0.797   9.628  19.216  0.00  0.00    +0.000 C 
ATOM     26  O   UNL     1       0.577   9.932  20.385  0.00  0.00    +0.000 OA
ATOM     27  H   UNL     1       0.393   9.936  17.196  0.00  0.00    +0.000 HD
BRANCH  25  28
ATOM     28  C   UNL     1       1.792   8.559  18.920  0.00  0.00    +0.000 A 
ATOM     29  C   UNL     1       2.558   8.552  17.752  0.00  0.00    +0.000 A 
ATOM     30  C   UNL     1       3.418   7.478  17.469  0.00  0.00    +0.000 A 
ATOM     31  C   UNL     1       3.522   6.401  18.376  0.00  0.00    +0.000 A 
ATOM     32  C   UNL     1       4.231   5.166  18.397  0.00  0.00    +0.000 A 
ATOM     33 CL   UNL     1       5.235   4.574  17.159  0.00  0.00    +0.000 Cl
ATOM     34  C   UNL     1       3.945   4.527  19.581  0.00  0.00    +0.000 A 
ATOM     35  N   UNL     1       3.076   5.324  20.283  0.00  0.00    +0.000 N 
ATOM     36  C   UNL     1       2.775   6.455  19.555  0.00  0.00    +0.000 A 
ATOM     37  C   UNL     1       1.902   7.507  19.847  0.00  0.00    +0.000 A 
ATOM     38  H   UNL     1       2.695   5.111  21.194  0.00  0.00    +0.000 HD
ENDBRANCH  25  28
ENDBRANCH   6  24
TORSDOF 5
ENDMDL
MODEL 4
REMARK VINA RESULT:      -8.8      4.169      5.663
REMARK  Name = 
REMARK  5 active torsions:
REMARK  status: ('A' for Active; 'I' for Inactive)
REMARK    1  A    between atoms: C_2  and  C_23
REMARK    2  A    between atoms: N_3  and  C_4
REMARK    3  A    between atoms: C_9  and  N_10
REMARK    4  A    between atoms: C_11  and  C_13
REMARK    5  A    between atoms: C_26  and  N_27
REMARK                            x       y       z     vdW  Elec       q    Type
REMARK                         _______ _______ _______ _____ _____    ______ ____
ROOT
ATOM      1  C   UNL     1       2.989   4.822  20.163  0.00  0.00    +0.000 C 
ATOM      2  C   UNL     1       2.249   4.397  21.441  0.00  0.00    +0.000 C 
ATOM      3  C   UNL     1       2.257   2.889  21.664  0.00  0.00    +0.000 C 
ATOM      4  C   UNL     1       1.663   2.172  20.465  0.00  0.00    +0.000 C 
ATOM      5  C   UNL     1       2.482   2.470  19.218  0.00  0.00    +0.000 C 
ATOM      6  C   UNL     1       2.579   3.978  18.908  0.00  0.00    +0.000 C 
ENDROOT
BRANCH   1   9
ATOM      7  O   UNL     1       1.469   6.035  18.092  0.00  0.00    +0.000 OA
ATOM      8  C   UNL     1       1.996   6.769  18.934  0.00  0.00    +0.000 C 
ATOM      9  N   UNL     1       2.798   6.269  19.945  0.00  0.00    +0.000 N 
ATOM     10  H   UNL     1       3.282   6.917  20.550  0.00  0.00    +0.000 HD
BRANCH   8  11
ATOM     11  C   UNL     1       1.769   8.243  18.874  0.00  0.00    +0.000 A 
ATOM     12  C   UNL     1       2.230   9.049  17.827  0.00  0.00    +0.000 A 
ATOM     13  C   UNL     1       2.040  10.441  17.866  0.00  0.00    +0.000 A 
ATOM     14  C   UNL     1       1.426  11.053  18.968  0.00  0.00    +0.000 A 
ATOM     15  C   UNL     1       0.979  10.248  20.022  0.00  0.00    +0.000 A 
ATOM     16  C   UNL     1       1.131   8.856  19.966  0.00  0.00    +0.000 A 
BRANCH  14  17
ATOM     17  N   UNL     1       1.267  12.474  19.028  0.00  0.00    +0.000 N 
ATOM     18  C   UNL     1       2.293  13.283  19.512  0.00  0.00    +0.000 A 
ATOM     19  C   UNL     1       2.172  14.615  19.585  0.00  0.00    +0.000 A 
ATOM     20  C   UNL     1       0.935  15.246  19.216  0.00  0.00    +0.000 A 
ATOM     21  C   UNL     1      -0.081  14.514  18.746  0.00  0.00    +0.000 A 
ATOM     22  C   UNL     1       0.053  13.035  18.586  0.00  0.00    +0.000 A 
ATOM     23  O   UNL     1      -0.908  12.416  18.130  0.00  0.00    +0.000 OA
ENDBRANCH  14  17
ENDBRANCH   8  11
ENDBRANCH   1   9
BRANCH   6  24
ATOM     24  N   UNL     1       3.513   4.198  17.792  0.00  0.00    +0.000 N 
ATOM     25  C   UNL     1       4.877   4.072  17.928  0.00  0.00    +0.000 C 
ATOM     26  O   UNL     1       5.426   3.767  18.983  0.00  0.00    +0.000 OA
ATOM     27  H   UNL     1       3.109   4.427  16.885  0.00  0.00    +0.000 HD
BRANCH  25  28
ATOM     28  C   UNL     1       5.717   4.362  16.731  0.00  0.00    +0.000 A 
ATOM     29  C   UNL     1       6.683   5.371  16.722  0.00  0.00    +0.000 A 
ATOM     30  C   UNL     1       7.388   5.671  15.545  0.00  0.00    +0.000 A 
ATOM     31  C   UNL     1       7.131   4.942  14.364  0.00  0.00    +0.000 A 
ATOM     32  C   UNL     1       7.605   4.998  13.022  0.00  0.00    +0.000 A 
ATOM     33 CL   UNL     1       8.717   6.127  12.406  0.00  0.00    +0.000 Cl
ATOM     34  C   UNL     1       6.991   3.995  12.309  0.00  0.00    +0.000 A 
ATOM     35  N   UNL     1       6.150   3.332  13.165  0.00  0.00    +0.000 N 
ATOM     36  C   UNL     1       6.189   3.912  14.415  0.00  0.00    +0.000 A 
ATOM     37  C   UNL     1       5.466   3.608  15.571  0.00  0.00    +0.000 A 
ATOM     38  H   UNL     1       5.568   2.543  12.918  0.00  0.00    +0.000 HD
ENDBRANCH  25  28
ENDBRANCH   6  24
TORSDOF 5
ENDMDL
MODEL 5
REMARK VINA RESULT:      -8.8      3.682      8.880
REMARK  Name = 
REMARK  5 active torsions:
REMARK  status: ('A' for Active; 'I' for Inactive)
REMARK    1  A    between atoms: C_2  and  C_23
REMARK    2  A    between atoms: N_3  and  C_4
REMARK    3  A    between atoms: C_9  and  N_10
REMARK    4  A    between atoms: C_11  and  C_13
REMARK    5  A    between atoms: C_26  and  N_27
REMARK                            x       y       z     vdW  Elec       q    Type
REMARK                         _______ _______ _______ _____ _____    ______ ____
ROOT
ATOM      1  C   UNL     1      -0.324  12.319  19.454  0.00  0.00    +0.000 C 
ATOM      2  C   UNL     1      -1.444  13.288  19.867  0.00  0.00    +0.000 C 
ATOM      3  C   UNL     1      -2.794  12.602  20.044  0.00  0.00    +0.000 C 
ATOM      4  C   UNL     1      -3.189  11.872  18.773  0.00  0.00    +0.000 C 
ATOM      5  C   UNL     1      -2.158  10.805  18.439  0.00  0.00    +0.000 C 
ATOM      6  C   UNL     1      -0.734  11.376  18.271  0.00  0.00    +0.000 C 
ENDROOT
BRANCH   1   9
ATOM      7  O   UNL     1       1.674  13.112  21.311  0.00  0.00    +0.000 OA
ATOM      8  C   UNL     1       1.845  13.386  20.119  0.00  0.00    +0.000 C 
ATOM      9  N   UNL     1       0.900  13.086  19.154  0.00  0.00    +0.000 N 
ATOM     10  H   UNL     1       1.044  13.416  18.210  0.00  0.00    +0.000 HD
BRANCH   8  11
ATOM     11  C   UNL     1       3.106  14.059  19.690  0.00  0.00    +0.000 A 
ATOM     12  C   UNL     1       3.463  14.236  18.348  0.00  0.00    +0.000 A 
ATOM     13  C   UNL     1       4.697  14.819  18.013  0.00  0.00    +0.000 A 
ATOM     14  C   UNL     1       5.610  15.195  19.009  0.00  0.00    +0.000 A 
ATOM     15  C   UNL     1       5.259  15.004  20.350  0.00  0.00    +0.000 A 
ATOM     16  C   UNL     1       4.012  14.460  20.687  0.00  0.00    +0.000 A 
BRANCH  14  17
ATOM     17  N   UNL     1       6.884  15.752  18.669  0.00  0.00    +0.000 N 
ATOM     18  C   UNL     1       7.105  17.125  18.761  0.00  0.00    +0.000 A 
ATOM     19  C   UNL     1       8.284  17.676  18.446  0.00  0.00    +0.000 A 
ATOM     20  C   UNL     1       9.348  16.856  17.935  0.00  0.00    +0.000 A 
ATOM     21  C   UNL     1       9.186  15.534  17.826  0.00  0.00    +0.000 A 
ATOM     22  C   UNL     1       7.906  14.884  18.239  0.00  0.00    +0.000 A 
ATOM     23  O   UNL     1       7.821  13.661  18.135  0.00  0.00    +0.000 OA
ENDBRANCH  14  17
ENDBRANCH   8  11
ENDBRANCH   1   9
BRANCH   6  24
ATOM     24  N   UNL     1       0.229  10.275  18.113  0.00  0.00    +0.000 N 
ATOM     25  C   UNL     1       0.832   9.654  19.182  0.00  0.00    +0.000 C 
ATOM     26  O   UNL     1       0.618   9.962  20.352  0.00  0.00    +0.000 OA
ATOM     27  H   UNL     1       0.423   9.959  17.163  0.00  0.00    +0.000 HD
BRANCH  25  28
ATOM     28  C   UNL     1       1.820   8.578  18.886  0.00  0.00    +0.000 A 
ATOM     29  C   UNL     1       2.563   8.551  17.703  0.00  0.00    +0.000 A 
ATOM     30  C   UNL     1       3.416   7.470  17.422  0.00  0.00    +0.000 A 
ATOM     31  C   UNL     1       3.536   6.409  18.345  0.00  0.00    +0.000 A 
ATOM     32  C   UNL     1       4.244   5.174  18.373  0.00  0.00    +0.000 A 
ATOM     33 CL   UNL     1       5.223   4.559  17.125  0.00  0.00    +0.000 Cl
ATOM     34  C   UNL     1       3.981   4.556  19.573  0.00  0.00    +0.000 A 
ATOM     35  N   UNL     1       3.128   5.366  20.278  0.00  0.00    +0.000 N 
ATOM     36  C   UNL     1       2.813   6.485  19.537  0.00  0.00    +0.000 A 
ATOM     37  C   UNL     1       1.947   7.543  19.828  0.00  0.00    +0.000 A 
ATOM     38  H   UNL     1       2.764   5.169  21.200  0.00  0.00    +0.000 HD
ENDBRANCH  25  28
ENDBRANCH   6  24
TORSDOF 5
ENDMDL
MODEL 6
REMARK VINA RESULT:      -8.8      3.807      8.774
REMARK  Name = 
REMARK  5 active torsions:
REMARK  status: ('A' for Active; 'I' for Inactive)
REMARK    1  A    between atoms: C_2  and  C_23
REMARK    2  A    between atoms: N_3  and  C_4
REMARK    3  A    between atoms: C_9  and  N_10
REMARK    4  A    between atoms: C_11  and  C_13
REMARK    5  A    between atoms: C_26  and  N_27
REMARK                            x       y       z     vdW  Elec       q    Type
REMARK                         _______ _______ _______ _____ _____    ______ ____
ROOT
ATOM      1  C   UNL     1      -0.498  12.032  19.556  0.00  0.00    +0.000 C 
ATOM      2  C   UNL     1      -1.609  13.093  19.622  0.00  0.00    +0.000 C 
ATOM      3  C   UNL     1      -3.008  12.492  19.697  0.00  0.00    +0.000 C 
ATOM      4  C   UNL     1      -3.252  11.566  18.519  0.00  0.00    +0.000 C 
ATOM      5  C   UNL     1      -2.246  10.425  18.532  0.00  0.00    +0.000 C 
ATOM      6  C   UNL     1      -0.782  10.912  18.496  0.00  0.00    +0.000 C 
ENDROOT
BRANCH   1   9
ATOM      7  O   UNL     1       1.118  13.306  21.514  0.00  0.00    +0.000 OA
ATOM      8  C   UNL     1       1.542  13.250  20.356  0.00  0.00    +0.000 C 
ATOM      9  N   UNL     1       0.799  12.696  19.328  0.00  0.00    +0.000 N 
ATOM     10  H   UNL     1       1.150  12.760  18.382  0.00  0.00    +0.000 HD
BRANCH   8  11
ATOM     11  C   UNL     1       2.897  13.789  20.039  0.00  0.00    +0.000 A 
ATOM     12  C   UNL     1       3.784  14.257  21.015  0.00  0.00    +0.000 A 
ATOM     13  C   UNL     1       5.020  14.814  20.641  0.00  0.00    +0.000 A 
ATOM     14  C   UNL     1       5.370  14.950  19.291  0.00  0.00    +0.000 A 
ATOM     15  C   UNL     1       4.475  14.495  18.315  0.00  0.00    +0.000 A 
ATOM     16  C   UNL     1       3.261  13.903  18.686  0.00  0.00    +0.000 A 
BRANCH  14  17
ATOM     17  N   UNL     1       6.611  15.553  18.908  0.00  0.00    +0.000 N 
ATOM     18  C   UNL     1       7.711  14.763  18.581  0.00  0.00    +0.000 A 
ATOM     19  C   UNL     1       8.886  15.298  18.223  0.00  0.00    +0.000 A 
ATOM     20  C   UNL     1       9.059  16.725  18.230  0.00  0.00    +0.000 A 
ATOM     21  C   UNL     1       8.034  17.526  18.537  0.00  0.00    +0.000 A 
ATOM     22  C   UNL     1       6.693  16.958  18.869  0.00  0.00    +0.000 A 
ATOM     23  O   UNL     1       5.782  17.745  19.124  0.00  0.00    +0.000 OA
ENDBRANCH  14  17
ENDBRANCH   8  11
ENDBRANCH   1   9
BRANCH   6  24
ATOM     24  N   UNL     1       0.128   9.770  18.675  0.00  0.00    +0.000 N 
ATOM     25  C   UNL     1       1.390   9.731  18.127  0.00  0.00    +0.000 C 
ATOM     26  O   UNL     1       1.861  10.641  17.449  0.00  0.00    +0.000 OA
ATOM     27  H   UNL     1      -0.202   8.998  19.252  0.00  0.00    +0.000 HD
BRANCH  25  28
ATOM     28  C   UNL     1       2.198   8.499  18.348  0.00  0.00    +0.000 A 
ATOM     29  C   UNL     1       3.213   8.103  17.474  0.00  0.00    +0.000 A 
ATOM     30  C   UNL     1       3.888   6.886  17.669  0.00  0.00    +0.000 A 
ATOM     31  C   UNL     1       3.551   6.062  18.764  0.00  0.00    +0.000 A 
ATOM     32  C   UNL     1       3.976   4.786  19.232  0.00  0.00    +0.000 A 
ATOM     33 CL   UNL     1       5.120   3.779  18.477  0.00  0.00    +0.000 Cl
ATOM     34  C   UNL     1       3.286   4.502  20.388  0.00  0.00    +0.000 A 
ATOM     35  N   UNL     1       2.444   5.556  20.638  0.00  0.00    +0.000 N 
ATOM     36  C   UNL     1       2.560   6.503  19.644  0.00  0.00    +0.000 A 
ATOM     37  C   UNL     1       1.866   7.702  19.458  0.00  0.00    +0.000 A 
ATOM     38  H   UNL     1       1.815   5.626  21.425  0.00  0.00    +0.000 HD
ENDBRANCH  25  28
ENDBRANCH   6  24
TORSDOF 5
ENDMDL
MODEL 7
REMARK VINA RESULT:      -8.5      2.773      8.631
REMARK  Name = 
REMARK  5 active torsions:
REMARK  status: ('A' for Active; 'I' for Inactive)
REMARK    1  A    between atoms: C_2  and  C_23
REMARK    2  A    between atoms: N_3  and  C_4
REMARK    3  A    between atoms: C_9  and  N_10
REMARK    4  A    between atoms: C_11  and  C_13
REMARK    5  A    between atoms: C_26  and  N_27
REMARK                            x       y       z     vdW  Elec       q    Type
REMARK                         _______ _______ _______ _____ _____    ______ ____
ROOT
ATOM      1  C   UNL     1       5.956   6.993  16.564  0.00  0.00    +0.000 C 
ATOM      2  C   UNL     1       6.964   5.938  16.080  0.00  0.00    +0.000 C 
ATOM      3  C   UNL     1       6.309   4.615  15.699  0.00  0.00    +0.000 C 
ATOM      4  C   UNL     1       5.509   4.063  16.866  0.00  0.00    +0.000 C 
ATOM      5  C   UNL     1       4.410   5.040  17.255  0.00  0.00    +0.000 C 
ATOM      6  C   UNL     1       4.949   6.436  17.629  0.00  0.00    +0.000 C 
ENDROOT
BRANCH   1   9
ATOM      7  O   UNL     1       8.042   7.012  18.492  0.00  0.00    +0.000 OA
ATOM      8  C   UNL     1       7.726   8.083  17.966  0.00  0.00    +0.000 C 
ATOM      9  N   UNL     1       6.687   8.176  17.057  0.00  0.00    +0.000 N 
ATOM     10  H   UNL     1       6.406   9.089  16.727  0.00  0.00    +0.000 HD
BRANCH   8  11
ATOM     11  C   UNL     1       8.481   9.324  18.307  0.00  0.00    +0.000 A 
ATOM     12  C   UNL     1       9.299   9.440  19.437  0.00  0.00    +0.000 A 
ATOM     13  C   UNL     1       9.929  10.660  19.735  0.00  0.00    +0.000 A 
ATOM     14  C   UNL     1       9.720  11.793  18.937  0.00  0.00    +0.000 A 
ATOM     15  C   UNL     1       8.890  11.681  17.815  0.00  0.00    +0.000 A 
ATOM     16  C   UNL     1       8.293  10.455  17.493  0.00  0.00    +0.000 A 
BRANCH  14  17
ATOM     17  N   UNL     1      10.329  13.047  19.261  0.00  0.00    +0.000 N 
ATOM     18  C   UNL     1       9.732  13.909  20.179  0.00  0.00    +0.000 A 
ATOM     19  C   UNL     1      10.276  15.090  20.500  0.00  0.00    +0.000 A 
ATOM     20  C   UNL     1      11.477  15.531  19.845  0.00  0.00    +0.000 A 
ATOM     21  C   UNL     1      12.089  14.741  18.956  0.00  0.00    +0.000 A 
ATOM     22  C   UNL     1      11.543  13.388  18.634  0.00  0.00    +0.000 A 
ATOM     23  O   UNL     1      12.160  12.697  17.824  0.00  0.00    +0.000 OA
ENDBRANCH  14  17
ENDBRANCH   8  11
ENDBRANCH   1   9
BRANCH   6  24
ATOM     24  N   UNL     1       3.827   7.366  17.834  0.00  0.00    +0.000 N 
ATOM     25  C   UNL     1       2.951   7.252  18.889  0.00  0.00    +0.000 C 
ATOM     26  O   UNL     1       3.030   6.372  19.742  0.00  0.00    +0.000 OA
ATOM     27  H   UNL     1       3.730   8.132  17.170  0.00  0.00    +0.000 HD
BRANCH  25  28
ATOM     28  C   UNL     1       1.831   8.233  18.962  0.00  0.00    +0.000 A 
ATOM     29  C   UNL     1       1.279   8.824  17.822  0.00  0.00    +0.000 A 
ATOM     30  C   UNL     1       0.288   9.812  17.941  0.00  0.00    +0.000 A 
ATOM     31  C   UNL     1      -0.165  10.205  19.219  0.00  0.00    +0.000 A 
ATOM     32  C   UNL     1      -1.090  11.173  19.706  0.00  0.00    +0.000 A 
ATOM     33 CL   UNL     1      -1.974  12.272  18.756  0.00  0.00    +0.000 Cl
ATOM     34  C   UNL     1      -1.128  11.076  21.078  0.00  0.00    +0.000 A 
ATOM     35  N   UNL     1      -0.250  10.090  21.449  0.00  0.00    +0.000 N 
ATOM     36  C   UNL     1       0.376   9.568  20.337  0.00  0.00    +0.000 A 
ATOM     37  C   UNL     1       1.374   8.594  20.241  0.00  0.00    +0.000 A 
ATOM     38  H   UNL     1      -0.070   9.796  22.398  0.00  0.00    +0.000 HD
ENDBRANCH  25  28
ENDBRANCH   6  24
TORSDOF 5
ENDMDL
MODEL 8
REMARK VINA RESULT:      -8.5      3.998      9.635
REMARK  Name = 
REMARK  5 active torsions:
REMARK  status: ('A' for Active; 'I' for Inactive)
REMARK    1  A    between atoms: C_2  and  C_23
REMARK    2  A    between atoms: N_3  and  C_4
REMARK    3  A    between atoms: C_9  and  N_10
REMARK    4  A    between atoms: C_11  and  C_13
REMARK    5  A    between atoms: C_26  and  N_27
REMARK                            x       y       z     vdW  Elec       q    Type
REMARK                         _______ _______ _______ _____ _____    ______ ____
ROOT
ATOM      1  C   UNL     1       1.018  13.237  21.244  0.00  0.00    +0.000 C 
ATOM      2  C   UNL     1       0.146  14.398  21.749  0.00  0.00    +0.000 C 
ATOM      3  C   UNL     1      -1.199  13.941  22.302  0.00  0.00    +0.000 C 
ATOM      4  C   UNL     1      -1.959  13.146  21.256  0.00  0.00    +0.000 C 
ATOM      5  C   UNL     1      -1.167  11.910  20.859  0.00  0.00    +0.000 C 
ATOM      6  C   UNL     1       0.238  12.244  20.316  0.00  0.00    +0.000 C 
ENDROOT
BRANCH   1   9
ATOM      7  O   UNL     1       3.222  14.490  22.525  0.00  0.00    +0.000 OA
ATOM      8  C   UNL     1       3.273  14.332  21.302  0.00  0.00    +0.000 C 
ATOM      9  N   UNL     1       2.223  13.780  20.589  0.00  0.00    +0.000 N 
ATOM     10  H   UNL     1       2.275  13.759  19.580  0.00  0.00    +0.000 HD
BRANCH   8  11
ATOM     11  C   UNL     1       4.498  14.740  20.554  0.00  0.00    +0.000 A 
ATOM     12  C   UNL     1       4.536  14.884  19.163  0.00  0.00    +0.000 A 
ATOM     13  C   UNL     1       5.742  15.207  18.515  0.00  0.00    +0.000 A 
ATOM     14  C   UNL     1       6.933  15.349  19.240  0.00  0.00    +0.000 A 
ATOM     15  C   UNL     1       6.897  15.189  20.630  0.00  0.00    +0.000 A 
ATOM     16  C   UNL     1       5.689  14.908  21.282  0.00  0.00    +0.000 A 
BRANCH  14  17
ATOM     17  N   UNL     1       8.168  15.638  18.578  0.00  0.00    +0.000 N 
ATOM     18  C   UNL     1       9.065  14.616  18.272  0.00  0.00    +0.000 A 
ATOM     19  C   UNL     1      10.230  14.856  17.657  0.00  0.00    +0.000 A 
ATOM     20  C   UNL     1      10.618  16.206  17.351  0.00  0.00    +0.000 A 
ATOM     21  C   UNL     1       9.794  17.222  17.626  0.00  0.00    +0.000 A 
ATOM     22  C   UNL     1       8.457  16.975  18.245  0.00  0.00    +0.000 A 
ATOM     23  O   UNL     1       7.733  17.948  18.457  0.00  0.00    +0.000 OA
ENDBRANCH  14  17
ENDBRANCH   8  11
ENDBRANCH   1   9
BRANCH   6  24
ATOM     24  N   UNL     1       1.000  11.003  20.108  0.00  0.00    +0.000 N 
ATOM     25  C   UNL     1       0.819  10.194  19.009  0.00  0.00    +0.000 C 
ATOM     26  O   UNL     1       0.014  10.439  18.115  0.00  0.00    +0.000 OA
ATOM     27  H   UNL     1       1.703  10.765  20.806  0.00  0.00    +0.000 HD
BRANCH  25  28
ATOM     28  C   UNL     1       1.626   8.943  18.936  0.00  0.00    +0.000 A 
ATOM     29  C   UNL     1       2.419   8.627  17.830  0.00  0.00    +0.000 A 
ATOM     30  C   UNL     1       3.090   7.395  17.763  0.00  0.00    +0.000 A 
ATOM     31  C   UNL     1       2.976   6.472  18.824  0.00  0.00    +0.000 A 
ATOM     32  C   UNL     1       3.461   5.155  19.071  0.00  0.00    +0.000 A 
ATOM     33 CL   UNL     1       4.390   4.220  17.997  0.00  0.00    +0.000 Cl
ATOM     34  C   UNL     1       3.029   4.767  20.318  0.00  0.00    +0.000 A 
ATOM     35  N   UNL     1       2.288   5.796  20.839  0.00  0.00    +0.000 N 
ATOM     36  C   UNL     1       2.210   6.832  19.935  0.00  0.00    +0.000 A 
ATOM     37  C   UNL     1       1.521   8.046  20.014  0.00  0.00    +0.000 A 
ATOM     38  H   UNL     1       1.844   5.793  21.747  0.00  0.00    +0.000 HD
ENDBRANCH  25  28
ENDBRANCH   6  24
TORSDOF 5
ENDMDL
MODEL 9
REMARK VINA RESULT:      -8.4      4.186      5.700
REMARK  Name = 
REMARK  5 active torsions:
REMARK  status: ('A' for Active; 'I' for Inactive)
REMARK    1  A    between atoms: C_2  and  C_23
REMARK    2  A    between atoms: N_3  and  C_4
REMARK    3  A    between atoms: C_9  and  N_10
REMARK    4  A    between atoms: C_11  and  C_13
REMARK    5  A    between atoms: C_26  and  N_27
REMARK                            x       y       z     vdW  Elec       q    Type
REMARK                         _______ _______ _______ _____ _____    ______ ____
ROOT
ATOM      1  C   UNL     1       2.949   4.865  20.175  0.00  0.00    +0.000 C 
ATOM      2  C   UNL     1       2.238   4.437  21.470  0.00  0.00    +0.000 C 
ATOM      3  C   UNL     1       2.302   2.935  21.719  0.00  0.00    +0.000 C 
ATOM      4  C   UNL     1       1.721   2.176  20.540  0.00  0.00    +0.000 C 
ATOM      5  C   UNL     1       2.515   2.479  19.279  0.00  0.00    +0.000 C 
ATOM      6  C   UNL     1       2.556   3.984  18.940  0.00  0.00    +0.000 C 
ENDROOT
BRANCH   1   9
ATOM      7  O   UNL     1       0.566   6.295  20.760  0.00  0.00    +0.000 OA
ATOM      8  C   UNL     1       1.523   6.923  20.298  0.00  0.00    +0.000 C 
ATOM      9  N   UNL     1       2.703   6.299  19.934  0.00  0.00    +0.000 N 
ATOM     10  H   UNL     1       3.420   6.842  19.473  0.00  0.00    +0.000 HD
BRANCH   8  11
ATOM     11  C   UNL     1       1.421   8.402  20.124  0.00  0.00    +0.000 A 
ATOM     12  C   UNL     1       1.124   9.280  21.172  0.00  0.00    +0.000 A 
ATOM     13  C   UNL     1       0.977  10.656  20.925  0.00  0.00    +0.000 A 
ATOM     14  C   UNL     1       1.082  11.170  19.625  0.00  0.00    +0.000 A 
ATOM     15  C   UNL     1       1.363  10.289  18.574  0.00  0.00    +0.000 A 
ATOM     16  C   UNL     1       1.550   8.923  18.825  0.00  0.00    +0.000 A 
BRANCH  14  17
ATOM     17  N   UNL     1       0.893  12.565  19.366  0.00  0.00    +0.000 N 
ATOM     18  C   UNL     1      -0.334  13.174  19.622  0.00  0.00    +0.000 A 
ATOM     19  C   UNL     1      -0.542  14.476  19.386  0.00  0.00    +0.000 A 
ATOM     20  C   UNL     1       0.496  15.275  18.794  0.00  0.00    +0.000 A 
ATOM     21  C   UNL     1       1.691  14.737  18.528  0.00  0.00    +0.000 A 
ATOM     22  C   UNL     1       1.973  13.306  18.849  0.00  0.00    +0.000 A 
ATOM     23  O   UNL     1       3.098  12.871  18.601  0.00  0.00    +0.000 OA
ENDBRANCH  14  17
ENDBRANCH   8  11
ENDBRANCH   1   9
BRANCH   6  24
ATOM     24  N   UNL     1       3.469   4.216  17.810  0.00  0.00    +0.000 N 
ATOM     25  C   UNL     1       4.832   4.049  17.909  0.00  0.00    +0.000 C 
ATOM     26  O   UNL     1       5.396   3.692  18.940  0.00  0.00    +0.000 OA
ATOM     27  H   UNL     1       3.051   4.488  16.922  0.00  0.00    +0.000 HD
BRANCH  25  28
ATOM     28  C   UNL     1       5.651   4.356  16.703  0.00  0.00    +0.000 A 
ATOM     29  C   UNL     1       6.554   5.422  16.663  0.00  0.00    +0.000 A 
ATOM     30  C   UNL     1       7.238   5.733  15.476  0.00  0.00    +0.000 A 
ATOM     31  C   UNL     1       7.026   4.956  14.317  0.00  0.00    +0.000 A 
ATOM     32  C   UNL     1       7.494   5.004  12.972  0.00  0.00    +0.000 A 
ATOM     33 CL   UNL     1       8.534   6.183  12.322  0.00  0.00    +0.000 Cl
ATOM     34  C   UNL     1       6.943   3.946  12.288  0.00  0.00    +0.000 A 
ATOM     35  N   UNL     1       6.144   3.256  13.165  0.00  0.00    +0.000 N 
ATOM     36  C   UNL     1       6.149   3.872  14.398  0.00  0.00    +0.000 A 
ATOM     37  C   UNL     1       5.446   3.556  15.564  0.00  0.00    +0.000 A 
ATOM     38  H   UNL     1       5.612   2.427  12.941  0.00  0.00    +0.000 HD
ENDBRANCH  25  28
ENDBRANCH   6  24
TORSDOF 5
ENDMDL
