MODEL 1
REMARK VINA RESULT:      -6.4      0.000      0.000
REMARK  Name = 
REMARK  9 active torsions:
REMARK  status: ('A' for Active; 'I' for Inactive)
REMARK    1  A    between atoms: C_1  and  C_2
REMARK    2  A    between atoms: N_4  and  C_5
REMARK    3  A    between atoms: C_15  and  N_16
REMARK    4  A    between atoms: N_16  and  C_17
REMARK    5  A    between atoms: C_17  and  C_18
REMARK    6  A    between atoms: C_18  and  C_19
REMARK    7  A    between atoms: C_19  and  N_20
REMARK    8  A    between atoms: N_20  and  C_21
REMARK    9  A    between atoms: N_20  and  C_22
REMARK                            x       y       z     vdW  Elec       q    Type
REMARK                         _______ _______ _______ _____ _____    ______ ____
ROOT
ATOM      1  C   UNL     1       5.034   3.786  20.169  0.00  0.00    +0.000 C 
ATOM      2  C   UNL     1       5.714   4.620  19.141  0.00  0.00    +0.000 A 
ATOM      3  N   UNL     1       6.661   5.454  19.609  0.00  0.00    +0.000 NA
ATOM      4  N   UNL     1       7.237   5.931  18.501  0.00  0.00    +0.000 N 
ATOM      5  C   UNL     1       8.137   7.053  18.573  0.00  0.00    +0.000 C 
ATOM      6  C   UNL     1       6.780   5.349  17.358  0.00  0.00    +0.000 A 
ATOM      7  N   UNL     1       7.345   5.487  16.151  0.00  0.00    +0.000 NA
ATOM      8  C   UNL     1       6.714   4.870  15.165  0.00  0.00    +0.000 A 
ATOM      9  C   UNL     1       7.378   4.859  13.944  0.00  0.00    +0.000 A 
ATOM     10  C   UNL     1       6.805   4.329  12.790  0.00  0.00    +0.000 A 
ATOM     11  C   UNL     1       5.525   3.814  12.861  0.00  0.00    +0.000 A 
ATOM     12  I   UNL     1       4.602   3.108  11.137  0.00  0.00    +0.000 I 
ATOM     13  C   UNL     1       4.854   3.771  14.087  0.00  0.00    +0.000 A 
ATOM     14  C   UNL     1       5.438   4.267  15.289  0.00  0.00    +0.000 A 
ATOM     15  C   UNL     1       4.815   4.207  16.611  0.00  0.00    +0.000 A 
ATOM     16  C   UNL     1       5.622   4.656  17.700  0.00  0.00    +0.000 A 
ENDROOT
BRANCH  15  17
ATOM     17  N   UNL     1       3.503   3.663  16.690  0.00  0.00    +0.000 N 
ATOM     18  H   UNL     1       2.851   4.376  16.992  0.00  0.00    +0.000 HD
BRANCH  17  19
ATOM     19  C   UNL     1       3.223   2.475  17.505  0.00  0.00    +0.000 C 
BRANCH  19  20
ATOM     20  C   UNL     1       1.854   2.542  18.186  0.00  0.00    +0.000 C 
BRANCH  20  21
ATOM     21  C   UNL     1       1.469   3.968  18.611  0.00  0.00    +0.000 C 
BRANCH  21  22
ATOM     22  N   UNL     1       1.035   4.108  20.012  0.00  0.00    +0.000 NA
ATOM     23  C   UNL     1       1.278   2.890  20.793  0.00  0.00    +0.000 C 
ATOM     24  C   UNL     1       1.736   5.232  20.644  0.00  0.00    +0.000 C 
ENDBRANCH  21  22
ENDBRANCH  20  21
ENDBRANCH  19  20
ENDBRANCH  17  19
ENDBRANCH  15  17
TORSDOF 5
ENDMDL
MODEL 2
REMARK VINA RESULT:      -6.2      3.397      6.991
REMARK  Name = 
REMARK  9 active torsions:
REMARK  status: ('A' for Active; 'I' for Inactive)
REMARK    1  A    between atoms: C_1  and  C_2
REMARK    2  A    between atoms: N_4  and  C_5
REMARK    3  A    between atoms: C_15  and  N_16
REMARK    4  A    between atoms: N_16  and  C_17
REMARK    5  A    between atoms: C_17  and  C_18
REMARK    6  A    between atoms: C_18  and  C_19
REMARK    7  A    between atoms: C_19  and  N_20
REMARK    8  A    between atoms: N_20  and  C_21
REMARK    9  A    between atoms: N_20  and  C_22
REMARK                            x       y       z     vdW  Elec       q    Type
REMARK                         _______ _______ _______ _____ _____    ______ ____
ROOT
ATOM      1  C   UNL     1       4.990   3.368  18.589  0.00  0.00    +0.000 C 
ATOM      2  C   UNL     1       3.761   3.780  19.320  0.00  0.00    +0.000 A 
ATOM      3  N   UNL     1       3.289   2.885  20.208  0.00  0.00    +0.000 NA
ATOM      4  N   UNL     1       2.326   3.555  20.848  0.00  0.00    +0.000 N 
ATOM      5  C   UNL     1       1.406   2.859  21.710  0.00  0.00    +0.000 C 
ATOM      6  C   UNL     1       2.246   4.867  20.491  0.00  0.00    +0.000 A 
ATOM      7  N   UNL     1       1.525   5.792  21.138  0.00  0.00    +0.000 NA
ATOM      8  C   UNL     1       1.552   6.999  20.596  0.00  0.00    +0.000 A 
ATOM      9  C   UNL     1       0.953   8.005  21.346  0.00  0.00    +0.000 A 
ATOM     10  C   UNL     1       0.822   9.308  20.872  0.00  0.00    +0.000 A 
ATOM     11  C   UNL     1       1.285   9.604  19.604  0.00  0.00    +0.000 A 
ATOM     12  I   UNL     1       1.012  11.512  18.828  0.00  0.00    +0.000 I 
ATOM     13  C   UNL     1       1.932   8.622  18.849  0.00  0.00    +0.000 A 
ATOM     14  C   UNL     1       2.118   7.293  19.331  0.00  0.00    +0.000 A 
ATOM     15  C   UNL     1       2.828   6.233  18.616  0.00  0.00    +0.000 A 
ATOM     16  C   UNL     1       3.001   5.009  19.331  0.00  0.00    +0.000 A 
ENDROOT
BRANCH  15  17
ATOM     17  N   UNL     1       3.321   6.538  17.316  0.00  0.00    +0.000 N 
ATOM     18  H   UNL     1       3.220   5.733  16.712  0.00  0.00    +0.000 HD
BRANCH  17  19
ATOM     19  C   UNL     1       4.687   7.035  17.122  0.00  0.00    +0.000 C 
BRANCH  19  20
ATOM     20  C   UNL     1       5.594   6.000  16.451  0.00  0.00    +0.000 C 
BRANCH  20  21
ATOM     21  C   UNL     1       7.051   6.080  16.934  0.00  0.00    +0.000 C 
BRANCH  21  22
ATOM     22  N   UNL     1       7.243   6.745  18.235  0.00  0.00    +0.000 NA
ATOM     23  C   UNL     1       7.777   5.832  19.252  0.00  0.00    +0.000 C 
ATOM     24  C   UNL     1       8.157   7.884  18.086  0.00  0.00    +0.000 C 
ENDBRANCH  21  22
ENDBRANCH  20  21
ENDBRANCH  19  20
ENDBRANCH  17  19
ENDBRANCH  15  17
TORSDOF 5
ENDMDL
MODEL 3
REMARK VINA RESULT:      -6.2      3.501      7.201
REMARK  Name = 
REMARK  9 active torsions:
REMARK  status: ('A' for Active; 'I' for Inactive)
REMARK    1  A    between atoms: C_1  and  C_2
REMARK    2  A    between atoms: N_4  and  C_5
REMARK    3  A    between atoms: C_15  and  N_16
REMARK    4  A    between atoms: N_16  and  C_17
REMARK    5  A    between atoms: C_17  and  C_18
REMARK    6  A    between atoms: C_18  and  C_19
REMARK    7  A    between atoms: C_19  and  N_20
REMARK    8  A    between atoms: N_20  and  C_21
REMARK    9  A    between atoms: N_20  and  C_22
REMARK                            x       y       z     vdW  Elec       q    Type
REMARK                         _______ _______ _______ _____ _____    ______ ____
ROOT
ATOM      1  C   UNL     1       5.267   3.824  18.653  0.00  0.00    +0.000 C 
ATOM      2  C   UNL     1       3.973   4.130  19.319  0.00  0.00    +0.000 A 
ATOM      3  N   UNL     1       3.504   3.170  20.138  0.00  0.00    +0.000 NA
ATOM      4  N   UNL     1       2.463   3.753  20.743  0.00  0.00    +0.000 N 
ATOM      5  C   UNL     1       1.536   2.966  21.515  0.00  0.00    +0.000 C 
ATOM      6  C   UNL     1       2.324   5.072  20.435  0.00  0.00    +0.000 A 
ATOM      7  N   UNL     1       1.509   5.923  21.071  0.00  0.00    +0.000 NA
ATOM      8  C   UNL     1       1.495   7.153  20.582  0.00  0.00    +0.000 A 
ATOM      9  C   UNL     1       0.790   8.087  21.332  0.00  0.00    +0.000 A 
ATOM     10  C   UNL     1       0.607   9.400  20.905  0.00  0.00    +0.000 A 
ATOM     11  C   UNL     1       1.128   9.779  19.682  0.00  0.00    +0.000 A 
ATOM     12  I   UNL     1       0.786  11.700  18.968  0.00  0.00    +0.000 I 
ATOM     13  C   UNL     1       1.880   8.872  18.930  0.00  0.00    +0.000 A 
ATOM     14  C   UNL     1       2.118   7.536  19.369  0.00  0.00    +0.000 A 
ATOM     15  C   UNL     1       2.935   6.553  18.659  0.00  0.00    +0.000 A 
ATOM     16  C   UNL     1       3.139   5.310  19.332  0.00  0.00    +0.000 A 
ENDROOT
BRANCH  15  17
ATOM     17  N   UNL     1       3.486   6.944  17.406  0.00  0.00    +0.000 N 
ATOM     18  H   UNL     1       3.024   6.448  16.655  0.00  0.00    +0.000 HD
BRANCH  17  19
ATOM     19  C   UNL     1       4.927   6.839  17.147  0.00  0.00    +0.000 C 
BRANCH  19  20
ATOM     20  C   UNL     1       5.231   6.173  15.803  0.00  0.00    +0.000 C 
BRANCH  20  21
ATOM     21  C   UNL     1       6.634   5.548  15.750  0.00  0.00    +0.000 C 
BRANCH  21  22
ATOM     22  N   UNL     1       6.837   4.553  14.684  0.00  0.00    +0.000 NA
ATOM     23  C   UNL     1       5.569   4.051  14.144  0.00  0.00    +0.000 C 
ATOM     24  C   UNL     1       7.624   5.140  13.593  0.00  0.00    +0.000 C 
ENDBRANCH  21  22
ENDBRANCH  20  21
ENDBRANCH  19  20
ENDBRANCH  17  19
ENDBRANCH  15  17
TORSDOF 5
ENDMDL
MODEL 4
REMARK VINA RESULT:      -6.1      3.550      5.422
REMARK  Name = 
REMARK  9 active torsions:
REMARK  status: ('A' for Active; 'I' for Inactive)
REMARK    1  A    between atoms: C_1  and  C_2
REMARK    2  A    between atoms: N_4  and  C_5
REMARK    3  A    between atoms: C_15  and  N_16
REMARK    4  A    between atoms: N_16  and  C_17
REMARK    5  A    between atoms: C_17  and  C_18
REMARK    6  A    between atoms: C_18  and  C_19
REMARK    7  A    between atoms: C_19  and  N_20
REMARK    8  A    between atoms: N_20  and  C_21
REMARK    9  A    between atoms: N_20  and  C_22
REMARK                            x       y       z     vdW  Elec       q    Type
REMARK                         _______ _______ _______ _____ _____    ______ ____
ROOT
ATOM      1  C   UNL     1       0.918   8.606  22.386  0.00  0.00    +0.000 C 
ATOM      2  C   UNL     1       0.989   8.733  20.905  0.00  0.00    +0.000 A 
ATOM      3  N   UNL     1       0.338   9.790  20.384  0.00  0.00    +0.000 NA
ATOM      4  N   UNL     1       0.707   9.785  19.099  0.00  0.00    +0.000 N 
ATOM      5  C   UNL     1       0.024  10.617  18.143  0.00  0.00    +0.000 C 
ATOM      6  C   UNL     1       1.653   8.850  18.809  0.00  0.00    +0.000 A 
ATOM      7  N   UNL     1       2.342   8.790  17.662  0.00  0.00    +0.000 NA
ATOM      8  C   UNL     1       3.183   7.773  17.568  0.00  0.00    +0.000 A 
ATOM      9  C   UNL     1       4.027   7.794  16.463  0.00  0.00    +0.000 A 
ATOM     10  C   UNL     1       4.904   6.750  16.177  0.00  0.00    +0.000 A 
ATOM     11  C   UNL     1       4.920   5.648  17.011  0.00  0.00    +0.000 A 
ATOM     12  I   UNL     1       6.142   4.030  16.555  0.00  0.00    +0.000 I 
ATOM     13  C   UNL     1       4.115   5.623  18.153  0.00  0.00    +0.000 A 
ATOM     14  C   UNL     1       3.242   6.699  18.491  0.00  0.00    +0.000 A 
ATOM     15  C   UNL     1       2.413   6.761  19.694  0.00  0.00    +0.000 A 
ATOM     16  C   UNL     1       1.700   7.982  19.896  0.00  0.00    +0.000 A 
ENDROOT
BRANCH  15  17
ATOM     17  N   UNL     1       2.438   5.635  20.563  0.00  0.00    +0.000 N 
ATOM     18  H   UNL     1       3.230   5.046  20.342  0.00  0.00    +0.000 HD
BRANCH  17  19
ATOM     19  C   UNL     1       1.278   4.743  20.680  0.00  0.00    +0.000 C 
BRANCH  19  20
ATOM     20  C   UNL     1       1.667   3.339  21.150  0.00  0.00    +0.000 C 
BRANCH  20  21
ATOM     21  C   UNL     1       1.937   2.373  19.986  0.00  0.00    +0.000 C 
BRANCH  21  22
ATOM     22  N   UNL     1       3.206   2.592  19.272  0.00  0.00    +0.000 NA
ATOM     23  C   UNL     1       4.373   2.287  20.106  0.00  0.00    +0.000 C 
ATOM     24  C   UNL     1       3.250   1.763  18.062  0.00  0.00    +0.000 C 
ENDBRANCH  21  22
ENDBRANCH  20  21
ENDBRANCH  19  20
ENDBRANCH  17  19
ENDBRANCH  15  17
TORSDOF 5
ENDMDL
MODEL 5
REMARK VINA RESULT:      -6.0      0.736      1.057
REMARK  Name = 
REMARK  9 active torsions:
REMARK  status: ('A' for Active; 'I' for Inactive)
REMARK    1  A    between atoms: C_1  and  C_2
REMARK    2  A    between atoms: N_4  and  C_5
REMARK    3  A    between atoms: C_15  and  N_16
REMARK    4  A    between atoms: N_16  and  C_17
REMARK    5  A    between atoms: C_17  and  C_18
REMARK    6  A    between atoms: C_18  and  C_19
REMARK    7  A    between atoms: C_19  and  N_20
REMARK    8  A    between atoms: N_20  and  C_21
REMARK    9  A    between atoms: N_20  and  C_22
REMARK                            x       y       z     vdW  Elec       q    Type
REMARK                         _______ _______ _______ _____ _____    ______ ____
ROOT
ATOM      1  C   UNL     1       5.100   3.647  20.116  0.00  0.00    +0.000 C 
ATOM      2  C   UNL     1       5.756   4.516  19.102  0.00  0.00    +0.000 A 
ATOM      3  N   UNL     1       6.680   5.369  19.582  0.00  0.00    +0.000 NA
ATOM      4  N   UNL     1       7.240   5.879  18.481  0.00  0.00    +0.000 N 
ATOM      5  C   UNL     1       8.108   7.024  18.570  0.00  0.00    +0.000 C 
ATOM      6  C   UNL     1       6.798   5.303  17.329  0.00  0.00    +0.000 A 
ATOM      7  N   UNL     1       7.357   5.476  16.124  0.00  0.00    +0.000 NA
ATOM      8  C   UNL     1       6.742   4.858  15.129  0.00  0.00    +0.000 A 
ATOM      9  C   UNL     1       7.404   4.886  13.907  0.00  0.00    +0.000 A 
ATOM     10  C   UNL     1       6.844   4.358  12.745  0.00  0.00    +0.000 A 
ATOM     11  C   UNL     1       5.578   3.807  12.809  0.00  0.00    +0.000 A 
ATOM     12  I   UNL     1       4.674   3.104  11.075  0.00  0.00    +0.000 I 
ATOM     13  C   UNL     1       4.912   3.725  14.035  0.00  0.00    +0.000 A 
ATOM     14  C   UNL     1       5.483   4.218  15.245  0.00  0.00    +0.000 A 
ATOM     15  C   UNL     1       4.864   4.119  16.566  0.00  0.00    +0.000 A 
ATOM     16  C   UNL     1       5.660   4.573  17.661  0.00  0.00    +0.000 A 
ENDROOT
BRANCH  15  17
ATOM     17  N   UNL     1       3.567   3.538  16.638  0.00  0.00    +0.000 N 
ATOM     18  H   UNL     1       2.863   4.265  16.643  0.00  0.00    +0.000 HD
BRANCH  17  19
ATOM     19  C   UNL     1       3.213   2.610  17.718  0.00  0.00    +0.000 C 
BRANCH  19  20
ATOM     20  C   UNL     1       1.795   2.843  18.245  0.00  0.00    +0.000 C 
BRANCH  20  21
ATOM     21  C   UNL     1       1.400   4.328  18.260  0.00  0.00    +0.000 C 
BRANCH  21  22
ATOM     22  N   UNL     1       2.348   5.221  18.947  0.00  0.00    +0.000 NA
ATOM     23  C   UNL     1       2.448   6.532  18.297  0.00  0.00    +0.000 C 
ATOM     24  C   UNL     1       1.939   5.408  20.344  0.00  0.00    +0.000 C 
ENDBRANCH  21  22
ENDBRANCH  20  21
ENDBRANCH  19  20
ENDBRANCH  17  19
ENDBRANCH  15  17
TORSDOF 5
ENDMDL
MODEL 6
REMARK VINA RESULT:      -5.9      6.380      8.949
REMARK  Name = 
REMARK  9 active torsions:
REMARK  status: ('A' for Active; 'I' for Inactive)
REMARK    1  A    between atoms: C_1  and  C_2
REMARK    2  A    between atoms: N_4  and  C_5
REMARK    3  A    between atoms: C_15  and  N_16
REMARK    4  A    between atoms: N_16  and  C_17
REMARK    5  A    between atoms: C_17  and  C_18
REMARK    6  A    between atoms: C_18  and  C_19
REMARK    7  A    between atoms: C_19  and  N_20
REMARK    8  A    between atoms: N_20  and  C_21
REMARK    9  A    between atoms: N_20  and  C_22
REMARK                            x       y       z     vdW  Elec       q    Type
REMARK                         _______ _______ _______ _____ _____    ______ ____
ROOT
ATOM      1  C   UNL     1      -1.450  11.897  19.368  0.00  0.00    +0.000 C 
ATOM      2  C   UNL     1      -0.647  10.948  20.186  0.00  0.00    +0.000 A 
ATOM      3  N   UNL     1      -1.040  10.813  21.466  0.00  0.00    +0.000 NA
ATOM      4  N   UNL     1      -0.303   9.793  21.916  0.00  0.00    +0.000 N 
ATOM      5  C   UNL     1      -0.249   9.499  23.325  0.00  0.00    +0.000 C 
ATOM      6  C   UNL     1       0.451   9.199  20.950  0.00  0.00    +0.000 A 
ATOM      7  N   UNL     1       1.096   8.034  21.092  0.00  0.00    +0.000 NA
ATOM      8  C   UNL     1       1.807   7.658  20.041  0.00  0.00    +0.000 A 
ATOM      9  C   UNL     1       2.341   6.376  20.107  0.00  0.00    +0.000 A 
ATOM     10  C   UNL     1       3.185   5.869  19.122  0.00  0.00    +0.000 A 
ATOM     11  C   UNL     1       3.520   6.679  18.053  0.00  0.00    +0.000 A 
ATOM     12  I   UNL     1       4.858   5.992  16.620  0.00  0.00    +0.000 I 
ATOM     13  C   UNL     1       2.960   7.955  17.940  0.00  0.00    +0.000 A 
ATOM     14  C   UNL     1       2.058   8.478  18.913  0.00  0.00    +0.000 A 
ATOM     15  C   UNL     1       1.399   9.780  18.832  0.00  0.00    +0.000 A 
ATOM     16  C   UNL     1       0.443  10.059  19.855  0.00  0.00    +0.000 A 
ENDROOT
BRANCH  15  17
ATOM     17  N   UNL     1       1.729  10.611  17.725  0.00  0.00    +0.000 N 
ATOM     18  H   UNL     1       2.088  10.048  16.965  0.00  0.00    +0.000 HD
BRANCH  17  19
ATOM     19  C   UNL     1       2.651  11.742  17.875  0.00  0.00    +0.000 C 
BRANCH  19  20
ATOM     20  C   UNL     1       1.921  13.058  18.157  0.00  0.00    +0.000 C 
BRANCH  20  21
ATOM     21  C   UNL     1       2.826  14.115  18.810  0.00  0.00    +0.000 C 
BRANCH  21  22
ATOM     22  N   UNL     1       3.180  15.254  17.947  0.00  0.00    +0.000 NA
ATOM     23  C   UNL     1       2.672  16.527  18.471  0.00  0.00    +0.000 C 
ATOM     24  C   UNL     1       4.639  15.342  17.805  0.00  0.00    +0.000 C 
ENDBRANCH  21  22
ENDBRANCH  20  21
ENDBRANCH  19  20
ENDBRANCH  17  19
ENDBRANCH  15  17
TORSDOF 5
ENDMDL
MODEL 7
REMARK VINA RESULT:      -5.9      6.343      8.657
REMARK  Name = 
REMARK  9 active torsions:
REMARK  status: ('A' for Active; 'I' for Inactive)
REMARK    1  A    between atoms: C_1  and  C_2
REMARK    2  A    between atoms: N_4  and  C_5
REMARK    3  A    between atoms: C_15  and  N_16
REMARK    4  A    between atoms: N_16  and  C_17
REMARK    5  A    between atoms: C_17  and  C_18
REMARK    6  A    between atoms: C_18  and  C_19
REMARK    7  A    between atoms: C_19  and  N_20
REMARK    8  A    between atoms: N_20  and  C_21
REMARK    9  A    between atoms: N_20  and  C_22
REMARK                            x       y       z     vdW  Elec       q    Type
REMARK                         _______ _______ _______ _____ _____    ______ ____
ROOT
ATOM      1  C   UNL     1      -1.434  11.892  19.367  0.00  0.00    +0.000 C 
ATOM      2  C   UNL     1      -0.621  10.944  20.175  0.00  0.00    +0.000 A 
ATOM      3  N   UNL     1      -1.009  10.795  21.455  0.00  0.00    +0.000 NA
ATOM      4  N   UNL     1      -0.262   9.777  21.895  0.00  0.00    +0.000 N 
ATOM      5  C   UNL     1      -0.202   9.473  23.301  0.00  0.00    +0.000 C 
ATOM      6  C   UNL     1       0.494   9.198  20.921  0.00  0.00    +0.000 A 
ATOM      7  N   UNL     1       1.149   8.037  21.052  0.00  0.00    +0.000 NA
ATOM      8  C   UNL     1       1.861   7.676  19.996  0.00  0.00    +0.000 A 
ATOM      9  C   UNL     1       2.405   6.398  20.051  0.00  0.00    +0.000 A 
ATOM     10  C   UNL     1       3.251   5.906  19.059  0.00  0.00    +0.000 A 
ATOM     11  C   UNL     1       3.576   6.728  17.996  0.00  0.00    +0.000 A 
ATOM     12  I   UNL     1       4.916   6.064  16.554  0.00  0.00    +0.000 I 
ATOM     13  C   UNL     1       3.006   8.000  17.895  0.00  0.00    +0.000 A 
ATOM     14  C   UNL     1       2.102   8.507  18.875  0.00  0.00    +0.000 A 
ATOM     15  C   UNL     1       1.431   9.804  18.806  0.00  0.00    +0.000 A 
ATOM     16  C   UNL     1       0.475  10.067  19.834  0.00  0.00    +0.000 A 
ENDROOT
BRANCH  15  17
ATOM     17  N   UNL     1       1.751  10.647  17.705  0.00  0.00    +0.000 N 
ATOM     18  H   UNL     1       2.132  10.096  16.947  0.00  0.00    +0.000 HD
BRANCH  17  19
ATOM     19  C   UNL     1       2.643  11.801  17.868  0.00  0.00    +0.000 C 
BRANCH  19  20
ATOM     20  C   UNL     1       1.882  13.084  18.208  0.00  0.00    +0.000 C 
BRANCH  20  21
ATOM     21  C   UNL     1       2.091  13.535  19.662  0.00  0.00    +0.000 C 
BRANCH  21  22
ATOM     22  N   UNL     1       1.041  14.415  20.203  0.00  0.00    +0.000 NA
ATOM     23  C   UNL     1       0.781  14.163  21.624  0.00  0.00    +0.000 C 
ATOM     24  C   UNL     1       1.425  15.821  20.027  0.00  0.00    +0.000 C 
ENDBRANCH  21  22
ENDBRANCH  20  21
ENDBRANCH  19  20
ENDBRANCH  17  19
ENDBRANCH  15  17
TORSDOF 5
ENDMDL
MODEL 8
REMARK VINA RESULT:      -5.9      3.748      5.905
REMARK  Name = 
REMARK  9 active torsions:
REMARK  status: ('A' for Active; 'I' for Inactive)
REMARK    1  A    between atoms: C_1  and  C_2
REMARK    2  A    between atoms: N_4  and  C_5
REMARK    3  A    between atoms: C_15  and  N_16
REMARK    4  A    between atoms: N_16  and  C_17
REMARK    5  A    between atoms: C_17  and  C_18
REMARK    6  A    between atoms: C_18  and  C_19
REMARK    7  A    between atoms: C_19  and  N_20
REMARK    8  A    between atoms: N_20  and  C_21
REMARK    9  A    between atoms: N_20  and  C_22
REMARK                            x       y       z     vdW  Elec       q    Type
REMARK                         _______ _______ _______ _____ _____    ______ ____
ROOT
ATOM      1  C   UNL     1       0.315   9.039  22.626  0.00  0.00    +0.000 C 
ATOM      2  C   UNL     1       0.439   9.069  21.143  0.00  0.00    +0.000 A 
ATOM      3  N   UNL     1      -0.248  10.048  20.526  0.00  0.00    +0.000 NA
ATOM      4  N   UNL     1       0.173   9.977  19.259  0.00  0.00    +0.000 N 
ATOM      5  C   UNL     1      -0.516  10.701  18.222  0.00  0.00    +0.000 C 
ATOM      6  C   UNL     1       1.180   9.080  19.070  0.00  0.00    +0.000 A 
ATOM      7  N   UNL     1       1.917   8.982  17.956  0.00  0.00    +0.000 NA
ATOM      8  C   UNL     1       2.816   8.011  17.965  0.00  0.00    +0.000 A 
ATOM      9  C   UNL     1       3.701   8.005  16.893  0.00  0.00    +0.000 A 
ATOM     10  C   UNL     1       4.645   6.997  16.713  0.00  0.00    +0.000 A 
ATOM     11  C   UNL     1       4.688   5.957  17.623  0.00  0.00    +0.000 A 
ATOM     12  I   UNL     1       6.014   4.385  17.327  0.00  0.00    +0.000 I 
ATOM     13  C   UNL     1       3.840   5.964  18.734  0.00  0.00    +0.000 A 
ATOM     14  C   UNL     1       2.896   7.008  18.963  0.00  0.00    +0.000 A 
ATOM     15  C   UNL     1       2.017   7.104  20.127  0.00  0.00    +0.000 A 
ATOM     16  C   UNL     1       1.231   8.293  20.217  0.00  0.00    +0.000 A 
ENDROOT
BRANCH  15  17
ATOM     17  N   UNL     1       2.069   6.043  21.074  0.00  0.00    +0.000 N 
ATOM     18  H   UNL     1       3.032   5.817  21.287  0.00  0.00    +0.000 HD
BRANCH  17  19
ATOM     19  C   UNL     1       1.389   4.768  20.820  0.00  0.00    +0.000 C 
BRANCH  19  20
ATOM     20  C   UNL     1       2.174   3.570  21.362  0.00  0.00    +0.000 C 
BRANCH  20  21
ATOM     21  C   UNL     1       2.569   2.570  20.265  0.00  0.00    +0.000 C 
BRANCH  21  22
ATOM     22  N   UNL     1       2.003   2.844  18.933  0.00  0.00    +0.000 NA
ATOM     23  C   UNL     1       2.842   2.316  17.852  0.00  0.00    +0.000 C 
ATOM     24  C   UNL     1       0.661   2.260  18.828  0.00  0.00    +0.000 C 
ENDBRANCH  21  22
ENDBRANCH  20  21
ENDBRANCH  19  20
ENDBRANCH  17  19
ENDBRANCH  15  17
TORSDOF 5
ENDMDL
MODEL 9
REMARK VINA RESULT:      -5.8      3.526      5.216
REMARK  Name = 
REMARK  9 active torsions:
REMARK  status: ('A' for Active; 'I' for Inactive)
REMARK    1  A    between atoms: C_1  and  C_2
REMARK    2  A    between atoms: N_4  and  C_5
REMARK    3  A    between atoms: C_15  and  N_16
REMARK    4  A    between atoms: N_16  and  C_17
REMARK    5  A    between atoms: C_17  and  C_18
REMARK    6  A    between atoms: C_18  and  C_19
REMARK    7  A    between atoms: C_19  and  N_20
REMARK    8  A    between atoms: N_20  and  C_21
REMARK    9  A    between atoms: N_20  and  C_22
REMARK                            x       y       z     vdW  Elec       q    Type
REMARK                         _______ _______ _______ _____ _____    ______ ____
ROOT
ATOM      1  C   UNL     1       4.470   2.367  19.714  0.00  0.00    +0.000 C 
ATOM      2  C   UNL     1       4.815   3.709  19.171  0.00  0.00    +0.000 A 
ATOM      3  N   UNL     1       5.885   3.745  18.356  0.00  0.00    +0.000 NA
ATOM      4  N   UNL     1       5.865   4.989  17.865  0.00  0.00    +0.000 N 
ATOM      5  C   UNL     1       6.999   5.504  17.141  0.00  0.00    +0.000 C 
ATOM      6  C   UNL     1       4.767   5.703  18.237  0.00  0.00    +0.000 A 
ATOM      7  N   UNL     1       4.404   6.878  17.707  0.00  0.00    +0.000 NA
ATOM      8  C   UNL     1       3.325   7.423  18.246  0.00  0.00    +0.000 A 
ATOM      9  C   UNL     1       2.837   8.551  17.597  0.00  0.00    +0.000 A 
ATOM     10  C   UNL     1       1.765   9.290  18.091  0.00  0.00    +0.000 A 
ATOM     11  C   UNL     1       1.181   8.897  19.281  0.00  0.00    +0.000 A 
ATOM     12  I   UNL     1      -0.353  10.035  20.099  0.00  0.00    +0.000 I 
ATOM     13  C   UNL     1       1.623   7.740  19.929  0.00  0.00    +0.000 A 
ATOM     14  C   UNL     1       2.689   6.944  19.418  0.00  0.00    +0.000 A 
ATOM     15  C   UNL     1       3.167   5.698  20.016  0.00  0.00    +0.000 A 
ATOM     16  C   UNL     1       4.169   4.997  19.277  0.00  0.00    +0.000 A 
ENDROOT
BRANCH  15  17
ATOM     17  N   UNL     1       2.558   5.282  21.232  0.00  0.00    +0.000 N 
ATOM     18  H   UNL     1       3.020   5.721  22.018  0.00  0.00    +0.000 HD
BRANCH  17  19
ATOM     19  C   UNL     1       2.433   3.859  21.568  0.00  0.00    +0.000 C 
BRANCH  19  20
ATOM     20  C   UNL     1       1.146   3.239  21.017  0.00  0.00    +0.000 C 
BRANCH  20  21
ATOM     21  C   UNL     1       0.619   3.968  19.771  0.00  0.00    +0.000 C 
BRANCH  21  22
ATOM     22  N   UNL     1       0.693   3.198  18.518  0.00  0.00    +0.000 NA
ATOM     23  C   UNL     1       1.484   3.883  17.490  0.00  0.00    +0.000 C 
ATOM     24  C   UNL     1       1.279   1.877  18.774  0.00  0.00    +0.000 C 
ENDBRANCH  21  22
ENDBRANCH  20  21
ENDBRANCH  19  20
ENDBRANCH  17  19
ENDBRANCH  15  17
TORSDOF 5
ENDMDL
