MODEL 1
REMARK VINA RESULT:      -8.0      0.000      0.000
REMARK  Name = 
REMARK  12 active torsions:
REMARK  status: ('A' for Active; 'I' for Inactive)
REMARK    1  A    between atoms: C_4  and  C_5
REMARK    2  A    between atoms: C_10  and  C_11
REMARK    3  A    between atoms: C_15  and  C_16
REMARK    4  A    between atoms: C_16  and  C_17
REMARK    5  A    between atoms: C_16  and  C_18
REMARK    6  A    between atoms: C_18  and  C_19
REMARK    7  A    between atoms: C_25  and  C_26
REMARK    8  A    between atoms: C_26  and  C_27
REMARK    9  A    between atoms: C_27  and  C_28
REMARK   10  A    between atoms: C_28  and  C_29
REMARK   11  A    between atoms: C_31  and  O_32
REMARK   12  A    between atoms: C_34  and  O_35
REMARK                            x       y       z     vdW  Elec       q    Type
REMARK                         _______ _______ _______ _____ _____    ______ ____
ROOT
ATOM      1  C   UNL     1       1.218   7.950  20.220  0.00  0.00    +0.000 C 
ATOM      2  C   UNL     1       0.310   8.772  20.773  0.00  0.00    +0.000 C 
ATOM      3  C   UNL     1      -0.264   8.622  22.176  0.00  0.00    +0.000 C 
ATOM      4  C   UNL     1      -0.289   9.938  22.959  0.00  0.00    +0.000 C 
ATOM      5  C   UNL     1      -0.968  11.079  22.194  0.00  0.00    +0.000 C 
ATOM      6  C   UNL     1      -0.427  11.228  20.757  0.00  0.00    +0.000 C 
ATOM      7  C   UNL     1       1.004  11.840  20.867  0.00  0.00    +0.000 C 
ATOM      8  C   UNL     1      -0.371   9.875  20.010  0.00  0.00    +0.000 C 
ATOM      9  C   UNL     1      -0.067  10.272  18.563  0.00  0.00    +0.000 C 
ATOM     10  C   UNL     1      -0.757  11.645  18.385  0.00  0.00    +0.000 C 
ATOM     11  C   UNL     1      -1.305  12.084  19.771  0.00  0.00    +0.000 C 
ENDROOT
BRANCH   1  15
ATOM     12  C   UNL     1       2.942   6.327  18.038  0.00  0.00    +0.000 C 
ATOM     13  C   UNL     1       2.277   5.433  18.795  0.00  0.00    +0.000 C 
ATOM     14  C   UNL     1       2.133   5.626  20.241  0.00  0.00    +0.000 C 
ATOM     15  C   UNL     1       1.700   6.742  20.850  0.00  0.00    +0.000 C 
ATOM     16  C   UNL     1       2.502   4.417  21.085  0.00  0.00    +0.000 C 
ATOM     17  C   UNL     1       1.841   3.130  20.580  0.00  0.00    +0.000 C 
ATOM     18  C   UNL     1       2.076   2.929  19.085  0.00  0.00    +0.000 C 
ATOM     19  C   UNL     1       1.656   4.153  18.262  0.00  0.00    +0.000 C 
BRANCH  17  20
ATOM     20  O   UNL     1       0.442   3.124  20.871  0.00  0.00    +0.000 OA
ATOM     21  H   UNL     1       0.236   2.332  21.396  0.00  0.00    +0.000 HD
ENDBRANCH  17  20
BRANCH  19  22
ATOM     22  O   UNL     1       2.022   3.921  16.901  0.00  0.00    +0.000 OA
ATOM     23  H   UNL     1       1.315   3.384  16.507  0.00  0.00    +0.000 HD
ENDBRANCH  19  22
ENDBRANCH   1  15
BRANCH  11  24
ATOM     24  C   UNL     1      -2.882  11.963  19.919  0.00  0.00    +0.000 C 
ATOM     25  C   UNL     1      -3.622  11.737  18.592  0.00  0.00    +0.000 C 
BRANCH  24  26
ATOM     26  C   UNL     1      -3.519  13.160  20.714  0.00  0.00    +0.000 C 
BRANCH  26  27
ATOM     27  C   UNL     1      -3.994  12.762  22.141  0.00  0.00    +0.000 C 
ATOM     28  O   UNL     1      -5.360  12.327  22.121  0.00  0.00    +0.000 OA
ATOM     29  C   UNL     1      -6.199  13.339  22.443  0.00  0.00    +0.000 C 
ATOM     30  O   UNL     1      -7.392  13.383  22.215  0.00  0.00    +0.000 OA
ATOM     31  C   UNL     1      -5.392  14.334  23.188  0.00  0.00    +0.000 C 
ATOM     32  C   UNL     1      -6.001  15.396  23.726  0.00  0.00    +0.000 C 
ATOM     33  C   UNL     1      -3.991  13.811  23.261  0.00  0.00    +0.000 C 
BRANCH  33  34
ATOM     34  C   UNL     1      -2.823  14.800  23.251  0.00  0.00    +0.000 C 
BRANCH  34  35
ATOM     35  C   UNL     1      -1.456  14.209  23.638  0.00  0.00    +0.000 C 
BRANCH  35  36
ATOM     36  C   UNL     1      -0.285  14.748  22.811  0.00  0.00    +0.000 C 
ATOM     37  C   UNL     1      -0.741  15.318  21.479  0.00  0.00    +0.000 C 
ENDBRANCH  35  36
ENDBRANCH  34  35
ENDBRANCH  33  34
ENDBRANCH  26  27
ENDBRANCH  24  26
ENDBRANCH  11  24
TORSDOF 9
ENDMDL
MODEL 2
REMARK VINA RESULT:      -7.8      0.754      1.002
REMARK  Name = 
REMARK  12 active torsions:
REMARK  status: ('A' for Active; 'I' for Inactive)
REMARK    1  A    between atoms: C_4  and  C_5
REMARK    2  A    between atoms: C_10  and  C_11
REMARK    3  A    between atoms: C_15  and  C_16
REMARK    4  A    between atoms: C_16  and  C_17
REMARK    5  A    between atoms: C_16  and  C_18
REMARK    6  A    between atoms: C_18  and  C_19
REMARK    7  A    between atoms: C_25  and  C_26
REMARK    8  A    between atoms: C_26  and  C_27
REMARK    9  A    between atoms: C_27  and  C_28
REMARK   10  A    between atoms: C_28  and  C_29
REMARK   11  A    between atoms: C_31  and  O_32
REMARK   12  A    between atoms: C_34  and  O_35
REMARK                            x       y       z     vdW  Elec       q    Type
REMARK                         _______ _______ _______ _____ _____    ______ ____
ROOT
ATOM      1  C   UNL     1       1.307   8.036  20.221  0.00  0.00    +0.000 C 
ATOM      2  C   UNL     1       0.371   8.832  20.766  0.00  0.00    +0.000 C 
ATOM      3  C   UNL     1      -0.253   8.631  22.142  0.00  0.00    +0.000 C 
ATOM      4  C   UNL     1      -0.320   9.921  22.966  0.00  0.00    +0.000 C 
ATOM      5  C   UNL     1      -0.982  11.080  22.214  0.00  0.00    +0.000 C 
ATOM      6  C   UNL     1      -0.390  11.280  20.803  0.00  0.00    +0.000 C 
ATOM      7  C   UNL     1       1.029  11.901  20.986  0.00  0.00    +0.000 C 
ATOM      8  C   UNL     1      -0.293   9.953  20.015  0.00  0.00    +0.000 C 
ATOM      9  C   UNL     1       0.061  10.400  18.594  0.00  0.00    +0.000 C 
ATOM     10  C   UNL     1      -0.636  11.772  18.435  0.00  0.00    +0.000 C 
ATOM     11  C   UNL     1      -1.240  12.160  19.813  0.00  0.00    +0.000 C 
ENDROOT
BRANCH   1  15
ATOM     12  C   UNL     1       2.930   6.390  17.981  0.00  0.00    +0.000 C 
ATOM     13  C   UNL     1       2.266   5.506  18.750  0.00  0.00    +0.000 C 
ATOM     14  C   UNL     1       2.167   5.692  20.201  0.00  0.00    +0.000 C 
ATOM     15  C   UNL     1       1.777   6.813  20.830  0.00  0.00    +0.000 C 
ATOM     16  C   UNL     1       2.531   4.468  21.026  0.00  0.00    +0.000 C 
ATOM     17  C   UNL     1       1.825   3.201  20.531  0.00  0.00    +0.000 C 
ATOM     18  C   UNL     1       2.014   3.006  19.028  0.00  0.00    +0.000 C 
ATOM     19  C   UNL     1       1.601   4.245  18.226  0.00  0.00    +0.000 C 
BRANCH  17  20
ATOM     20  O   UNL     1       0.436   3.226  20.861  0.00  0.00    +0.000 OA
ATOM     21  H   UNL     1       0.345   3.360  21.820  0.00  0.00    +0.000 HD
ENDBRANCH  17  20
BRANCH  19  22
ATOM     22  O   UNL     1       1.923   4.015  16.854  0.00  0.00    +0.000 OA
ATOM     23  H   UNL     1       2.242   3.100  16.789  0.00  0.00    +0.000 HD
ENDBRANCH  19  22
ENDBRANCH   1  15
BRANCH  11  24
ATOM     24  C   UNL     1      -2.820  12.021  19.899  0.00  0.00    +0.000 C 
ATOM     25  C   UNL     1      -3.496  11.705  18.555  0.00  0.00    +0.000 C 
BRANCH  24  26
ATOM     26  C   UNL     1      -3.509  13.250  20.593  0.00  0.00    +0.000 C 
BRANCH  26  27
ATOM     27  C   UNL     1      -4.294  12.864  21.880  0.00  0.00    +0.000 C 
ATOM     28  O   UNL     1      -5.438  12.062  21.558  0.00  0.00    +0.000 OA
ATOM     29  C   UNL     1      -6.554  12.821  21.459  0.00  0.00    +0.000 C 
ATOM     30  O   UNL     1      -7.590  12.507  20.907  0.00  0.00    +0.000 OA
ATOM     31  C   UNL     1      -6.286  14.066  22.217  0.00  0.00    +0.000 C 
ATOM     32  C   UNL     1      -7.270  14.957  22.377  0.00  0.00    +0.000 C 
ATOM     33  C   UNL     1      -4.894  13.967  22.762  0.00  0.00    +0.000 C 
BRANCH  33  34
ATOM     34  C   UNL     1      -4.057  15.241  22.906  0.00  0.00    +0.000 C 
BRANCH  34  35
ATOM     35  C   UNL     1      -3.570  15.551  24.332  0.00  0.00    +0.000 C 
BRANCH  35  36
ATOM     36  C   UNL     1      -2.458  14.623  24.829  0.00  0.00    +0.000 C 
ATOM     37  C   UNL     1      -1.361  14.438  23.794  0.00  0.00    +0.000 C 
ENDBRANCH  35  36
ENDBRANCH  34  35
ENDBRANCH  33  34
ENDBRANCH  26  27
ENDBRANCH  24  26
ENDBRANCH  11  24
TORSDOF 9
ENDMDL
MODEL 3
REMARK VINA RESULT:      -7.4      1.539      2.726
REMARK  Name = 
REMARK  12 active torsions:
REMARK  status: ('A' for Active; 'I' for Inactive)
REMARK    1  A    between atoms: C_4  and  C_5
REMARK    2  A    between atoms: C_10  and  C_11
REMARK    3  A    between atoms: C_15  and  C_16
REMARK    4  A    between atoms: C_16  and  C_17
REMARK    5  A    between atoms: C_16  and  C_18
REMARK    6  A    between atoms: C_18  and  C_19
REMARK    7  A    between atoms: C_25  and  C_26
REMARK    8  A    between atoms: C_26  and  C_27
REMARK    9  A    between atoms: C_27  and  C_28
REMARK   10  A    between atoms: C_28  and  C_29
REMARK   11  A    between atoms: C_31  and  O_32
REMARK   12  A    between atoms: C_34  and  O_35
REMARK                            x       y       z     vdW  Elec       q    Type
REMARK                         _______ _______ _______ _____ _____    ______ ____
ROOT
ATOM      1  C   UNL     1       1.318   7.877  20.237  0.00  0.00    +0.000 C 
ATOM      2  C   UNL     1       0.427   8.696  20.821  0.00  0.00    +0.000 C 
ATOM      3  C   UNL     1      -0.112   8.532  22.237  0.00  0.00    +0.000 C 
ATOM      4  C   UNL     1      -0.114   9.841  23.034  0.00  0.00    +0.000 C 
ATOM      5  C   UNL     1      -0.808  10.992  22.298  0.00  0.00    +0.000 C 
ATOM      6  C   UNL     1      -0.303  11.153  20.849  0.00  0.00    +0.000 C 
ATOM      7  C   UNL     1       1.132  11.760  20.930  0.00  0.00    +0.000 C 
ATOM      8  C   UNL     1      -0.269   9.808  20.087  0.00  0.00    +0.000 C 
ATOM      9  C   UNL     1       0.000  10.220  18.637  0.00  0.00    +0.000 C 
ATOM     10  C   UNL     1      -0.690  11.596  18.490  0.00  0.00    +0.000 C 
ATOM     11  C   UNL     1      -1.202  12.022  19.894  0.00  0.00    +0.000 C 
ENDROOT
BRANCH   1  15
ATOM     12  C   UNL     1       2.915   6.234  17.975  0.00  0.00    +0.000 C 
ATOM     13  C   UNL     1       2.273   5.348  18.761  0.00  0.00    +0.000 C 
ATOM     14  C   UNL     1       2.201   5.540  20.213  0.00  0.00    +0.000 C 
ATOM     15  C   UNL     1       1.812   6.661  20.843  0.00  0.00    +0.000 C 
ATOM     16  C   UNL     1       2.592   4.325  21.037  0.00  0.00    +0.000 C 
ATOM     17  C   UNL     1       1.889   3.048  20.562  0.00  0.00    +0.000 C 
ATOM     18  C   UNL     1       2.051   2.847  19.057  0.00  0.00    +0.000 C 
ATOM     19  C   UNL     1       1.611   4.078  18.257  0.00  0.00    +0.000 C 
BRANCH  17  20
ATOM     20  O   UNL     1       0.506   3.062  20.919  0.00  0.00    +0.000 OA
ATOM     21  H   UNL     1       0.346   3.810  21.520  0.00  0.00    +0.000 HD
ENDBRANCH  17  20
BRANCH  19  22
ATOM     22  O   UNL     1       1.908   3.843  16.880  0.00  0.00    +0.000 OA
ATOM     23  H   UNL     1       1.891   4.707  16.436  0.00  0.00    +0.000 HD
ENDBRANCH  19  22
ENDBRANCH   1  15
BRANCH  11  24
ATOM     24  C   UNL     1      -2.776  11.904  20.080  0.00  0.00    +0.000 C 
ATOM     25  C   UNL     1      -3.575  12.050  18.776  0.00  0.00    +0.000 C 
BRANCH  24  26
ATOM     26  C   UNL     1      -3.338  12.867  21.188  0.00  0.00    +0.000 C 
BRANCH  26  27
ATOM     27  C   UNL     1      -4.401  13.866  20.647  0.00  0.00    +0.000 C 
ATOM     28  O   UNL     1      -4.053  15.215  20.987  0.00  0.00    +0.000 OA
ATOM     29  C   UNL     1      -4.685  15.611  22.117  0.00  0.00    +0.000 C 
ATOM     30  O   UNL     1      -4.372  16.549  22.822  0.00  0.00    +0.000 OA
ATOM     31  C   UNL     1      -5.863  14.727  22.273  0.00  0.00    +0.000 C 
ATOM     32  C   UNL     1      -6.734  14.968  23.258  0.00  0.00    +0.000 C 
ATOM     33  C   UNL     1      -5.854  13.761  21.127  0.00  0.00    +0.000 C 
BRANCH  33  34
ATOM     34  C   UNL     1      -6.389  12.343  21.342  0.00  0.00    +0.000 C 
BRANCH  34  35
ATOM     35  C   UNL     1      -7.058  11.700  20.115  0.00  0.00    +0.000 C 
BRANCH  35  36
ATOM     36  C   UNL     1      -7.498  12.703  19.045  0.00  0.00    +0.000 C 
ATOM     37  C   UNL     1      -7.081  12.271  17.649  0.00  0.00    +0.000 C 
ENDBRANCH  35  36
ENDBRANCH  34  35
ENDBRANCH  33  34
ENDBRANCH  26  27
ENDBRANCH  24  26
ENDBRANCH  11  24
TORSDOF 9
ENDMDL
MODEL 4
REMARK VINA RESULT:      -7.4      1.205      1.640
REMARK  Name = 
REMARK  12 active torsions:
REMARK  status: ('A' for Active; 'I' for Inactive)
REMARK    1  A    between atoms: C_4  and  C_5
REMARK    2  A    between atoms: C_10  and  C_11
REMARK    3  A    between atoms: C_15  and  C_16
REMARK    4  A    between atoms: C_16  and  C_17
REMARK    5  A    between atoms: C_16  and  C_18
REMARK    6  A    between atoms: C_18  and  C_19
REMARK    7  A    between atoms: C_25  and  C_26
REMARK    8  A    between atoms: C_26  and  C_27
REMARK    9  A    between atoms: C_27  and  C_28
REMARK   10  A    between atoms: C_28  and  C_29
REMARK   11  A    between atoms: C_31  and  O_32
REMARK   12  A    between atoms: C_34  and  O_35
REMARK                            x       y       z     vdW  Elec       q    Type
REMARK                         _______ _______ _______ _____ _____    ______ ____
ROOT
ATOM      1  C   UNL     1       1.378   7.880  20.216  0.00  0.00    +0.000 C 
ATOM      2  C   UNL     1       0.466   8.708  20.756  0.00  0.00    +0.000 C 
ATOM      3  C   UNL     1      -0.166   8.532  22.131  0.00  0.00    +0.000 C 
ATOM      4  C   UNL     1      -0.193   9.827  22.950  0.00  0.00    +0.000 C 
ATOM      5  C   UNL     1      -0.816  11.004  22.192  0.00  0.00    +0.000 C 
ATOM      6  C   UNL     1      -0.215  11.179  20.782  0.00  0.00    +0.000 C 
ATOM      7  C   UNL     1       1.223  11.755  20.965  0.00  0.00    +0.000 C 
ATOM      8  C   UNL     1      -0.159   9.847  19.999  0.00  0.00    +0.000 C 
ATOM      9  C   UNL     1       0.212  10.277  18.577  0.00  0.00    +0.000 C 
ATOM     10  C   UNL     1      -0.441  11.669  18.411  0.00  0.00    +0.000 C 
ATOM     11  C   UNL     1      -1.034  12.082  19.786  0.00  0.00    +0.000 C 
ENDROOT
BRANCH   1  15
ATOM     12  C   UNL     1       3.059   6.230  18.022  0.00  0.00    +0.000 C 
ATOM     13  C   UNL     1       2.353   5.349  18.758  0.00  0.00    +0.000 C 
ATOM     14  C   UNL     1       2.204   5.524  20.206  0.00  0.00    +0.000 C 
ATOM     15  C   UNL     1       1.807   6.645  20.830  0.00  0.00    +0.000 C 
ATOM     16  C   UNL     1       2.519   4.287  21.033  0.00  0.00    +0.000 C 
ATOM     17  C   UNL     1       1.813   3.035  20.501  0.00  0.00    +0.000 C 
ATOM     18  C   UNL     1       2.055   2.850  19.004  0.00  0.00    +0.000 C 
ATOM     19  C   UNL     1       1.690   4.103  18.198  0.00  0.00    +0.000 C 
BRANCH  17  20
ATOM     20  O   UNL     1       0.413   3.078  20.779  0.00  0.00    +0.000 OA
ATOM     21  H   UNL     1       0.282   2.973  21.738  0.00  0.00    +0.000 HD
ENDBRANCH  17  20
BRANCH  19  22
ATOM     22  O   UNL     1       2.059   3.879  16.837  0.00  0.00    +0.000 OA
ATOM     23  H   UNL     1       1.487   3.168  16.503  0.00  0.00    +0.000 HD
ENDBRANCH  19  22
ENDBRANCH   1  15
BRANCH  11  24
ATOM     24  C   UNL     1      -2.618  11.994  19.869  0.00  0.00    +0.000 C 
ATOM     25  C   UNL     1      -3.293  11.570  18.555  0.00  0.00    +0.000 C 
BRANCH  24  26
ATOM     26  C   UNL     1      -3.278  13.302  20.437  0.00  0.00    +0.000 C 
BRANCH  26  27
ATOM     27  C   UNL     1      -2.666  13.757  21.792  0.00  0.00    +0.000 C 
ATOM     28  O   UNL     1      -3.591  13.545  22.867  0.00  0.00    +0.000 OA
ATOM     29  C   UNL     1      -4.289  14.672  23.140  0.00  0.00    +0.000 C 
ATOM     30  O   UNL     1      -5.335  14.738  23.755  0.00  0.00    +0.000 OA
ATOM     31  C   UNL     1      -3.489  15.801  22.610  0.00  0.00    +0.000 C 
ATOM     32  C   UNL     1      -3.897  17.053  22.841  0.00  0.00    +0.000 C 
ATOM     33  C   UNL     1      -2.256  15.223  21.986  0.00  0.00    +0.000 C 
BRANCH  33  34
ATOM     34  C   UNL     1      -1.643  15.915  20.766  0.00  0.00    +0.000 C 
BRANCH  34  35
ATOM     35  C   UNL     1      -0.168  15.574  20.489  0.00  0.00    +0.000 C 
BRANCH  35  36
ATOM     36  C   UNL     1       0.155  15.356  19.008  0.00  0.00    +0.000 C 
ATOM     37  C   UNL     1       1.567  14.834  18.801  0.00  0.00    +0.000 C 
ENDBRANCH  35  36
ENDBRANCH  34  35
ENDBRANCH  33  34
ENDBRANCH  26  27
ENDBRANCH  24  26
ENDBRANCH  11  24
TORSDOF 9
ENDMDL
MODEL 5
REMARK VINA RESULT:      -7.3      0.782      1.036
REMARK  Name = 
REMARK  12 active torsions:
REMARK  status: ('A' for Active; 'I' for Inactive)
REMARK    1  A    between atoms: C_4  and  C_5
REMARK    2  A    between atoms: C_10  and  C_11
REMARK    3  A    between atoms: C_15  and  C_16
REMARK    4  A    between atoms: C_16  and  C_17
REMARK    5  A    between atoms: C_16  and  C_18
REMARK    6  A    between atoms: C_18  and  C_19
REMARK    7  A    between atoms: C_25  and  C_26
REMARK    8  A    between atoms: C_26  and  C_27
REMARK    9  A    between atoms: C_27  and  C_28
REMARK   10  A    between atoms: C_28  and  C_29
REMARK   11  A    between atoms: C_31  and  O_32
REMARK   12  A    between atoms: C_34  and  O_35
REMARK                            x       y       z     vdW  Elec       q    Type
REMARK                         _______ _______ _______ _____ _____    ______ ____
ROOT
ATOM      1  C   UNL     1       1.363   7.917  20.191  0.00  0.00    +0.000 C 
ATOM      2  C   UNL     1       0.437   8.725  20.735  0.00  0.00    +0.000 C 
ATOM      3  C   UNL     1      -0.170   8.546  22.121  0.00  0.00    +0.000 C 
ATOM      4  C   UNL     1      -0.222   9.848  22.927  0.00  0.00    +0.000 C 
ATOM      5  C   UNL     1      -0.887  11.000  22.166  0.00  0.00    +0.000 C 
ATOM      6  C   UNL     1      -0.311  11.177  20.745  0.00  0.00    +0.000 C 
ATOM      7  C   UNL     1       1.114  11.793  20.903  0.00  0.00    +0.000 C 
ATOM      8  C   UNL     1      -0.229   9.838  19.976  0.00  0.00    +0.000 C 
ATOM      9  C   UNL     1       0.110  10.263  18.544  0.00  0.00    +0.000 C 
ATOM     10  C   UNL     1      -0.583  11.636  18.373  0.00  0.00    +0.000 C 
ATOM     11  C   UNL     1      -1.168  12.047  19.753  0.00  0.00    +0.000 C 
ENDROOT
BRANCH   1  15
ATOM     12  C   UNL     1       3.004   6.259  17.972  0.00  0.00    +0.000 C 
ATOM     13  C   UNL     1       2.339   5.379  18.744  0.00  0.00    +0.000 C 
ATOM     14  C   UNL     1       2.232   5.575  20.193  0.00  0.00    +0.000 C 
ATOM     15  C   UNL     1       1.835   6.700  20.811  0.00  0.00    +0.000 C 
ATOM     16  C   UNL     1       2.596   4.359  21.030  0.00  0.00    +0.000 C 
ATOM     17  C   UNL     1       1.897   3.085  20.541  0.00  0.00    +0.000 C 
ATOM     18  C   UNL     1       2.095   2.879  19.041  0.00  0.00    +0.000 C 
ATOM     19  C   UNL     1       1.681   4.111  18.227  0.00  0.00    +0.000 C 
BRANCH  17  20
ATOM     20  O   UNL     1       0.506   3.108  20.864  0.00  0.00    +0.000 OA
ATOM     21  H   UNL     1       0.041   2.478  20.286  0.00  0.00    +0.000 HD
ENDBRANCH  17  20
BRANCH  19  22
ATOM     22  O   UNL     1       2.011   3.871  16.859  0.00  0.00    +0.000 OA
ATOM     23  H   UNL     1       2.332   4.713  16.494  0.00  0.00    +0.000 HD
ENDBRANCH  19  22
ENDBRANCH   1  15
BRANCH  11  24
ATOM     24  C   UNL     1      -2.748  11.917  19.859  0.00  0.00    +0.000 C 
ATOM     25  C   UNL     1      -3.447  11.653  18.517  0.00  0.00    +0.000 C 
BRANCH  24  26
ATOM     26  C   UNL     1      -3.416  13.127  20.606  0.00  0.00    +0.000 C 
BRANCH  26  27
ATOM     27  C   UNL     1      -3.569  12.891  22.136  0.00  0.00    +0.000 C 
ATOM     28  O   UNL     1      -4.926  12.574  22.471  0.00  0.00    +0.000 OA
ATOM     29  C   UNL     1      -5.600  13.678  22.871  0.00  0.00    +0.000 C 
ATOM     30  O   UNL     1      -6.808  13.804  22.916  0.00  0.00    +0.000 OA
ATOM     31  C   UNL     1      -4.580  14.658  23.310  0.00  0.00    +0.000 C 
ATOM     32  C   UNL     1      -4.978  15.809  23.862  0.00  0.00    +0.000 C 
ATOM     33  C   UNL     1      -3.237  14.025  23.115  0.00  0.00    +0.000 C 
BRANCH  33  34
ATOM     34  C   UNL     1      -2.043  14.907  22.741  0.00  0.00    +0.000 C 
BRANCH  34  35
ATOM     35  C   UNL     1      -1.831  16.141  23.634  0.00  0.00    +0.000 C 
BRANCH  35  36
ATOM     36  C   UNL     1      -0.851  15.916  24.789  0.00  0.00    +0.000 C 
ATOM     37  C   UNL     1      -1.563  15.545  26.079  0.00  0.00    +0.000 C 
ENDBRANCH  35  36
ENDBRANCH  34  35
ENDBRANCH  33  34
ENDBRANCH  26  27
ENDBRANCH  24  26
ENDBRANCH  11  24
TORSDOF 9
ENDMDL
MODEL 6
REMARK VINA RESULT:      -7.2      1.464      2.408
REMARK  Name = 
REMARK  12 active torsions:
REMARK  status: ('A' for Active; 'I' for Inactive)
REMARK    1  A    between atoms: C_4  and  C_5
REMARK    2  A    between atoms: C_10  and  C_11
REMARK    3  A    between atoms: C_15  and  C_16
REMARK    4  A    between atoms: C_16  and  C_17
REMARK    5  A    between atoms: C_16  and  C_18
REMARK    6  A    between atoms: C_18  and  C_19
REMARK    7  A    between atoms: C_25  and  C_26
REMARK    8  A    between atoms: C_26  and  C_27
REMARK    9  A    between atoms: C_27  and  C_28
REMARK   10  A    between atoms: C_28  and  C_29
REMARK   11  A    between atoms: C_31  and  O_32
REMARK   12  A    between atoms: C_34  and  O_35
REMARK                            x       y       z     vdW  Elec       q    Type
REMARK                         _______ _______ _______ _____ _____    ______ ____
ROOT
ATOM      1  C   UNL     1       1.372   8.003  20.245  0.00  0.00    +0.000 C 
ATOM      2  C   UNL     1       0.436   8.813  20.768  0.00  0.00    +0.000 C 
ATOM      3  C   UNL     1      -0.224   8.619  22.128  0.00  0.00    +0.000 C 
ATOM      4  C   UNL     1      -0.291   9.908  22.953  0.00  0.00    +0.000 C 
ATOM      5  C   UNL     1      -0.915  11.080  22.187  0.00  0.00    +0.000 C 
ATOM      6  C   UNL     1      -0.286  11.273  20.792  0.00  0.00    +0.000 C 
ATOM      7  C   UNL     1       1.139  11.871  21.011  0.00  0.00    +0.000 C 
ATOM      8  C   UNL     1      -0.190   9.946  20.004  0.00  0.00    +0.000 C 
ATOM      9  C   UNL     1       0.205  10.390  18.592  0.00  0.00    +0.000 C 
ATOM     10  C   UNL     1      -0.466  11.773  18.420  0.00  0.00    +0.000 C 
ATOM     11  C   UNL     1      -1.096  12.169  19.783  0.00  0.00    +0.000 C 
ENDROOT
BRANCH   1  15
ATOM     12  C   UNL     1       3.045   6.347  18.049  0.00  0.00    +0.000 C 
ATOM     13  C   UNL     1       2.346   5.468  18.792  0.00  0.00    +0.000 C 
ATOM     14  C   UNL     1       2.204   5.648  20.240  0.00  0.00    +0.000 C 
ATOM     15  C   UNL     1       1.808   6.772  20.862  0.00  0.00    +0.000 C 
ATOM     16  C   UNL     1       2.525   4.416  21.070  0.00  0.00    +0.000 C 
ATOM     17  C   UNL     1       1.820   3.160  20.547  0.00  0.00    +0.000 C 
ATOM     18  C   UNL     1       2.054   2.970  19.050  0.00  0.00    +0.000 C 
ATOM     19  C   UNL     1       1.682   4.218  18.241  0.00  0.00    +0.000 C 
BRANCH  17  20
ATOM     20  O   UNL     1       0.421   3.201  20.833  0.00  0.00    +0.000 OA
ATOM     21  H   UNL     1      -0.068   3.226  19.992  0.00  0.00    +0.000 HD
ENDBRANCH  17  20
BRANCH  19  22
ATOM     22  O   UNL     1       2.044   3.990  16.879  0.00  0.00    +0.000 OA
ATOM     23  H   UNL     1       3.006   3.852  16.862  0.00  0.00    +0.000 HD
ENDBRANCH  19  22
ENDBRANCH   1  15
BRANCH  11  24
ATOM     24  C   UNL     1      -2.680  12.055  19.830  0.00  0.00    +0.000 C 
ATOM     25  C   UNL     1      -3.314  11.574  18.516  0.00  0.00    +0.000 C 
BRANCH  24  26
ATOM     26  C   UNL     1      -3.377  13.369  20.336  0.00  0.00    +0.000 C 
BRANCH  26  27
ATOM     27  C   UNL     1      -4.923  13.236  20.452  0.00  0.00    +0.000 C 
ATOM     28  O   UNL     1      -5.578  13.974  19.413  0.00  0.00    +0.000 OA
ATOM     29  C   UNL     1      -5.946  15.203  19.845  0.00  0.00    +0.000 C 
ATOM     30  O   UNL     1      -6.227  16.156  19.145  0.00  0.00    +0.000 OA
ATOM     31  C   UNL     1      -6.013  15.127  21.323  0.00  0.00    +0.000 C 
ATOM     32  C   UNL     1      -6.462  16.182  22.011  0.00  0.00    +0.000 C 
ATOM     33  C   UNL     1      -5.633  13.733  21.718  0.00  0.00    +0.000 C 
BRANCH  33  34
ATOM     34  C   UNL     1      -4.891  13.506  23.037  0.00  0.00    +0.000 C 
BRANCH  34  35
ATOM     35  C   UNL     1      -5.639  12.651  24.075  0.00  0.00    +0.000 C 
BRANCH  35  36
ATOM     36  C   UNL     1      -7.151  12.887  24.106  0.00  0.00    +0.000 C 
ATOM     37  C   UNL     1      -7.917  11.787  23.390  0.00  0.00    +0.000 C 
ENDBRANCH  35  36
ENDBRANCH  34  35
ENDBRANCH  33  34
ENDBRANCH  26  27
ENDBRANCH  24  26
ENDBRANCH  11  24
TORSDOF 9
ENDMDL
MODEL 7
REMARK VINA RESULT:      -7.2      1.951     10.123
REMARK  Name = 
REMARK  12 active torsions:
REMARK  status: ('A' for Active; 'I' for Inactive)
REMARK    1  A    between atoms: C_4  and  C_5
REMARK    2  A    between atoms: C_10  and  C_11
REMARK    3  A    between atoms: C_15  and  C_16
REMARK    4  A    between atoms: C_16  and  C_17
REMARK    5  A    between atoms: C_16  and  C_18
REMARK    6  A    between atoms: C_18  and  C_19
REMARK    7  A    between atoms: C_25  and  C_26
REMARK    8  A    between atoms: C_26  and  C_27
REMARK    9  A    between atoms: C_27  and  C_28
REMARK   10  A    between atoms: C_28  and  C_29
REMARK   11  A    between atoms: C_31  and  O_32
REMARK   12  A    between atoms: C_34  and  O_35
REMARK                            x       y       z     vdW  Elec       q    Type
REMARK                         _______ _______ _______ _____ _____    ______ ____
ROOT
ATOM      1  C   UNL     1      -2.576  13.058  20.813  0.00  0.00    +0.000 C 
ATOM      2  C   UNL     1      -2.187  12.046  20.020  0.00  0.00    +0.000 C 
ATOM      3  C   UNL     1      -3.095  11.300  19.049  0.00  0.00    +0.000 C 
ATOM      4  C   UNL     1      -2.466  11.106  17.666  0.00  0.00    +0.000 C 
ATOM      5  C   UNL     1      -1.069  10.479  17.724  0.00  0.00    +0.000 C 
ATOM      6  C   UNL     1      -0.143  11.197  18.727  0.00  0.00    +0.000 C 
ATOM      7  C   UNL     1       0.244  12.568  18.092  0.00  0.00    +0.000 C 
ATOM      8  C   UNL     1      -0.823  11.418  20.098  0.00  0.00    +0.000 C 
ATOM      9  C   UNL     1       0.321  11.891  20.999  0.00  0.00    +0.000 C 
ATOM     10  C   UNL     1       1.571  11.163  20.451  0.00  0.00    +0.000 C 
ATOM     11  C   UNL     1       1.155  10.416  19.154  0.00  0.00    +0.000 C 
ENDROOT
BRANCH   1  15
ATOM     12  C   UNL     1      -3.050  13.966  23.865  0.00  0.00    +0.000 C 
ATOM     13  C   UNL     1      -4.184  13.391  23.419  0.00  0.00    +0.000 C 
ATOM     14  C   UNL     1      -4.666  13.630  22.056  0.00  0.00    +0.000 C 
ATOM     15  C   UNL     1      -3.943  13.512  20.929  0.00  0.00    +0.000 C 
ATOM     16  C   UNL     1      -6.130  14.027  21.957  0.00  0.00    +0.000 C 
ATOM     17  C   UNL     1      -7.041  13.095  22.764  0.00  0.00    +0.000 C 
ATOM     18  C   UNL     1      -6.545  12.932  24.199  0.00  0.00    +0.000 C 
ATOM     19  C   UNL     1      -5.076  12.493  24.258  0.00  0.00    +0.000 C 
BRANCH  17  20
ATOM     20  O   UNL     1      -7.164  11.822  22.129  0.00  0.00    +0.000 OA
ATOM     21  H   UNL     1      -8.078  11.718  21.812  0.00  0.00    +0.000 HD
ENDBRANCH  17  20
BRANCH  19  22
ATOM     22  O   UNL     1      -4.670  12.483  25.627  0.00  0.00    +0.000 OA
ATOM     23  H   UNL     1      -5.265  13.086  26.102  0.00  0.00    +0.000 HD
ENDBRANCH  19  22
ENDBRANCH   1  15
BRANCH  11  24
ATOM     24  C   UNL     1       1.028   8.840  19.318  0.00  0.00    +0.000 C 
ATOM     25  C   UNL     1       1.388   8.324  20.720  0.00  0.00    +0.000 C 
BRANCH  24  26
ATOM     26  C   UNL     1       1.808   8.041  18.213  0.00  0.00    +0.000 C 
BRANCH  26  27
ATOM     27  C   UNL     1       3.056   7.294  18.766  0.00  0.00    +0.000 C 
ATOM     28  O   UNL     1       4.210   7.561  17.959  0.00  0.00    +0.000 OA
ATOM     29  C   UNL     1       4.399   6.587  17.039  0.00  0.00    +0.000 C 
ATOM     30  O   UNL     1       5.075   6.671  16.033  0.00  0.00    +0.000 OA
ATOM     31  C   UNL     1       3.686   5.389  17.542  0.00  0.00    +0.000 C 
ATOM     32  C   UNL     1       3.799   4.236  16.875  0.00  0.00    +0.000 C 
ATOM     33  C   UNL     1       3.048   5.761  18.845  0.00  0.00    +0.000 C 
BRANCH  33  34
ATOM     34  C   UNL     1       1.716   5.116  19.235  0.00  0.00    +0.000 C 
BRANCH  34  35
ATOM     35  C   UNL     1       1.614   4.649  20.697  0.00  0.00    +0.000 C 
BRANCH  35  36
ATOM     36  C   UNL     1       1.269   3.166  20.857  0.00  0.00    +0.000 C 
ATOM     37  C   UNL     1       1.573   2.369  19.600  0.00  0.00    +0.000 C 
ENDBRANCH  35  36
ENDBRANCH  34  35
ENDBRANCH  33  34
ENDBRANCH  26  27
ENDBRANCH  24  26
ENDBRANCH  11  24
TORSDOF 9
ENDMDL
MODEL 8
REMARK VINA RESULT:      -7.2      1.871     10.369
REMARK  Name = 
REMARK  12 active torsions:
REMARK  status: ('A' for Active; 'I' for Inactive)
REMARK    1  A    between atoms: C_4  and  C_5
REMARK    2  A    between atoms: C_10  and  C_11
REMARK    3  A    between atoms: C_15  and  C_16
REMARK    4  A    between atoms: C_16  and  C_17
REMARK    5  A    between atoms: C_16  and  C_18
REMARK    6  A    between atoms: C_18  and  C_19
REMARK    7  A    between atoms: C_25  and  C_26
REMARK    8  A    between atoms: C_26  and  C_27
REMARK    9  A    between atoms: C_27  and  C_28
REMARK   10  A    between atoms: C_28  and  C_29
REMARK   11  A    between atoms: C_31  and  O_32
REMARK   12  A    between atoms: C_34  and  O_35
REMARK                            x       y       z     vdW  Elec       q    Type
REMARK                         _______ _______ _______ _____ _____    ______ ____
ROOT
ATOM      1  C   UNL     1      -1.950  11.982  21.006  0.00  0.00    +0.000 C 
ATOM      2  C   UNL     1      -1.467  11.101  20.113  0.00  0.00    +0.000 C 
ATOM      3  C   UNL     1      -2.136  10.741  18.793  0.00  0.00    +0.000 C 
ATOM      4  C   UNL     1      -1.163  10.728  17.610  0.00  0.00    +0.000 C 
ATOM      5  C   UNL     1       0.080   9.867  17.863  0.00  0.00    +0.000 C 
ATOM      6  C   UNL     1       0.754  10.191  19.212  0.00  0.00    +0.000 C 
ATOM      7  C   UNL     1       1.458  11.575  19.052  0.00  0.00    +0.000 C 
ATOM      8  C   UNL     1      -0.261  10.242  20.377  0.00  0.00    +0.000 C 
ATOM      9  C   UNL     1       0.623  10.313  21.626  0.00  0.00    +0.000 C 
ATOM     10  C   UNL     1       1.888   9.506  21.251  0.00  0.00    +0.000 C 
ATOM     11  C   UNL     1       1.780   9.125  19.748  0.00  0.00    +0.000 C 
ENDROOT
BRANCH   1  15
ATOM     12  C   UNL     1      -2.560  13.486  23.787  0.00  0.00    +0.000 C 
ATOM     13  C   UNL     1      -3.723  13.002  23.309  0.00  0.00    +0.000 C 
ATOM     14  C   UNL     1      -4.031  13.054  21.877  0.00  0.00    +0.000 C 
ATOM     15  C   UNL     1      -3.233  12.634  20.881  0.00  0.00    +0.000 C 
ATOM     16  C   UNL     1      -5.399  13.625  21.539  0.00  0.00    +0.000 C 
ATOM     17  C   UNL     1      -6.517  12.991  22.374  0.00  0.00    +0.000 C 
ATOM     18  C   UNL     1      -6.190  13.024  23.865  0.00  0.00    +0.000 C 
ATOM     19  C   UNL     1      -4.821  12.404  24.172  0.00  0.00    +0.000 C 
BRANCH  17  20
ATOM     20  O   UNL     1      -6.778  11.653  21.948  0.00  0.00    +0.000 OA
ATOM     21  H   UNL     1      -6.957  11.105  22.732  0.00  0.00    +0.000 HD
ENDBRANCH  17  20
BRANCH  19  22
ATOM     22  O   UNL     1      -4.552  12.586  25.562  0.00  0.00    +0.000 OA
ATOM     23  H   UNL     1      -5.165  12.008  26.046  0.00  0.00    +0.000 HD
ENDBRANCH  19  22
ENDBRANCH   1  15
BRANCH  11  24
ATOM     24  C   UNL     1       1.435   7.596  19.484  0.00  0.00    +0.000 C 
ATOM     25  C   UNL     1       1.444   6.723  20.748  0.00  0.00    +0.000 C 
BRANCH  24  26
ATOM     26  C   UNL     1       2.320   6.952  18.356  0.00  0.00    +0.000 C 
BRANCH  26  27
ATOM     27  C   UNL     1       3.260   5.830  18.883  0.00  0.00    +0.000 C 
ATOM     28  O   UNL     1       4.631   6.249  18.835  0.00  0.00    +0.000 OA
ATOM     29  C   UNL     1       5.233   5.816  17.703  0.00  0.00    +0.000 C 
ATOM     30  O   UNL     1       6.261   6.253  17.224  0.00  0.00    +0.000 OA
ATOM     31  C   UNL     1       4.437   4.665  17.215  0.00  0.00    +0.000 C 
ATOM     32  C   UNL     1       4.873   3.971  16.160  0.00  0.00    +0.000 C 
ATOM     33  C   UNL     1       3.297   4.473  18.168  0.00  0.00    +0.000 C 
BRANCH  33  34
ATOM     34  C   UNL     1       1.957   3.959  17.635  0.00  0.00    +0.000 C 
BRANCH  34  35
ATOM     35  C   UNL     1       1.003   3.385  18.697  0.00  0.00    +0.000 C 
BRANCH  35  36
ATOM     36  C   UNL     1       1.694   2.516  19.752  0.00  0.00    +0.000 C 
ATOM     37  C   UNL     1       1.289   2.901  21.165  0.00  0.00    +0.000 C 
ENDBRANCH  35  36
ENDBRANCH  34  35
ENDBRANCH  33  34
ENDBRANCH  26  27
ENDBRANCH  24  26
ENDBRANCH  11  24
TORSDOF 9
ENDMDL
MODEL 9
REMARK VINA RESULT:      -7.0      1.378      1.942
REMARK  Name = 
REMARK  12 active torsions:
REMARK  status: ('A' for Active; 'I' for Inactive)
REMARK    1  A    between atoms: C_4  and  C_5
REMARK    2  A    between atoms: C_10  and  C_11
REMARK    3  A    between atoms: C_15  and  C_16
REMARK    4  A    between atoms: C_16  and  C_17
REMARK    5  A    between atoms: C_16  and  C_18
REMARK    6  A    between atoms: C_18  and  C_19
REMARK    7  A    between atoms: C_25  and  C_26
REMARK    8  A    between atoms: C_26  and  C_27
REMARK    9  A    between atoms: C_27  and  C_28
REMARK   10  A    between atoms: C_28  and  C_29
REMARK   11  A    between atoms: C_31  and  O_32
REMARK   12  A    between atoms: C_34  and  O_35
REMARK                            x       y       z     vdW  Elec       q    Type
REMARK                         _______ _______ _______ _____ _____    ______ ____
ROOT
ATOM      1  C   UNL     1       1.627   7.893  20.200  0.00  0.00    +0.000 C 
ATOM      2  C   UNL     1       0.615   8.651  20.656  0.00  0.00    +0.000 C 
ATOM      3  C   UNL     1      -0.179   8.373  21.927  0.00  0.00    +0.000 C 
ATOM      4  C   UNL     1      -0.374   9.617  22.799  0.00  0.00    +0.000 C 
ATOM      5  C   UNL     1      -0.950  10.808  22.025  0.00  0.00    +0.000 C 
ATOM      6  C   UNL     1      -0.183  11.087  20.716  0.00  0.00    +0.000 C 
ATOM      7  C   UNL     1       1.191  11.710  21.115  0.00  0.00    +0.000 C 
ATOM      8  C   UNL     1       0.038   9.803  19.882  0.00  0.00    +0.000 C 
ATOM      9  C   UNL     1       0.567  10.328  18.544  0.00  0.00    +0.000 C 
ATOM     10  C   UNL     1      -0.125  11.699  18.364  0.00  0.00    +0.000 C 
ATOM     11  C   UNL     1      -0.909  12.009  19.669  0.00  0.00    +0.000 C 
ENDROOT
BRANCH   1  15
ATOM     12  C   UNL     1       3.117   6.155  17.937  0.00  0.00    +0.000 C 
ATOM     13  C   UNL     1       2.413   5.311  18.716  0.00  0.00    +0.000 C 
ATOM     14  C   UNL     1       2.347   5.502  20.168  0.00  0.00    +0.000 C 
ATOM     15  C   UNL     1       2.034   6.645  20.802  0.00  0.00    +0.000 C 
ATOM     16  C   UNL     1       2.650   4.259  20.989  0.00  0.00    +0.000 C 
ATOM     17  C   UNL     1       1.864   3.036  20.506  0.00  0.00    +0.000 C 
ATOM     18  C   UNL     1       2.019   2.830  19.001  0.00  0.00    +0.000 C 
ATOM     19  C   UNL     1       1.667   4.092  18.203  0.00  0.00    +0.000 C 
BRANCH  17  20
ATOM     20  O   UNL     1       0.484   3.143  20.856  0.00  0.00    +0.000 OA
ATOM     21  H   UNL     1      -0.034   2.567  20.266  0.00  0.00    +0.000 HD
ENDBRANCH  17  20
BRANCH  19  22
ATOM     22  O   UNL     1       1.955   3.843  16.827  0.00  0.00    +0.000 OA
ATOM     23  H   UNL     1       2.778   4.315  16.621  0.00  0.00    +0.000 HD
ENDBRANCH  19  22
ENDBRANCH   1  15
BRANCH  11  24
ATOM     24  C   UNL     1      -2.485  11.851  19.540  0.00  0.00    +0.000 C 
ATOM     25  C   UNL     1      -2.961  11.431  18.141  0.00  0.00    +0.000 C 
BRANCH  24  26
ATOM     26  C   UNL     1      -3.273  13.116  20.039  0.00  0.00    +0.000 C 
BRANCH  26  27
ATOM     27  C   UNL     1      -4.611  12.761  20.750  0.00  0.00    +0.000 C 
ATOM     28  O   UNL     1      -5.516  12.118  19.844  0.00  0.00    +0.000 OA
ATOM     29  C   UNL     1      -6.380  13.009  19.304  0.00  0.00    +0.000 C 
ATOM     30  O   UNL     1      -7.041  12.848  18.297  0.00  0.00    +0.000 OA
ATOM     31  C   UNL     1      -6.414  14.171  20.222  0.00  0.00    +0.000 C 
ATOM     32  C   UNL     1      -7.278  15.164  19.984  0.00  0.00    +0.000 C 
ATOM     33  C   UNL     1      -5.472  13.880  21.349  0.00  0.00    +0.000 C 
BRANCH  33  34
ATOM     34  C   UNL     1      -4.710  15.036  22.003  0.00  0.00    +0.000 C 
BRANCH  34  35
ATOM     35  C   UNL     1      -3.968  14.683  23.303  0.00  0.00    +0.000 C 
BRANCH  35  36
ATOM     36  C   UNL     1      -4.761  13.778  24.249  0.00  0.00    +0.000 C 
ATOM     37  C   UNL     1      -4.104  12.419  24.427  0.00  0.00    +0.000 C 
ENDBRANCH  35  36
ENDBRANCH  34  35
ENDBRANCH  33  34
ENDBRANCH  26  27
ENDBRANCH  24  26
ENDBRANCH  11  24
TORSDOF 9
ENDMDL
