MODEL 1
REMARK VINA RESULT:      -6.8      0.000      0.000
REMARK  Name = 
REMARK  9 active torsions:
REMARK  status: ('A' for Active; 'I' for Inactive)
REMARK    1  A    between atoms: C_1  and  C_2
REMARK    2  A    between atoms: C_2  and  C_3
REMARK    3  A    between atoms: C_3  and  C_4
REMARK    4  A    between atoms: C_4  and  C_5
REMARK    5  A    between atoms: C_5  and  C_6
REMARK    6  A    between atoms: C_10  and  O_11
REMARK    7  A    between atoms: C_12  and  N_13
REMARK    8  A    between atoms: C_15  and  C_16
REMARK    9  A    between atoms: C_22  and  C_23
REMARK                            x       y       z     vdW  Elec       q    Type
REMARK                         _______ _______ _______ _____ _____    ______ ____
ROOT
ATOM      1  C   UNL     1      -0.763  11.310  22.371  0.00  0.00    +0.000 C 
ATOM      2  O   UNL     1      -0.857  10.887  23.527  0.00  0.00    +0.000 OA
ATOM      3  N   UNL     1      -0.389  10.461  21.323  0.00  0.00    +0.000 N 
ATOM      4  C   UNL     1      -0.378   9.017  21.630  0.00  0.00    +0.000 C 
ATOM      5  C   UNL     1       0.886   8.333  21.095  0.00  0.00    +0.000 C 
ATOM      6  C   UNL     1       1.353   8.978  19.786  0.00  0.00    +0.000 C 
ATOM      7  C   UNL     1       0.185   9.632  19.030  0.00  0.00    +0.000 C 
ATOM      8  C   UNL     1      -0.403  10.796  19.869  0.00  0.00    +0.000 C 
ENDROOT
BRANCH   8   9
ATOM      9  C   UNL     1       0.312  12.097  19.505  0.00  0.00    +0.000 A 
ATOM     10  C   UNL     1      -0.398  13.120  18.845  0.00  0.00    +0.000 A 
ATOM     11  C   UNL     1       0.188  14.375  18.638  0.00  0.00    +0.000 A 
ATOM     12  C   UNL     1       1.499  14.606  19.048  0.00  0.00    +0.000 A 
ATOM     13 CL   UNL     1       2.201  16.165  18.856  0.00  0.00    +0.000 Cl
ATOM     14  C   UNL     1       2.232  13.596  19.652  0.00  0.00    +0.000 A 
ATOM     15  C   UNL     1       1.640  12.356  19.891  0.00  0.00    +0.000 A 
ENDBRANCH   8   9
BRANCH   6  16
ATOM     16  N   UNL     1       2.150   8.071  18.982  0.00  0.00    +0.000 N 
ATOM     17  C   UNL     1       2.447   6.774  19.292  0.00  0.00    +0.000 A 
ATOM     18  C   UNL     1       3.316   6.411  18.300  0.00  0.00    +0.000 A 
ATOM     19  N   UNL     1       3.519   7.457  17.447  0.00  0.00    +0.000 NA
ATOM     20  N   UNL     1       2.778   8.479  17.874  0.00  0.00    +0.000 NA
BRANCH  18  21
ATOM     21  C   UNL     1       3.958   5.049  18.177  0.00  0.00    +0.000 C 
ATOM     22  C   UNL     1       3.220   3.999  17.374  0.00  0.00    +0.000 C 
ATOM     23  C   UNL     1       4.460   4.613  16.819  0.00  0.00    +0.000 C 
ENDBRANCH  18  21
ENDBRANCH   6  16
BRANCH   5  24
ATOM     24  O   UNL     1       1.946   8.439  22.063  0.00  0.00    +0.000 OA
ATOM     25  H   UNL     1       2.243   9.369  22.086  0.00  0.00    +0.000 HD
ENDBRANCH   5  24
BRANCH   1  26
ATOM     26  C   UNL     1      -1.025  12.777  22.079  0.00  0.00    +0.000 C 
BRANCH  26  27
ATOM     27  C   UNL     1      -1.620  13.534  23.264  0.00  0.00    +0.000 C 
BRANCH  27  28
ATOM     28  C   UNL     1      -3.081  13.894  22.997  0.00  0.00    +0.000 C 
BRANCH  28  30
ATOM     29  C   UNL     1      -4.307  12.474  24.675  0.00  0.00    +0.000 C 
ATOM     30  C   UNL     1      -3.990  12.686  23.203  0.00  0.00    +0.000 C 
ENDBRANCH  28  30
ENDBRANCH  27  28
ENDBRANCH  26  27
ENDBRANCH   1  26
TORSDOF 8
ENDMDL
MODEL 2
REMARK VINA RESULT:      -6.8      0.855      1.105
REMARK  Name = 
REMARK  9 active torsions:
REMARK  status: ('A' for Active; 'I' for Inactive)
REMARK    1  A    between atoms: C_1  and  C_2
REMARK    2  A    between atoms: C_2  and  C_3
REMARK    3  A    between atoms: C_3  and  C_4
REMARK    4  A    between atoms: C_4  and  C_5
REMARK    5  A    between atoms: C_5  and  C_6
REMARK    6  A    between atoms: C_10  and  O_11
REMARK    7  A    between atoms: C_12  and  N_13
REMARK    8  A    between atoms: C_15  and  C_16
REMARK    9  A    between atoms: C_22  and  C_23
REMARK                            x       y       z     vdW  Elec       q    Type
REMARK                         _______ _______ _______ _____ _____    ______ ____
ROOT
ATOM      1  C   UNL     1      -0.836  11.303  22.443  0.00  0.00    +0.000 C 
ATOM      2  O   UNL     1      -0.899  10.897  23.606  0.00  0.00    +0.000 OA
ATOM      3  N   UNL     1      -0.461  10.448  21.401  0.00  0.00    +0.000 N 
ATOM      4  C   UNL     1      -0.408   9.009  21.731  0.00  0.00    +0.000 C 
ATOM      5  C   UNL     1       0.863   8.349  21.183  0.00  0.00    +0.000 C 
ATOM      6  C   UNL     1       1.290   8.984  19.855  0.00  0.00    +0.000 C 
ATOM      7  C   UNL     1       0.092   9.596  19.111  0.00  0.00    +0.000 C 
ATOM      8  C   UNL     1      -0.510  10.758  19.943  0.00  0.00    +0.000 C 
ENDROOT
BRANCH   8   9
ATOM      9  C   UNL     1       0.165  12.071  19.544  0.00  0.00    +0.000 A 
ATOM     10  C   UNL     1      -0.568  13.044  18.837  0.00  0.00    +0.000 A 
ATOM     11  C   UNL     1      -0.023  14.311  18.596  0.00  0.00    +0.000 A 
ATOM     12  C   UNL     1       1.271  14.604  19.019  0.00  0.00    +0.000 A 
ATOM     13 CL   UNL     1       1.920  16.180  18.784  0.00  0.00    +0.000 Cl
ATOM     14  C   UNL     1       2.027  13.643  19.671  0.00  0.00    +0.000 A 
ATOM     15  C   UNL     1       1.476  12.391  19.944  0.00  0.00    +0.000 A 
ENDBRANCH   8   9
BRANCH   6  16
ATOM     16  N   UNL     1       2.096   8.085  19.051  0.00  0.00    +0.000 N 
ATOM     17  C   UNL     1       2.437   6.803  19.379  0.00  0.00    +0.000 A 
ATOM     18  C   UNL     1       3.294   6.446  18.374  0.00  0.00    +0.000 A 
ATOM     19  N   UNL     1       3.446   7.480  17.496  0.00  0.00    +0.000 NA
ATOM     20  N   UNL     1       2.686   8.489  17.920  0.00  0.00    +0.000 NA
BRANCH  18  21
ATOM     21  C   UNL     1       3.972   5.100  18.264  0.00  0.00    +0.000 C 
ATOM     22  C   UNL     1       3.419   4.120  17.252  0.00  0.00    +0.000 C 
ATOM     23  C   UNL     1       4.729   4.781  16.994  0.00  0.00    +0.000 C 
ENDBRANCH  18  21
ENDBRANCH   6  16
BRANCH   5  24
ATOM     24  O   UNL     1       1.938   8.497  22.129  0.00  0.00    +0.000 OA
ATOM     25  H   UNL     1       2.719   8.835  21.650  0.00  0.00    +0.000 HD
ENDBRANCH   5  24
BRANCH   1  26
ATOM     26  C   UNL     1      -1.141  12.758  22.132  0.00  0.00    +0.000 C 
BRANCH  26  27
ATOM     27  C   UNL     1      -2.395  13.278  22.834  0.00  0.00    +0.000 C 
BRANCH  27  28
ATOM     28  C   UNL     1      -3.655  12.794  22.118  0.00  0.00    +0.000 C 
BRANCH  28  30
ATOM     29  C   UNL     1      -4.174  12.353  19.695  0.00  0.00    +0.000 C 
ATOM     30  C   UNL     1      -3.757  13.396  20.720  0.00  0.00    +0.000 C 
ENDBRANCH  28  30
ENDBRANCH  27  28
ENDBRANCH  26  27
ENDBRANCH   1  26
TORSDOF 8
ENDMDL
MODEL 3
REMARK VINA RESULT:      -6.7      0.709      1.300
REMARK  Name = 
REMARK  9 active torsions:
REMARK  status: ('A' for Active; 'I' for Inactive)
REMARK    1  A    between atoms: C_1  and  C_2
REMARK    2  A    between atoms: C_2  and  C_3
REMARK    3  A    between atoms: C_3  and  C_4
REMARK    4  A    between atoms: C_4  and  C_5
REMARK    5  A    between atoms: C_5  and  C_6
REMARK    6  A    between atoms: C_10  and  O_11
REMARK    7  A    between atoms: C_12  and  N_13
REMARK    8  A    between atoms: C_15  and  C_16
REMARK    9  A    between atoms: C_22  and  C_23
REMARK                            x       y       z     vdW  Elec       q    Type
REMARK                         _______ _______ _______ _____ _____    ______ ____
ROOT
ATOM      1  C   UNL     1      -0.921  11.187  22.569  0.00  0.00    +0.000 C 
ATOM      2  O   UNL     1      -0.939  10.665  23.687  0.00  0.00    +0.000 OA
ATOM      3  N   UNL     1      -0.553  10.451  21.437  0.00  0.00    +0.000 N 
ATOM      4  C   UNL     1      -0.454   8.989  21.618  0.00  0.00    +0.000 C 
ATOM      5  C   UNL     1       0.817   8.423  20.973  0.00  0.00    +0.000 C 
ATOM      6  C   UNL     1       1.189   9.201  19.705  0.00  0.00    +0.000 C 
ATOM      7  C   UNL     1      -0.046   9.850  19.059  0.00  0.00    +0.000 C 
ATOM      8  C   UNL     1      -0.654  10.905  20.019  0.00  0.00    +0.000 C 
ENDROOT
BRANCH   8   9
ATOM      9  C   UNL     1      -0.025  12.270  19.737  0.00  0.00    +0.000 A 
ATOM     10  C   UNL     1       1.335  12.484  20.036  0.00  0.00    +0.000 A 
ATOM     11  C   UNL     1       1.972  13.669  19.648  0.00  0.00    +0.000 A 
ATOM     12  C   UNL     1       1.249  14.666  18.997  0.00  0.00    +0.000 A 
ATOM     13 CL   UNL     1       2.042  16.095  18.459  0.00  0.00    +0.000 Cl
ATOM     14  C   UNL     1      -0.102  14.495  18.740  0.00  0.00    +0.000 A 
ATOM     15  C   UNL     1      -0.732  13.302  19.095  0.00  0.00    +0.000 A 
ENDBRANCH   8   9
BRANCH   6  16
ATOM     16  N   UNL     1       1.994   8.410  18.794  0.00  0.00    +0.000 N 
ATOM     17  C   UNL     1       2.537   7.185  19.059  0.00  0.00    +0.000 A 
ATOM     18  C   UNL     1       3.297   6.938  17.949  0.00  0.00    +0.000 A 
ATOM     19  N   UNL     1       3.199   7.979  17.071  0.00  0.00    +0.000 NA
ATOM     20  N   UNL     1       2.376   8.882  17.602  0.00  0.00    +0.000 NA
BRANCH  18  21
ATOM     21  C   UNL     1       4.124   5.691  17.735  0.00  0.00    +0.000 C 
ATOM     22  C   UNL     1       5.621   5.861  17.591  0.00  0.00    +0.000 C 
ATOM     23  C   UNL     1       5.066   5.258  18.836  0.00  0.00    +0.000 C 
ENDBRANCH  18  21
ENDBRANCH   6  16
BRANCH   5  24
ATOM     24  O   UNL     1       1.915   8.507  21.901  0.00  0.00    +0.000 OA
ATOM     25  H   UNL     1       2.409   7.665  21.861  0.00  0.00    +0.000 HD
ENDBRANCH   5  24
BRANCH   1  26
ATOM     26  C   UNL     1      -1.272  12.656  22.415  0.00  0.00    +0.000 C 
BRANCH  26  27
ATOM     27  C   UNL     1      -2.770  12.937  22.529  0.00  0.00    +0.000 C 
BRANCH  27  28
ATOM     28  C   UNL     1      -3.129  13.383  23.945  0.00  0.00    +0.000 C 
BRANCH  28  30
ATOM     29  C   UNL     1      -5.588  12.842  23.957  0.00  0.00    +0.000 C 
ATOM     30  C   UNL     1      -4.225  12.501  24.537  0.00  0.00    +0.000 C 
ENDBRANCH  28  30
ENDBRANCH  27  28
ENDBRANCH  26  27
ENDBRANCH   1  26
TORSDOF 8
ENDMDL
MODEL 4
REMARK VINA RESULT:      -6.6      0.933      1.182
REMARK  Name = 
REMARK  9 active torsions:
REMARK  status: ('A' for Active; 'I' for Inactive)
REMARK    1  A    between atoms: C_1  and  C_2
REMARK    2  A    between atoms: C_2  and  C_3
REMARK    3  A    between atoms: C_3  and  C_4
REMARK    4  A    between atoms: C_4  and  C_5
REMARK    5  A    between atoms: C_5  and  C_6
REMARK    6  A    between atoms: C_10  and  O_11
REMARK    7  A    between atoms: C_12  and  N_13
REMARK    8  A    between atoms: C_15  and  C_16
REMARK    9  A    between atoms: C_22  and  C_23
REMARK                            x       y       z     vdW  Elec       q    Type
REMARK                         _______ _______ _______ _____ _____    ______ ____
ROOT
ATOM      1  C   UNL     1      -0.924  11.409  22.340  0.00  0.00    +0.000 C 
ATOM      2  O   UNL     1      -1.024  11.081  23.525  0.00  0.00    +0.000 OA
ATOM      3  N   UNL     1      -0.494  10.493  21.373  0.00  0.00    +0.000 N 
ATOM      4  C   UNL     1      -0.430   9.081  21.801  0.00  0.00    +0.000 C 
ATOM      5  C   UNL     1       0.871   8.409  21.347  0.00  0.00    +0.000 C 
ATOM      6  C   UNL     1       1.338   8.962  19.996  0.00  0.00    +0.000 C 
ATOM      7  C   UNL     1       0.159   9.500  19.168  0.00  0.00    +0.000 C 
ATOM      8  C   UNL     1      -0.493  10.704  19.896  0.00  0.00    +0.000 C 
ENDROOT
BRANCH   8   9
ATOM      9  C   UNL     1       0.175  11.999  19.435  0.00  0.00    +0.000 A 
ATOM     10  C   UNL     1      -0.581  12.963  18.739  0.00  0.00    +0.000 A 
ATOM     11  C   UNL     1      -0.037  14.218  18.441  0.00  0.00    +0.000 A 
ATOM     12  C   UNL     1       1.279  14.507  18.797  0.00  0.00    +0.000 A 
ATOM     13 CL   UNL     1       1.931  16.070  18.493  0.00  0.00    +0.000 Cl
ATOM     14  C   UNL     1       2.056  13.554  19.436  0.00  0.00    +0.000 A 
ATOM     15  C   UNL     1       1.506  12.314  19.765  0.00  0.00    +0.000 A 
ENDBRANCH   8   9
BRANCH   6  16
ATOM     16  N   UNL     1       2.188   8.026  19.285  0.00  0.00    +0.000 N 
ATOM     17  C   UNL     1       2.889   8.287  18.142  0.00  0.00    +0.000 A 
ATOM     18  C   UNL     1       3.408   7.066  17.813  0.00  0.00    +0.000 A 
ATOM     19  N   UNL     1       3.024   6.129  18.728  0.00  0.00    +0.000 NA
ATOM     20  N   UNL     1       2.276   6.741  19.646  0.00  0.00    +0.000 NA
BRANCH  18  21
ATOM     21  C   UNL     1       4.278   6.800  16.606  0.00  0.00    +0.000 C 
ATOM     22  C   UNL     1       5.770   6.685  16.831  0.00  0.00    +0.000 C 
ATOM     23  C   UNL     1       4.979   5.464  16.507  0.00  0.00    +0.000 C 
ENDBRANCH  18  21
ENDBRANCH   6  16
BRANCH   5  24
ATOM     24  O   UNL     1       1.907   8.641  22.320  0.00  0.00    +0.000 OA
ATOM     25  H   UNL     1       2.748   8.310  21.951  0.00  0.00    +0.000 HD
ENDBRANCH   5  24
BRANCH   1  26
ATOM     26  C   UNL     1      -1.240  12.834  21.920  0.00  0.00    +0.000 C 
BRANCH  26  27
ATOM     27  C   UNL     1      -2.426  13.438  22.671  0.00  0.00    +0.000 C 
BRANCH  27  28
ATOM     28  C   UNL     1      -3.742  12.846  22.167  0.00  0.00    +0.000 C 
BRANCH  28  30
ATOM     29  C   UNL     1      -4.254  12.481  24.604  0.00  0.00    +0.000 C 
ATOM     30  C   UNL     1      -4.814  12.892  23.252  0.00  0.00    +0.000 C 
ENDBRANCH  28  30
ENDBRANCH  27  28
ENDBRANCH  26  27
ENDBRANCH   1  26
TORSDOF 8
ENDMDL
MODEL 5
REMARK VINA RESULT:      -6.6      1.041      1.999
REMARK  Name = 
REMARK  9 active torsions:
REMARK  status: ('A' for Active; 'I' for Inactive)
REMARK    1  A    between atoms: C_1  and  C_2
REMARK    2  A    between atoms: C_2  and  C_3
REMARK    3  A    between atoms: C_3  and  C_4
REMARK    4  A    between atoms: C_4  and  C_5
REMARK    5  A    between atoms: C_5  and  C_6
REMARK    6  A    between atoms: C_10  and  O_11
REMARK    7  A    between atoms: C_12  and  N_13
REMARK    8  A    between atoms: C_15  and  C_16
REMARK    9  A    between atoms: C_22  and  C_23
REMARK                            x       y       z     vdW  Elec       q    Type
REMARK                         _______ _______ _______ _____ _____    ______ ____
ROOT
ATOM      1  C   UNL     1      -0.886  11.379  22.467  0.00  0.00    +0.000 C 
ATOM      2  O   UNL     1      -0.936  10.883  23.597  0.00  0.00    +0.000 OA
ATOM      3  N   UNL     1      -0.527  10.606  21.358  0.00  0.00    +0.000 N 
ATOM      4  C   UNL     1      -0.476   9.146  21.573  0.00  0.00    +0.000 C 
ATOM      5  C   UNL     1       0.785   8.526  20.959  0.00  0.00    +0.000 C 
ATOM      6  C   UNL     1       1.198   9.262  19.680  0.00  0.00    +0.000 C 
ATOM      7  C   UNL     1      -0.007   9.934  19.001  0.00  0.00    +0.000 C 
ATOM      8  C   UNL     1      -0.594  11.029  19.929  0.00  0.00    +0.000 C 
ENDROOT
BRANCH   8   9
ATOM      9  C   UNL     1       0.081  12.367  19.625  0.00  0.00    +0.000 A 
ATOM     10  C   UNL     1       1.440  12.549  19.947  0.00  0.00    +0.000 A 
ATOM     11  C   UNL     1       2.121  13.704  19.542  0.00  0.00    +0.000 A 
ATOM     12  C   UNL     1       1.441  14.704  18.850  0.00  0.00    +0.000 A 
ATOM     13 CL   UNL     1       2.287  16.094  18.292  0.00  0.00    +0.000 Cl
ATOM     14  C   UNL     1       0.091  14.567  18.569  0.00  0.00    +0.000 A 
ATOM     15  C   UNL     1      -0.582  13.403  18.941  0.00  0.00    +0.000 A 
ENDBRANCH   8   9
BRANCH   6  16
ATOM     16  N   UNL     1       1.989   8.425  18.797  0.00  0.00    +0.000 N 
ATOM     17  C   UNL     1       2.530   7.211  19.114  0.00  0.00    +0.000 A 
ATOM     18  C   UNL     1       3.277   6.909  18.009  0.00  0.00    +0.000 A 
ATOM     19  N   UNL     1       3.175   7.908  17.085  0.00  0.00    +0.000 NA
ATOM     20  N   UNL     1       2.361   8.840  17.581  0.00  0.00    +0.000 NA
BRANCH  18  21
ATOM     21  C   UNL     1       4.096   5.650  17.845  0.00  0.00    +0.000 C 
ATOM     22  C   UNL     1       5.601   5.797  17.790  0.00  0.00    +0.000 C 
ATOM     23  C   UNL     1       4.964   5.204  19.000  0.00  0.00    +0.000 C 
ENDBRANCH  18  21
ENDBRANCH   6  16
BRANCH   5  24
ATOM     24  O   UNL     1       1.873   8.597  21.900  0.00  0.00    +0.000 OA
ATOM     25  H   UNL     1       2.637   8.127  21.515  0.00  0.00    +0.000 HD
ENDBRANCH   5  24
BRANCH   1  26
ATOM     26  C   UNL     1      -1.189  12.854  22.275  0.00  0.00    +0.000 C 
BRANCH  26  27
ATOM     27  C   UNL     1      -1.409  13.604  23.588  0.00  0.00    +0.000 C 
BRANCH  27  28
ATOM     28  C   UNL     1      -0.991  15.067  23.451  0.00  0.00    +0.000 C 
BRANCH  28  30
ATOM     29  C   UNL     1       1.147  15.866  22.391  0.00  0.00    +0.000 C 
ATOM     30  C   UNL     1      -0.243  15.304  22.142  0.00  0.00    +0.000 C 
ENDBRANCH  28  30
ENDBRANCH  27  28
ENDBRANCH  26  27
ENDBRANCH   1  26
TORSDOF 8
ENDMDL
MODEL 6
REMARK VINA RESULT:      -6.6      1.091      1.637
REMARK  Name = 
REMARK  9 active torsions:
REMARK  status: ('A' for Active; 'I' for Inactive)
REMARK    1  A    between atoms: C_1  and  C_2
REMARK    2  A    between atoms: C_2  and  C_3
REMARK    3  A    between atoms: C_3  and  C_4
REMARK    4  A    between atoms: C_4  and  C_5
REMARK    5  A    between atoms: C_5  and  C_6
REMARK    6  A    between atoms: C_10  and  O_11
REMARK    7  A    between atoms: C_12  and  N_13
REMARK    8  A    between atoms: C_15  and  C_16
REMARK    9  A    between atoms: C_22  and  C_23
REMARK                            x       y       z     vdW  Elec       q    Type
REMARK                         _______ _______ _______ _____ _____    ______ ____
ROOT
ATOM      1  C   UNL     1      -0.929  11.325  22.310  0.00  0.00    +0.000 C 
ATOM      2  O   UNL     1      -0.995  10.948  23.483  0.00  0.00    +0.000 OA
ATOM      3  N   UNL     1      -0.521  10.452  21.295  0.00  0.00    +0.000 N 
ATOM      4  C   UNL     1      -0.438   9.024  21.663  0.00  0.00    +0.000 C 
ATOM      5  C   UNL     1       0.854   8.380  21.146  0.00  0.00    +0.000 C 
ATOM      6  C   UNL     1       1.281   8.991  19.807  0.00  0.00    +0.000 C 
ATOM      7  C   UNL     1       0.077   9.555  19.035  0.00  0.00    +0.000 C 
ATOM      8  C   UNL     1      -0.561  10.724  19.829  0.00  0.00    +0.000 C 
ENDROOT
BRANCH   8   9
ATOM      9  C   UNL     1       0.088  12.041  19.403  0.00  0.00    +0.000 A 
ATOM     10  C   UNL     1      -0.676  13.001  18.711  0.00  0.00    +0.000 A 
ATOM     11  C   UNL     1      -0.152  14.273  18.447  0.00  0.00    +0.000 A 
ATOM     12  C   UNL     1       1.150  14.583  18.832  0.00  0.00    +0.000 A 
ATOM     13 CL   UNL     1       1.774  16.164  18.569  0.00  0.00    +0.000 Cl
ATOM     14  C   UNL     1       1.935  13.634  19.469  0.00  0.00    +0.000 A 
ATOM     15  C   UNL     1       1.406  12.378  19.764  0.00  0.00    +0.000 A 
ENDBRANCH   8   9
BRANCH   6  16
ATOM     16  N   UNL     1       2.116   8.090  19.036  0.00  0.00    +0.000 N 
ATOM     17  C   UNL     1       2.441   6.807  19.376  0.00  0.00    +0.000 A 
ATOM     18  C   UNL     1       3.337   6.449  18.407  0.00  0.00    +0.000 A 
ATOM     19  N   UNL     1       3.527   7.483  17.536  0.00  0.00    +0.000 NA
ATOM     20  N   UNL     1       2.753   8.493  17.930  0.00  0.00    +0.000 NA
BRANCH  18  21
ATOM     21  C   UNL     1       4.016   5.102  18.322  0.00  0.00    +0.000 C 
ATOM     22  C   UNL     1       3.447   4.092  17.349  0.00  0.00    +0.000 C 
ATOM     23  C   UNL     1       4.751   4.748  17.049  0.00  0.00    +0.000 C 
ENDBRANCH  18  21
ENDBRANCH   6  16
BRANCH   5  24
ATOM     24  O   UNL     1       1.914   8.578  22.100  0.00  0.00    +0.000 OA
ATOM     25  H   UNL     1       2.488   9.295  21.769  0.00  0.00    +0.000 HD
ENDBRANCH   5  24
BRANCH   1  26
ATOM     26  C   UNL     1      -1.264  12.764  21.958  0.00  0.00    +0.000 C 
BRANCH  26  27
ATOM     27  C   UNL     1      -0.371  13.784  22.663  0.00  0.00    +0.000 C 
BRANCH  27  28
ATOM     28  C   UNL     1      -1.112  15.106  22.859  0.00  0.00    +0.000 C 
BRANCH  28  30
ATOM     29  C   UNL     1      -0.109  16.977  21.506  0.00  0.00    +0.000 C 
ATOM     30  C   UNL     1      -1.177  15.897  21.555  0.00  0.00    +0.000 C 
ENDBRANCH  28  30
ENDBRANCH  27  28
ENDBRANCH  26  27
ENDBRANCH   1  26
TORSDOF 8
ENDMDL
MODEL 7
REMARK VINA RESULT:      -6.6      1.374      1.764
REMARK  Name = 
REMARK  9 active torsions:
REMARK  status: ('A' for Active; 'I' for Inactive)
REMARK    1  A    between atoms: C_1  and  C_2
REMARK    2  A    between atoms: C_2  and  C_3
REMARK    3  A    between atoms: C_3  and  C_4
REMARK    4  A    between atoms: C_4  and  C_5
REMARK    5  A    between atoms: C_5  and  C_6
REMARK    6  A    between atoms: C_10  and  O_11
REMARK    7  A    between atoms: C_12  and  N_13
REMARK    8  A    between atoms: C_15  and  C_16
REMARK    9  A    between atoms: C_22  and  C_23
REMARK                            x       y       z     vdW  Elec       q    Type
REMARK                         _______ _______ _______ _____ _____    ______ ____
ROOT
ATOM      1  C   UNL     1      -0.990  11.274  22.277  0.00  0.00    +0.000 C 
ATOM      2  O   UNL     1      -1.116  10.924  23.454  0.00  0.00    +0.000 OA
ATOM      3  N   UNL     1      -0.516  10.383  21.308  0.00  0.00    +0.000 N 
ATOM      4  C   UNL     1      -0.436   8.966  21.715  0.00  0.00    +0.000 C 
ATOM      5  C   UNL     1       0.891   8.327  21.285  0.00  0.00    +0.000 C 
ATOM      6  C   UNL     1       1.383   8.912  19.957  0.00  0.00    +0.000 C 
ATOM      7  C   UNL     1       0.217   9.441  19.106  0.00  0.00    +0.000 C 
ATOM      8  C   UNL     1      -0.479  10.619  19.835  0.00  0.00    +0.000 C 
ENDROOT
BRANCH   8   9
ATOM      9  C   UNL     1       0.175  11.935  19.414  0.00  0.00    +0.000 A 
ATOM     10  C   UNL     1      -0.532  12.831  18.588  0.00  0.00    +0.000 A 
ATOM     11  C   UNL     1      -0.019  14.105  18.315  0.00  0.00    +0.000 A 
ATOM     12  C   UNL     1       1.221  14.479  18.826  0.00  0.00    +0.000 A 
ATOM     13 CL   UNL     1       1.825  16.066  18.549  0.00  0.00    +0.000 Cl
ATOM     14  C   UNL     1       1.956  13.593  19.598  0.00  0.00    +0.000 A 
ATOM     15  C   UNL     1       1.433  12.336  19.901  0.00  0.00    +0.000 A 
ENDBRANCH   8   9
BRANCH   6  16
ATOM     16  N   UNL     1       2.271   8.005  19.255  0.00  0.00    +0.000 N 
ATOM     17  C   UNL     1       2.895   8.253  18.065  0.00  0.00    +0.000 A 
ATOM     18  C   UNL     1       3.494   7.058  17.776  0.00  0.00    +0.000 A 
ATOM     19  N   UNL     1       3.228   6.149  18.758  0.00  0.00    +0.000 NA
ATOM     20  N   UNL     1       2.478   6.753  19.679  0.00  0.00    +0.000 NA
BRANCH  18  21
ATOM     21  C   UNL     1       4.325   6.792  16.542  0.00  0.00    +0.000 C 
ATOM     22  C   UNL     1       5.816   6.616  16.728  0.00  0.00    +0.000 C 
ATOM     23  C   UNL     1       4.973   5.434  16.394  0.00  0.00    +0.000 C 
ENDBRANCH  18  21
ENDBRANCH   6  16
BRANCH   5  24
ATOM     24  O   UNL     1       1.894   8.563  22.290  0.00  0.00    +0.000 OA
ATOM     25  H   UNL     1       1.461   8.986  23.057  0.00  0.00    +0.000 HD
ENDBRANCH   5  24
BRANCH   1  26
ATOM     26  C   UNL     1      -1.324  12.700  21.872  0.00  0.00    +0.000 C 
BRANCH  26  27
ATOM     27  C   UNL     1      -0.842  13.744  22.878  0.00  0.00    +0.000 C 
BRANCH  27  28
ATOM     28  C   UNL     1      -0.414  15.025  22.164  0.00  0.00    +0.000 C 
BRANCH  28  30
ATOM     29  C   UNL     1      -2.550  16.346  21.994  0.00  0.00    +0.000 C 
ATOM     30  C   UNL     1      -1.516  15.530  21.236  0.00  0.00    +0.000 C 
ENDBRANCH  28  30
ENDBRANCH  27  28
ENDBRANCH  26  27
ENDBRANCH   1  26
TORSDOF 8
ENDMDL
MODEL 8
REMARK VINA RESULT:      -6.5      1.002      1.534
REMARK  Name = 
REMARK  9 active torsions:
REMARK  status: ('A' for Active; 'I' for Inactive)
REMARK    1  A    between atoms: C_1  and  C_2
REMARK    2  A    between atoms: C_2  and  C_3
REMARK    3  A    between atoms: C_3  and  C_4
REMARK    4  A    between atoms: C_4  and  C_5
REMARK    5  A    between atoms: C_5  and  C_6
REMARK    6  A    between atoms: C_10  and  O_11
REMARK    7  A    between atoms: C_12  and  N_13
REMARK    8  A    between atoms: C_15  and  C_16
REMARK    9  A    between atoms: C_22  and  C_23
REMARK                            x       y       z     vdW  Elec       q    Type
REMARK                         _______ _______ _______ _____ _____    ______ ____
ROOT
ATOM      1  C   UNL     1      -0.969  11.206  22.385  0.00  0.00    +0.000 C 
ATOM      2  O   UNL     1      -1.112  10.808  23.545  0.00  0.00    +0.000 OA
ATOM      3  N   UNL     1      -0.496  10.351  21.384  0.00  0.00    +0.000 N 
ATOM      4  C   UNL     1      -0.437   8.917  21.731  0.00  0.00    +0.000 C 
ATOM      5  C   UNL     1       0.887   8.281  21.288  0.00  0.00    +0.000 C 
ATOM      6  C   UNL     1       1.400   8.915  19.991  0.00  0.00    +0.000 C 
ATOM      7  C   UNL     1       0.249   9.494  19.152  0.00  0.00    +0.000 C 
ATOM      8  C   UNL     1      -0.441  10.649  19.923  0.00  0.00    +0.000 C 
ENDROOT
BRANCH   8   9
ATOM      9  C   UNL     1       0.234  11.973  19.564  0.00  0.00    +0.000 A 
ATOM     10  C   UNL     1       1.563  12.208  19.967  0.00  0.00    +0.000 A 
ATOM     11  C   UNL     1       2.253  13.343  19.521  0.00  0.00    +0.000 A 
ATOM     12  C   UNL     1       1.610  14.272  18.707  0.00  0.00    +0.000 A 
ATOM     13 CL   UNL     1       2.472  15.633  18.103  0.00  0.00    +0.000 Cl
ATOM     14  C   UNL     1       0.285  14.085  18.343  0.00  0.00    +0.000 A 
ATOM     15  C   UNL     1      -0.394  12.939  18.756  0.00  0.00    +0.000 A 
ENDBRANCH   8   9
BRANCH   6  16
ATOM     16  N   UNL     1       2.284   8.028  19.259  0.00  0.00    +0.000 N 
ATOM     17  C   UNL     1       2.893   8.304  18.068  0.00  0.00    +0.000 A 
ATOM     18  C   UNL     1       3.494   7.119  17.747  0.00  0.00    +0.000 A 
ATOM     19  N   UNL     1       3.245   6.188  18.713  0.00  0.00    +0.000 NA
ATOM     20  N   UNL     1       2.502   6.768  19.655  0.00  0.00    +0.000 NA
BRANCH  18  21
ATOM     21  C   UNL     1       4.312   6.883  16.498  0.00  0.00    +0.000 C 
ATOM     22  C   UNL     1       5.807   6.713  16.663  0.00  0.00    +0.000 C 
ATOM     23  C   UNL     1       4.967   5.532  16.315  0.00  0.00    +0.000 C 
ENDBRANCH  18  21
ENDBRANCH   6  16
BRANCH   5  24
ATOM     24  O   UNL     1       1.882   8.461  22.312  0.00  0.00    +0.000 OA
ATOM     25  H   UNL     1       1.571   9.163  22.916  0.00  0.00    +0.000 HD
ENDBRANCH   5  24
BRANCH   1  26
ATOM     26  C   UNL     1      -1.281  12.651  22.038  0.00  0.00    +0.000 C 
BRANCH  26  27
ATOM     27  C   UNL     1      -2.769  12.910  21.803  0.00  0.00    +0.000 C 
BRANCH  27  28
ATOM     28  C   UNL     1      -3.278  14.015  22.728  0.00  0.00    +0.000 C 
BRANCH  28  30
ATOM     29  C   UNL     1      -4.266  12.545  24.516  0.00  0.00    +0.000 C 
ATOM     30  C   UNL     1      -3.205  13.582  24.190  0.00  0.00    +0.000 C 
ENDBRANCH  28  30
ENDBRANCH  27  28
ENDBRANCH  26  27
ENDBRANCH   1  26
TORSDOF 8
ENDMDL
MODEL 9
REMARK VINA RESULT:      -6.5      0.645      1.215
REMARK  Name = 
REMARK  9 active torsions:
REMARK  status: ('A' for Active; 'I' for Inactive)
REMARK    1  A    between atoms: C_1  and  C_2
REMARK    2  A    between atoms: C_2  and  C_3
REMARK    3  A    between atoms: C_3  and  C_4
REMARK    4  A    between atoms: C_4  and  C_5
REMARK    5  A    between atoms: C_5  and  C_6
REMARK    6  A    between atoms: C_10  and  O_11
REMARK    7  A    between atoms: C_12  and  N_13
REMARK    8  A    between atoms: C_15  and  C_16
REMARK    9  A    between atoms: C_22  and  C_23
REMARK                            x       y       z     vdW  Elec       q    Type
REMARK                         _______ _______ _______ _____ _____    ______ ____
ROOT
ATOM      1  C   UNL     1      -0.886  11.145  22.518  0.00  0.00    +0.000 C 
ATOM      2  O   UNL     1      -0.951  10.682  23.660  0.00  0.00    +0.000 OA
ATOM      3  N   UNL     1      -0.492  10.346  21.439  0.00  0.00    +0.000 N 
ATOM      4  C   UNL     1      -0.420   8.894  21.699  0.00  0.00    +0.000 C 
ATOM      5  C   UNL     1       0.863   8.278  21.128  0.00  0.00    +0.000 C 
ATOM      6  C   UNL     1       1.289   8.983  19.836  0.00  0.00    +0.000 C 
ATOM      7  C   UNL     1       0.087   9.614  19.114  0.00  0.00    +0.000 C 
ATOM      8  C   UNL     1      -0.537  10.726  19.997  0.00  0.00    +0.000 C 
ENDROOT
BRANCH   8   9
ATOM      9  C   UNL     1       0.122  12.066  19.667  0.00  0.00    +0.000 A 
ATOM     10  C   UNL     1       1.472  12.280  20.007  0.00  0.00    +0.000 A 
ATOM     11  C   UNL     1       2.140  13.434  19.581  0.00  0.00    +0.000 A 
ATOM     12  C   UNL     1       1.457  14.402  18.849  0.00  0.00    +0.000 A 
ATOM     13 CL   UNL     1       2.290  15.790  18.266  0.00  0.00    +0.000 Cl
ATOM     14  C   UNL     1       0.114  14.234  18.548  0.00  0.00    +0.000 A 
ATOM     15  C   UNL     1      -0.545  13.070  18.942  0.00  0.00    +0.000 A 
ENDBRANCH   8   9
BRANCH   6  16
ATOM     16  N   UNL     1       2.112   8.135  18.995  0.00  0.00    +0.000 N 
ATOM     17  C   UNL     1       2.520   6.865  19.290  0.00  0.00    +0.000 A 
ATOM     18  C   UNL     1       3.365   6.565  18.258  0.00  0.00    +0.000 A 
ATOM     19  N   UNL     1       3.446   7.619  17.395  0.00  0.00    +0.000 NA
ATOM     20  N   UNL     1       2.653   8.584  17.857  0.00  0.00    +0.000 NA
BRANCH  18  21
ATOM     21  C   UNL     1       4.100   5.253  18.105  0.00  0.00    +0.000 C 
ATOM     22  C   UNL     1       3.407   4.148  17.336  0.00  0.00    +0.000 C 
ATOM     23  C   UNL     1       4.570   4.852  16.724  0.00  0.00    +0.000 C 
ENDBRANCH  18  21
ENDBRANCH   6  16
BRANCH   5  24
ATOM     24  O   UNL     1       1.930   8.396  22.088  0.00  0.00    +0.000 OA
ATOM     25  H   UNL     1       2.306   9.294  22.014  0.00  0.00    +0.000 HD
ENDBRANCH   5  24
BRANCH   1  26
ATOM     26  C   UNL     1      -1.210  12.608  22.276  0.00  0.00    +0.000 C 
BRANCH  26  27
ATOM     27  C   UNL     1      -2.709  12.906  22.276  0.00  0.00    +0.000 C 
BRANCH  27  28
ATOM     28  C   UNL     1      -3.179  13.309  23.673  0.00  0.00    +0.000 C 
BRANCH  28  30
ATOM     29  C   UNL     1      -3.255  15.406  25.064  0.00  0.00    +0.000 C 
ATOM     30  C   UNL     1      -3.573  14.783  23.714  0.00  0.00    +0.000 C 
ENDBRANCH  28  30
ENDBRANCH  27  28
ENDBRANCH  26  27
ENDBRANCH   1  26
TORSDOF 8
ENDMDL
