MODEL 1
REMARK VINA RESULT:      -6.9      0.000      0.000
REMARK  Name = 
REMARK  2 active torsions:
REMARK  status: ('A' for Active; 'I' for Inactive)
REMARK    1  A    between atoms: C_1  and  C_2
REMARK    2  A    between atoms: C_5  and  N_6
REMARK                            x       y       z     vdW  Elec       q    Type
REMARK                         _______ _______ _______ _____ _____    ______ ____
ROOT
ATOM      1  N   UNL     1       2.150   7.533  21.030  0.00  0.00    +0.000 N 
ATOM      2  C   UNL     1       1.331   8.632  20.939  0.00  0.00    +0.000 A 
ATOM      3  N   UNL     1       0.801   9.018  19.823  0.00  0.00    +0.000 NA
ATOM      4  C   UNL     1      -0.053  10.110  19.717  0.00  0.00    +0.000 A 
ATOM      5  C   UNL     1      -0.344  10.564  18.427  0.00  0.00    +0.000 A 
ATOM      6  C   UNL     1      -1.261  11.599  18.221  0.00  0.00    +0.000 A 
ATOM      7  C   UNL     1      -1.907  12.177  19.310  0.00  0.00    +0.000 A 
ATOM      8  C   UNL     1      -1.628  11.730  20.602  0.00  0.00    +0.000 A 
ATOM      9  C   UNL     1      -0.690  10.704  20.800  0.00  0.00    +0.000 A 
ATOM     10  C   UNL     1      -0.394  10.234  22.157  0.00  0.00    +0.000 A 
ATOM     11  O   UNL     1      -1.173  10.453  23.077  0.00  0.00    +0.000 OA
ATOM     12  S   UNL     1       1.141   9.462  22.461  0.00  0.00    +0.000 S 
ATOM     13  H   UNL     1       2.512   7.317  21.949  0.00  0.00    +0.000 HD
ENDROOT
BRANCH   1  18
ATOM     14  C   UNL     1       1.955   2.921  17.637  0.00  0.00    +0.000 C 
ATOM     15  C   UNL     1       1.970   4.132  18.520  0.00  0.00    +0.000 A 
ATOM     16  C   UNL     1       1.390   4.117  19.793  0.00  0.00    +0.000 A 
ATOM     17  C   UNL     1       1.431   5.255  20.606  0.00  0.00    +0.000 A 
ATOM     18  C   UNL     1       2.072   6.420  20.171  0.00  0.00    +0.000 A 
ATOM     19  C   UNL     1       2.631   6.432  18.887  0.00  0.00    +0.000 A 
ATOM     20  C   UNL     1       2.580   5.304  18.069  0.00  0.00    +0.000 A 
ENDBRANCH   1  18
TORSDOF 1
ENDMDL
MODEL 2
REMARK VINA RESULT:      -6.9      3.099      7.098
REMARK  Name = 
REMARK  2 active torsions:
REMARK  status: ('A' for Active; 'I' for Inactive)
REMARK    1  A    between atoms: C_1  and  C_2
REMARK    2  A    between atoms: C_5  and  N_6
REMARK                            x       y       z     vdW  Elec       q    Type
REMARK                         _______ _______ _______ _____ _____    ______ ____
ROOT
ATOM      1  N   UNL     1       2.665   8.280  18.572  0.00  0.00    +0.000 N 
ATOM      2  C   UNL     1       2.751   6.917  18.717  0.00  0.00    +0.000 A 
ATOM      3  N   UNL     1       1.984   6.251  19.520  0.00  0.00    +0.000 NA
ATOM      4  C   UNL     1       2.036   4.868  19.659  0.00  0.00    +0.000 A 
ATOM      5  C   UNL     1       1.338   4.313  20.735  0.00  0.00    +0.000 A 
ATOM      6  C   UNL     1       1.262   2.927  20.901  0.00  0.00    +0.000 A 
ATOM      7  C   UNL     1       1.874   2.085  19.978  0.00  0.00    +0.000 A 
ATOM      8  C   UNL     1       2.570   2.627  18.897  0.00  0.00    +0.000 A 
ATOM      9  C   UNL     1       2.658   4.021  18.750  0.00  0.00    +0.000 A 
ATOM     10  C   UNL     1       3.392   4.593  17.616  0.00  0.00    +0.000 A 
ATOM     11  O   UNL     1       3.626   3.918  16.620  0.00  0.00    +0.000 OA
ATOM     12  S   UNL     1       4.024   6.212  17.757  0.00  0.00    +0.000 S 
ATOM     13  H   UNL     1       3.310   8.704  17.918  0.00  0.00    +0.000 HD
ENDROOT
BRANCH   1  18
ATOM     14  C   UNL     1      -2.062  11.434  19.294  0.00  0.00    +0.000 C 
ATOM     15  C   UNL     1      -0.847  10.580  19.098  0.00  0.00    +0.000 A 
ATOM     16  C   UNL     1      -0.481  10.106  17.833  0.00  0.00    +0.000 A 
ATOM     17  C   UNL     1       0.668   9.324  17.672  0.00  0.00    +0.000 A 
ATOM     18  C   UNL     1       1.484   9.020  18.768  0.00  0.00    +0.000 A 
ATOM     19  C   UNL     1       1.098   9.482  20.033  0.00  0.00    +0.000 A 
ATOM     20  C   UNL     1      -0.054  10.250  20.199  0.00  0.00    +0.000 A 
ENDBRANCH   1  18
TORSDOF 1
ENDMDL
MODEL 3
REMARK VINA RESULT:      -6.9      5.826      7.724
REMARK  Name = 
REMARK  2 active torsions:
REMARK  status: ('A' for Active; 'I' for Inactive)
REMARK    1  A    between atoms: C_1  and  C_2
REMARK    2  A    between atoms: C_5  and  N_6
REMARK                            x       y       z     vdW  Elec       q    Type
REMARK                         _______ _______ _______ _____ _____    ______ ____
ROOT
ATOM      1  N   UNL     1       6.566   4.529  17.732  0.00  0.00    +0.000 N 
ATOM      2  C   UNL     1       5.303   4.143  18.111  0.00  0.00    +0.000 A 
ATOM      3  N   UNL     1       4.672   4.693  19.099  0.00  0.00    +0.000 NA
ATOM      4  C   UNL     1       3.383   4.336  19.479  0.00  0.00    +0.000 A 
ATOM      5  C   UNL     1       2.926   4.824  20.706  0.00  0.00    +0.000 A 
ATOM      6  C   UNL     1       1.613   4.589  21.127  0.00  0.00    +0.000 A 
ATOM      7  C   UNL     1       0.743   3.874  20.310  0.00  0.00    +0.000 A 
ATOM      8  C   UNL     1       1.186   3.386  19.081  0.00  0.00    +0.000 A 
ATOM      9  C   UNL     1       2.511   3.609  18.676  0.00  0.00    +0.000 A 
ATOM     10  C   UNL     1       2.980   3.093  17.385  0.00  0.00    +0.000 A 
ATOM     11  O   UNL     1       2.181   2.787  16.508  0.00  0.00    +0.000 OA
ATOM     12  S   UNL     1       4.688   2.815  17.163  0.00  0.00    +0.000 S 
ATOM     13  H   UNL     1       6.970   4.036  16.947  0.00  0.00    +0.000 HD
ENDROOT
BRANCH   1  18
ATOM     14  C   UNL     1       8.770   9.781  18.342  0.00  0.00    +0.000 C 
ATOM     15  C   UNL     1       8.161   8.420  18.193  0.00  0.00    +0.000 A 
ATOM     16  C   UNL     1       7.249   8.134  17.170  0.00  0.00    +0.000 A 
ATOM     17  C   UNL     1       6.706   6.850  17.042  0.00  0.00    +0.000 A 
ATOM     18  C   UNL     1       7.081   5.826  17.917  0.00  0.00    +0.000 A 
ATOM     19  C   UNL     1       7.979   6.128  18.949  0.00  0.00    +0.000 A 
ATOM     20  C   UNL     1       8.511   7.409  19.089  0.00  0.00    +0.000 A 
ENDBRANCH   1  18
TORSDOF 1
ENDMDL
MODEL 4
REMARK VINA RESULT:      -6.9      2.832      7.131
REMARK  Name = 
REMARK  2 active torsions:
REMARK  status: ('A' for Active; 'I' for Inactive)
REMARK    1  A    between atoms: C_1  and  C_2
REMARK    2  A    between atoms: C_5  and  N_6
REMARK                            x       y       z     vdW  Elec       q    Type
REMARK                         _______ _______ _______ _____ _____    ______ ____
ROOT
ATOM      1  N   UNL     1       2.030   8.196  19.522  0.00  0.00    +0.000 N 
ATOM      2  C   UNL     1       2.138   6.828  19.460  0.00  0.00    +0.000 A 
ATOM      3  N   UNL     1       1.928   6.064  20.484  0.00  0.00    +0.000 NA
ATOM      4  C   UNL     1       2.003   4.677  20.434  0.00  0.00    +0.000 A 
ATOM      5  C   UNL     1       2.006   3.998  21.656  0.00  0.00    +0.000 A 
ATOM      6  C   UNL     1       1.990   2.601  21.699  0.00  0.00    +0.000 A 
ATOM      7  C   UNL     1       1.957   1.872  20.514  0.00  0.00    +0.000 A 
ATOM      8  C   UNL     1       1.949   2.539  19.288  0.00  0.00    +0.000 A 
ATOM      9  C   UNL     1       1.985   3.942  19.254  0.00  0.00    +0.000 A 
ATOM     10  C   UNL     1       1.981   4.644  17.967  0.00  0.00    +0.000 A 
ATOM     11  O   UNL     1       1.599   4.078  16.949  0.00  0.00    +0.000 OA
ATOM     12  S   UNL     1       2.638   6.258  17.890  0.00  0.00    +0.000 S 
ATOM     13  H   UNL     1       2.215   8.701  18.665  0.00  0.00    +0.000 HD
ENDROOT
BRANCH   1  18
ATOM     14  C   UNL     1      -1.322  11.128  23.125  0.00  0.00    +0.000 C 
ATOM     15  C   UNL     1      -0.474  10.342  22.171  0.00  0.00    +0.000 A 
ATOM     16  C   UNL     1      -0.579  10.514  20.786  0.00  0.00    +0.000 A 
ATOM     17  C   UNL     1       0.236   9.781  19.916  0.00  0.00    +0.000 A 
ATOM     18  C   UNL     1       1.183   8.880  20.414  0.00  0.00    +0.000 A 
ATOM     19  C   UNL     1       1.265   8.700  21.801  0.00  0.00    +0.000 A 
ATOM     20  C   UNL     1       0.446   9.418  22.670  0.00  0.00    +0.000 A 
ENDBRANCH   1  18
TORSDOF 1
ENDMDL
MODEL 5
REMARK VINA RESULT:      -6.9      5.745      7.648
REMARK  Name = 
REMARK  2 active torsions:
REMARK  status: ('A' for Active; 'I' for Inactive)
REMARK    1  A    between atoms: C_1  and  C_2
REMARK    2  A    between atoms: C_5  and  N_6
REMARK                            x       y       z     vdW  Elec       q    Type
REMARK                         _______ _______ _______ _____ _____    ______ ____
ROOT
ATOM      1  N   UNL     1       6.550   4.336  17.792  0.00  0.00    +0.000 N 
ATOM      2  C   UNL     1       5.273   4.007  18.178  0.00  0.00    +0.000 A 
ATOM      3  N   UNL     1       4.640   4.642  19.112  0.00  0.00    +0.000 NA
ATOM      4  C   UNL     1       3.337   4.342  19.496  0.00  0.00    +0.000 A 
ATOM      5  C   UNL     1       2.874   4.929  20.676  0.00  0.00    +0.000 A 
ATOM      6  C   UNL     1       1.550   4.755  21.091  0.00  0.00    +0.000 A 
ATOM      7  C   UNL     1       0.676   4.001  20.315  0.00  0.00    +0.000 A 
ATOM      8  C   UNL     1       1.125   3.414  19.133  0.00  0.00    +0.000 A 
ATOM      9  C   UNL     1       2.462   3.577  18.734  0.00  0.00    +0.000 A 
ATOM     10  C   UNL     1       2.937   2.957  17.493  0.00  0.00    +0.000 A 
ATOM     11  O   UNL     1       2.144   2.605  16.628  0.00  0.00    +0.000 OA
ATOM     12  S   UNL     1       4.641   2.627  17.320  0.00  0.00    +0.000 S 
ATOM     13  H   UNL     1       6.954   3.778  17.052  0.00  0.00    +0.000 HD
ENDROOT
BRANCH   1  18
ATOM     14  C   UNL     1       8.646   9.641  18.327  0.00  0.00    +0.000 C 
ATOM     15  C   UNL     1       8.131   8.241  18.178  0.00  0.00    +0.000 A 
ATOM     16  C   UNL     1       8.463   7.238  19.095  0.00  0.00    +0.000 A 
ATOM     17  C   UNL     1       7.956   5.942  18.945  0.00  0.00    +0.000 A 
ATOM     18  C   UNL     1       7.092   5.631  17.890  0.00  0.00    +0.000 A 
ATOM     19  C   UNL     1       6.782   6.638  16.966  0.00  0.00    +0.000 A 
ATOM     20  C   UNL     1       7.296   7.926  17.105  0.00  0.00    +0.000 A 
ENDBRANCH   1  18
TORSDOF 1
ENDMDL
MODEL 6
REMARK VINA RESULT:      -6.8      3.099      7.010
REMARK  Name = 
REMARK  2 active torsions:
REMARK  status: ('A' for Active; 'I' for Inactive)
REMARK    1  A    between atoms: C_1  and  C_2
REMARK    2  A    between atoms: C_5  and  N_6
REMARK                            x       y       z     vdW  Elec       q    Type
REMARK                         _______ _______ _______ _____ _____    ______ ____
ROOT
ATOM      1  N   UNL     1       2.691   8.368  18.523  0.00  0.00    +0.000 N 
ATOM      2  C   UNL     1       2.771   7.005  18.675  0.00  0.00    +0.000 A 
ATOM      3  N   UNL     1       1.961   6.338  19.433  0.00  0.00    +0.000 NA
ATOM      4  C   UNL     1       2.008   4.956  19.576  0.00  0.00    +0.000 A 
ATOM      5  C   UNL     1       1.251   4.400  20.611  0.00  0.00    +0.000 A 
ATOM      6  C   UNL     1       1.168   3.014  20.775  0.00  0.00    +0.000 A 
ATOM      7  C   UNL     1       1.835   2.173  19.889  0.00  0.00    +0.000 A 
ATOM      8  C   UNL     1       2.591   2.715  18.850  0.00  0.00    +0.000 A 
ATOM      9  C   UNL     1       2.684   4.109  18.706  0.00  0.00    +0.000 A 
ATOM     10  C   UNL     1       3.481   4.681  17.616  0.00  0.00    +0.000 A 
ATOM     11  O   UNL     1       3.774   4.006  16.636  0.00  0.00    +0.000 OA
ATOM     12  S   UNL     1       4.100   6.302  17.791  0.00  0.00    +0.000 S 
ATOM     13  H   UNL     1       3.372   8.792  17.906  0.00  0.00    +0.000 HD
ENDROOT
BRANCH   1  18
ATOM     14  C   UNL     1      -2.233  11.232  19.130  0.00  0.00    +0.000 C 
ATOM     15  C   UNL     1      -0.927  10.514  18.974  0.00  0.00    +0.000 A 
ATOM     16  C   UNL     1      -0.036  10.374  20.045  0.00  0.00    +0.000 A 
ATOM     17  C   UNL     1       1.171   9.685  19.879  0.00  0.00    +0.000 A 
ATOM     18  C   UNL     1       1.499   9.105  18.649  0.00  0.00    +0.000 A 
ATOM     19  C   UNL     1       0.610   9.269  17.578  0.00  0.00    +0.000 A 
ATOM     20  C   UNL     1      -0.586   9.967  17.736  0.00  0.00    +0.000 A 
ENDBRANCH   1  18
TORSDOF 1
ENDMDL
MODEL 7
REMARK VINA RESULT:      -6.8      2.273      3.324
REMARK  Name = 
REMARK  2 active torsions:
REMARK  status: ('A' for Active; 'I' for Inactive)
REMARK    1  A    between atoms: C_1  and  C_2
REMARK    2  A    between atoms: C_5  and  N_6
REMARK                            x       y       z     vdW  Elec       q    Type
REMARK                         _______ _______ _______ _____ _____    ______ ____
ROOT
ATOM      1  N   UNL     1       1.222  10.336  19.395  0.00  0.00    +0.000 N 
ATOM      2  C   UNL     1      -0.000  10.767  18.943  0.00  0.00    +0.000 A 
ATOM      3  N   UNL     1      -0.642  10.173  17.988  0.00  0.00    +0.000 NA
ATOM      4  C   UNL     1      -1.893  10.578  17.537  0.00  0.00    +0.000 A 
ATOM      5  C   UNL     1      -2.350  10.012  16.343  0.00  0.00    +0.000 A 
ATOM      6  C   UNL     1      -3.632  10.293  15.861  0.00  0.00    +0.000 A 
ATOM      7  C   UNL     1      -4.473  11.134  16.583  0.00  0.00    +0.000 A 
ATOM      8  C   UNL     1      -4.030  11.701  17.778  0.00  0.00    +0.000 A 
ATOM      9  C   UNL     1      -2.734  11.429  18.244  0.00  0.00    +0.000 A 
ATOM     10  C   UNL     1      -2.266  12.028  19.498  0.00  0.00    +0.000 A 
ATOM     11  O   UNL     1      -3.065  12.463  20.319  0.00  0.00    +0.000 OA
ATOM     12  S   UNL     1      -0.549  12.213  19.750  0.00  0.00    +0.000 S 
ATOM     13  H   UNL     1       1.638  10.870  20.146  0.00  0.00    +0.000 HD
ENDROOT
BRANCH   1  18
ATOM     14  C   UNL     1       2.835   4.848  19.074  0.00  0.00    +0.000 C 
ATOM     15  C   UNL     1       2.449   6.294  19.158  0.00  0.00    +0.000 A 
ATOM     16  C   UNL     1       2.620   7.161  18.073  0.00  0.00    +0.000 A 
ATOM     17  C   UNL     1       2.235   8.503  18.169  0.00  0.00    +0.000 A 
ATOM     18  C   UNL     1       1.653   8.997  19.342  0.00  0.00    +0.000 A 
ATOM     19  C   UNL     1       1.505   8.126  20.429  0.00  0.00    +0.000 A 
ATOM     20  C   UNL     1       1.900   6.791  20.341  0.00  0.00    +0.000 A 
ENDBRANCH   1  18
TORSDOF 1
ENDMDL
MODEL 8
REMARK VINA RESULT:      -6.8      2.852      7.060
REMARK  Name = 
REMARK  2 active torsions:
REMARK  status: ('A' for Active; 'I' for Inactive)
REMARK    1  A    between atoms: C_1  and  C_2
REMARK    2  A    between atoms: C_5  and  N_6
REMARK                            x       y       z     vdW  Elec       q    Type
REMARK                         _______ _______ _______ _____ _____    ______ ____
ROOT
ATOM      1  N   UNL     1       2.074   8.171  19.454  0.00  0.00    +0.000 N 
ATOM      2  C   UNL     1       2.152   6.800  19.415  0.00  0.00    +0.000 A 
ATOM      3  N   UNL     1       1.954   6.059  20.458  0.00  0.00    +0.000 NA
ATOM      4  C   UNL     1       2.000   4.670  20.431  0.00  0.00    +0.000 A 
ATOM      5  C   UNL     1       2.022   4.013  21.665  0.00  0.00    +0.000 A 
ATOM      6  C   UNL     1       1.980   2.617  21.734  0.00  0.00    +0.000 A 
ATOM      7  C   UNL     1       1.899   1.869  20.564  0.00  0.00    +0.000 A 
ATOM      8  C   UNL     1       1.872   2.513  19.327  0.00  0.00    +0.000 A 
ATOM      9  C   UNL     1       1.936   3.914  19.266  0.00  0.00    +0.000 A 
ATOM     10  C   UNL     1       1.911   4.593  17.967  0.00  0.00    +0.000 A 
ATOM     11  O   UNL     1       1.490   4.017  16.970  0.00  0.00    +0.000 OA
ATOM     12  S   UNL     1       2.597   6.192  17.843  0.00  0.00    +0.000 S 
ATOM     13  H   UNL     1       2.245   8.656  18.583  0.00  0.00    +0.000 HD
ENDROOT
BRANCH   1  18
ATOM     14  C   UNL     1      -1.312  10.937  23.156  0.00  0.00    +0.000 C 
ATOM     15  C   UNL     1      -0.398  10.233  22.199  0.00  0.00    +0.000 A 
ATOM     16  C   UNL     1       0.584   9.342  22.646  0.00  0.00    +0.000 A 
ATOM     17  C   UNL     1       1.415   8.684  21.732  0.00  0.00    +0.000 A 
ATOM     18  C   UNL     1       1.265   8.887  20.356  0.00  0.00    +0.000 A 
ATOM     19  C   UNL     1       0.292   9.797  19.920  0.00  0.00    +0.000 A 
ATOM     20  C   UNL     1      -0.528  10.464  20.828  0.00  0.00    +0.000 A 
ENDBRANCH   1  18
TORSDOF 1
ENDMDL
MODEL 9
REMARK VINA RESULT:      -6.7      4.244      7.577
REMARK  Name = 
REMARK  2 active torsions:
REMARK  status: ('A' for Active; 'I' for Inactive)
REMARK    1  A    between atoms: C_1  and  C_2
REMARK    2  A    between atoms: C_5  and  N_6
REMARK                            x       y       z     vdW  Elec       q    Type
REMARK                         _______ _______ _______ _____ _____    ______ ____
ROOT
ATOM      1  N   UNL     1       3.009   6.203  19.641  0.00  0.00    +0.000 N 
ATOM      2  C   UNL     1       4.001   5.701  18.834  0.00  0.00    +0.000 A 
ATOM      3  N   UNL     1       4.052   5.936  17.562  0.00  0.00    +0.000 NA
ATOM      4  C   UNL     1       5.064   5.461  16.735  0.00  0.00    +0.000 A 
ATOM      5  C   UNL     1       4.859   5.571  15.356  0.00  0.00    +0.000 A 
ATOM      6  C   UNL     1       5.859   5.201  14.452  0.00  0.00    +0.000 A 
ATOM      7  C   UNL     1       7.081   4.732  14.925  0.00  0.00    +0.000 A 
ATOM      8  C   UNL     1       7.298   4.622  16.299  0.00  0.00    +0.000 A 
ATOM      9  C   UNL     1       6.281   4.976  17.199  0.00  0.00    +0.000 A 
ATOM     10  C   UNL     1       6.507   4.858  18.643  0.00  0.00    +0.000 A 
ATOM     11  O   UNL     1       7.645   4.799  19.094  0.00  0.00    +0.000 OA
ATOM     12  S   UNL     1       5.127   4.687  19.697  0.00  0.00    +0.000 S 
ATOM     13  H   UNL     1       3.062   5.961  20.621  0.00  0.00    +0.000 HD
ENDROOT
BRANCH   1  18
ATOM     14  C   UNL     1       0.045  10.998  18.619  0.00  0.00    +0.000 C 
ATOM     15  C   UNL     1       0.845   9.763  18.905  0.00  0.00    +0.000 A 
ATOM     16  C   UNL     1       0.923   9.224  20.194  0.00  0.00    +0.000 A 
ATOM     17  C   UNL     1       1.663   8.060  20.433  0.00  0.00    +0.000 A 
ATOM     18  C   UNL     1       2.319   7.403  19.386  0.00  0.00    +0.000 A 
ATOM     19  C   UNL     1       2.251   7.963  18.103  0.00  0.00    +0.000 A 
ATOM     20  C   UNL     1       1.526   9.129  17.864  0.00  0.00    +0.000 A 
ENDBRANCH   1  18
TORSDOF 1
ENDMDL
