MODEL 1
REMARK VINA RESULT:      -8.7      0.000      0.000
REMARK  Name = 
REMARK  7 active torsions:
REMARK  status: ('A' for Active; 'I' for Inactive)
REMARK    1  A    between atoms: C_1  and  C_2
REMARK    2  A    between atoms: C_4  and  C_5
REMARK    3  A    between atoms: C_9  and  C_10
REMARK    4  A    between atoms: C_18  and  C_19
REMARK    5  A    between atoms: C_19  and  C_20
REMARK    6  A    between atoms: C_23  and  C_24
REMARK    7  A    between atoms: C_23  and  C_25
REMARK                            x       y       z     vdW  Elec       q    Type
REMARK                         _______ _______ _______ _____ _____    ______ ____
ROOT
ATOM      1  C   UNL     1       1.541   9.814  18.432  0.00  0.00    +0.000 C 
ATOM      2  O   UNL     1       1.928   9.342  17.371  0.00  0.00    +0.000 OA
ATOM      3  N   UNL     1       1.383   9.128  19.623  0.00  0.00    +0.000 N 
ATOM      4  C   UNL     1       1.705   7.781  19.839  0.00  0.00    +0.000 A 
ATOM      5  C   UNL     1       1.233   7.192  21.010  0.00  0.00    +0.000 A 
ATOM      6  C   UNL     1       1.481   5.839  21.236  0.00  0.00    +0.000 A 
ATOM      7  C   UNL     1       2.230   5.128  20.312  0.00  0.00    +0.000 A 
ATOM      8  F   UNL     1       2.408   3.813  20.513  0.00  0.00    +0.000 F 
ATOM      9  C   UNL     1       2.743   5.781  19.193  0.00  0.00    +0.000 A 
ATOM     10  N   UNL     1       2.445   7.091  18.944  0.00  0.00    +0.000 NA
ATOM     11  H   UNL     1       0.959   9.657  20.375  0.00  0.00    +0.000 HD
ENDROOT
BRANCH   9  12
ATOM     12  C   UNL     1       3.596   5.008  18.166  0.00  0.00    +0.000 C 
ATOM     13  C   UNL     1       2.807   3.808  17.597  0.00  0.00    +0.000 C 
ATOM     14  C   UNL     1       4.842   4.485  18.919  0.00  0.00    +0.000 C 
ATOM     15  O   UNL     1       6.124   4.593  18.328  0.00  0.00    +0.000 OA
ATOM     16  C   UNL     1       6.310   5.483  17.235  0.00  0.00    +0.000 C 
ATOM     17  C   UNL     1       7.114   6.672  17.790  0.00  0.00    +0.000 C 
ATOM     18  C   UNL     1       5.058   6.074  16.571  0.00  0.00    +0.000 C 
ATOM     19  N   UNL     1       5.164   6.942  15.519  0.00  0.00    +0.000 N 
ATOM     20  N   UNL     1       3.859   5.851  16.985  0.00  0.00    +0.000 NA
ATOM     21  H   UNL     1       6.021   7.149  15.025  0.00  0.00    +0.000 HD
ATOM     22  H   UNL     1       4.294   7.253  15.099  0.00  0.00    +0.000 HD
BRANCH  16  23
ATOM     23  C   UNL     1       7.125   4.724  16.157  0.00  0.00    +0.000 C 
ATOM     24  F   UNL     1       6.376   3.797  15.505  0.00  0.00    +0.000 F 
ATOM     25  F   UNL     1       7.630   5.536  15.198  0.00  0.00    +0.000 F 
ATOM     26  F   UNL     1       8.180   4.057  16.691  0.00  0.00    +0.000 F 
ENDBRANCH  16  23
ENDBRANCH   9  12
BRANCH   1  33
ATOM     27  C   UNL     1      -1.373  10.747  18.503  0.00  0.00    +0.000 C 
ATOM     28  C   UNL     1      -0.205  11.695  18.544  0.00  0.00    +0.000 A 
ATOM     29  C   UNL     1      -0.460  13.077  18.612  0.00  0.00    +0.000 A 
ATOM     30  C   UNL     1       0.595  13.983  18.653  0.00  0.00    +0.000 A 
ATOM     31  C   UNL     1       1.885  13.478  18.632  0.00  0.00    +0.000 A 
ATOM     32  N   UNL     1       2.189  12.156  18.579  0.00  0.00    +0.000 NA
ATOM     33  C   UNL     1       1.134  11.275  18.520  0.00  0.00    +0.000 A 
BRANCH  30  34
ATOM     34  C   UNL     1       0.362  15.395  18.715  0.00  0.00    +0.000 C 
ATOM     35  N   UNL     1       0.174  16.541  18.768  0.00  0.00    +0.000 NA
ENDBRANCH  30  34
ENDBRANCH   1  33
TORSDOF 4
ENDMDL
MODEL 2
REMARK VINA RESULT:      -8.0      2.571      3.143
REMARK  Name = 
REMARK  7 active torsions:
REMARK  status: ('A' for Active; 'I' for Inactive)
REMARK    1  A    between atoms: C_1  and  C_2
REMARK    2  A    between atoms: C_4  and  C_5
REMARK    3  A    between atoms: C_9  and  C_10
REMARK    4  A    between atoms: C_18  and  C_19
REMARK    5  A    between atoms: C_19  and  C_20
REMARK    6  A    between atoms: C_23  and  C_24
REMARK    7  A    between atoms: C_23  and  C_25
REMARK                            x       y       z     vdW  Elec       q    Type
REMARK                         _______ _______ _______ _____ _____    ______ ____
ROOT
ATOM      1  C   UNL     1       1.339   7.835  20.485  0.00  0.00    +0.000 C 
ATOM      2  O   UNL     1       2.311   8.050  19.773  0.00  0.00    +0.000 OA
ATOM      3  N   UNL     1       0.823   6.593  20.809  0.00  0.00    +0.000 N 
ATOM      4  C   UNL     1       1.368   5.357  20.433  0.00  0.00    +0.000 A 
ATOM      5  C   UNL     1       0.575   4.227  20.618  0.00  0.00    +0.000 A 
ATOM      6  C   UNL     1       1.056   2.986  20.203  0.00  0.00    +0.000 A 
ATOM      7  C   UNL     1       2.329   2.905  19.660  0.00  0.00    +0.000 A 
ATOM      8  F   UNL     1       2.754   1.714  19.209  0.00  0.00    +0.000 F 
ATOM      9  C   UNL     1       3.112   4.053  19.564  0.00  0.00    +0.000 A 
ATOM     10  N   UNL     1       2.613   5.275  19.914  0.00  0.00    +0.000 NA
ATOM     11  H   UNL     1      -0.045   6.606  21.330  0.00  0.00    +0.000 HD
ENDROOT
BRANCH   9  12
ATOM     12  C   UNL     1       4.538   3.975  18.981  0.00  0.00    +0.000 C 
ATOM     13  C   UNL     1       5.339   2.840  19.656  0.00  0.00    +0.000 C 
ATOM     14  C   UNL     1       5.222   5.329  19.284  0.00  0.00    +0.000 C 
ATOM     15  O   UNL     1       5.982   5.979  18.281  0.00  0.00    +0.000 OA
ATOM     16  C   UNL     1       5.822   5.582  16.925  0.00  0.00    +0.000 C 
ATOM     17  C   UNL     1       5.042   6.719  16.241  0.00  0.00    +0.000 C 
ATOM     18  C   UNL     1       5.045   4.288  16.643  0.00  0.00    +0.000 C 
ATOM     19  N   UNL     1       4.848   3.852  15.362  0.00  0.00    +0.000 N 
ATOM     20  N   UNL     1       4.487   3.578  17.562  0.00  0.00    +0.000 NA
ATOM     21  H   UNL     1       5.292   4.245  14.543  0.00  0.00    +0.000 HD
ATOM     22  H   UNL     1       4.369   2.963  15.255  0.00  0.00    +0.000 HD
BRANCH  16  23
ATOM     23  C   UNL     1       7.241   5.445  16.316  0.00  0.00    +0.000 C 
ATOM     24  F   UNL     1       7.900   4.356  16.789  0.00  0.00    +0.000 F 
ATOM     25  F   UNL     1       7.233   5.319  14.966  0.00  0.00    +0.000 F 
ATOM     26  F   UNL     1       8.022   6.518  16.597  0.00  0.00    +0.000 F 
ENDBRANCH  16  23
ENDBRANCH   9  12
BRANCH   1  33
ATOM     27  C   UNL     1       0.088  10.047  18.780  0.00  0.00    +0.000 C 
ATOM     28  C   UNL     1      -0.021  10.004  20.280  0.00  0.00    +0.000 A 
ATOM     29  C   UNL     1      -0.726  11.031  20.934  0.00  0.00    +0.000 A 
ATOM     30  C   UNL     1      -0.849  11.023  22.320  0.00  0.00    +0.000 A 
ATOM     31  C   UNL     1      -0.266   9.977  23.018  0.00  0.00    +0.000 A 
ATOM     32  N   UNL     1       0.414   8.955  22.437  0.00  0.00    +0.000 NA
ATOM     33  C   UNL     1       0.543   8.989  21.068  0.00  0.00    +0.000 A 
BRANCH  30  34
ATOM     34  C   UNL     1      -1.555  12.060  23.012  0.00  0.00    +0.000 C 
ATOM     35  N   UNL     1      -2.128  12.903  23.571  0.00  0.00    +0.000 NA
ENDBRANCH  30  34
ENDBRANCH   1  33
TORSDOF 4
ENDMDL
MODEL 3
REMARK VINA RESULT:      -7.8      3.254      4.405
REMARK  Name = 
REMARK  7 active torsions:
REMARK  status: ('A' for Active; 'I' for Inactive)
REMARK    1  A    between atoms: C_1  and  C_2
REMARK    2  A    between atoms: C_4  and  C_5
REMARK    3  A    between atoms: C_9  and  C_10
REMARK    4  A    between atoms: C_18  and  C_19
REMARK    5  A    between atoms: C_19  and  C_20
REMARK    6  A    between atoms: C_23  and  C_24
REMARK    7  A    between atoms: C_23  and  C_25
REMARK                            x       y       z     vdW  Elec       q    Type
REMARK                         _______ _______ _______ _____ _____    ______ ____
ROOT
ATOM      1  C   UNL     1       0.336  10.229  21.601  0.00  0.00    +0.000 C 
ATOM      2  O   UNL     1       0.680   9.326  22.352  0.00  0.00    +0.000 OA
ATOM      3  N   UNL     1       0.628  10.326  20.252  0.00  0.00    +0.000 N 
ATOM      4  C   UNL     1       1.314   9.368  19.493  0.00  0.00    +0.000 A 
ATOM      5  C   UNL     1       1.750   9.749  18.227  0.00  0.00    +0.000 A 
ATOM      6  C   UNL     1       2.487   8.846  17.463  0.00  0.00    +0.000 A 
ATOM      7  C   UNL     1       2.726   7.576  17.965  0.00  0.00    +0.000 A 
ATOM      8  F   UNL     1       3.488   6.739  17.245  0.00  0.00    +0.000 F 
ATOM      9  C   UNL     1       2.205   7.218  19.207  0.00  0.00    +0.000 A 
ATOM     10  N   UNL     1       1.537   8.126  19.978  0.00  0.00    +0.000 NA
ATOM     11  H   UNL     1       0.346  11.191  19.808  0.00  0.00    +0.000 HD
ENDROOT
BRANCH   9  12
ATOM     12  C   UNL     1       2.444   5.803  19.771  0.00  0.00    +0.000 C 
ATOM     13  C   UNL     1       1.935   5.704  21.226  0.00  0.00    +0.000 C 
ATOM     14  C   UNL     1       3.972   5.563  19.751  0.00  0.00    +0.000 C 
ATOM     15  O   UNL     1       4.490   4.326  19.295  0.00  0.00    +0.000 OA
ATOM     16  C   UNL     1       3.654   3.464  18.536  0.00  0.00    +0.000 C 
ATOM     17  C   UNL     1       4.170   3.540  17.088  0.00  0.00    +0.000 C 
ATOM     18  C   UNL     1       2.153   3.784  18.483  0.00  0.00    +0.000 C 
ATOM     19  N   UNL     1       1.292   3.000  17.766  0.00  0.00    +0.000 N 
ATOM     20  N   UNL     1       1.625   4.818  19.041  0.00  0.00    +0.000 NA
ATOM     21  H   UNL     1       1.532   2.111  17.348  0.00  0.00    +0.000 HD
ATOM     22  H   UNL     1       0.308   3.243  17.817  0.00  0.00    +0.000 HD
BRANCH  16  23
ATOM     23  C   UNL     1       3.830   2.033  19.107  0.00  0.00    +0.000 C 
ATOM     24  F   UNL     1       2.812   1.681  19.935  0.00  0.00    +0.000 F 
ATOM     25  F   UNL     1       3.877   1.077  18.148  0.00  0.00    +0.000 F 
ATOM     26  F   UNL     1       4.972   1.910  19.829  0.00  0.00    +0.000 F 
ENDBRANCH  16  23
ENDBRANCH   9  12
BRANCH   1  33
ATOM     27  C   UNL     1       1.077  13.140  21.013  0.00  0.00    +0.000 C 
ATOM     28  C   UNL     1      -0.100  12.747  21.866  0.00  0.00    +0.000 A 
ATOM     29  C   UNL     1      -0.895  13.763  22.426  0.00  0.00    +0.000 A 
ATOM     30  C   UNL     1      -1.992  13.437  23.218  0.00  0.00    +0.000 A 
ATOM     31  C   UNL     1      -2.269  12.095  23.423  0.00  0.00    +0.000 A 
ATOM     32  N   UNL     1      -1.542  11.074  22.898  0.00  0.00    +0.000 NA
ATOM     33  C   UNL     1      -0.451  11.415  22.133  0.00  0.00    +0.000 A 
BRANCH  30  34
ATOM     34  C   UNL     1      -2.814  14.452  23.806  0.00  0.00    +0.000 C 
ATOM     35  N   UNL     1      -3.481  15.277  24.282  0.00  0.00    +0.000 NA
ENDBRANCH  30  34
ENDBRANCH   1  33
TORSDOF 4
ENDMDL
MODEL 4
REMARK VINA RESULT:      -7.7      0.744      1.284
REMARK  Name = 
REMARK  7 active torsions:
REMARK  status: ('A' for Active; 'I' for Inactive)
REMARK    1  A    between atoms: C_1  and  C_2
REMARK    2  A    between atoms: C_4  and  C_5
REMARK    3  A    between atoms: C_9  and  C_10
REMARK    4  A    between atoms: C_18  and  C_19
REMARK    5  A    between atoms: C_19  and  C_20
REMARK    6  A    between atoms: C_23  and  C_24
REMARK    7  A    between atoms: C_23  and  C_25
REMARK                            x       y       z     vdW  Elec       q    Type
REMARK                         _______ _______ _______ _____ _____    ______ ____
ROOT
ATOM      1  C   UNL     1       1.458  10.093  18.422  0.00  0.00    +0.000 C 
ATOM      2  O   UNL     1       1.813   9.593  17.362  0.00  0.00    +0.000 OA
ATOM      3  N   UNL     1       1.321   9.433  19.630  0.00  0.00    +0.000 N 
ATOM      4  C   UNL     1       1.632   8.088  19.868  0.00  0.00    +0.000 A 
ATOM      5  C   UNL     1       1.182   7.529  21.062  0.00  0.00    +0.000 A 
ATOM      6  C   UNL     1       1.420   6.179  21.311  0.00  0.00    +0.000 A 
ATOM      7  C   UNL     1       2.138   5.439  20.384  0.00  0.00    +0.000 A 
ATOM      8  F   UNL     1       2.306   4.126  20.609  0.00  0.00    +0.000 F 
ATOM      9  C   UNL     1       2.631   6.061  19.239  0.00  0.00    +0.000 A 
ATOM     10  N   UNL     1       2.342   7.369  18.970  0.00  0.00    +0.000 NA
ATOM     11  H   UNL     1       0.922   9.983  20.382  0.00  0.00    +0.000 HD
ENDROOT
BRANCH   9  12
ATOM     12  C   UNL     1       3.449   5.257  18.209  0.00  0.00    +0.000 C 
ATOM     13  C   UNL     1       2.594   4.123  17.601  0.00  0.00    +0.000 C 
ATOM     14  C   UNL     1       4.646   4.638  18.969  0.00  0.00    +0.000 C 
ATOM     15  O   UNL     1       5.942   4.674  18.401  0.00  0.00    +0.000 OA
ATOM     16  C   UNL     1       6.204   5.574  17.331  0.00  0.00    +0.000 C 
ATOM     17  C   UNL     1       7.074   6.696  17.925  0.00  0.00    +0.000 C 
ATOM     18  C   UNL     1       5.004   6.260  16.661  0.00  0.00    +0.000 C 
ATOM     19  N   UNL     1       5.185   7.141  15.631  0.00  0.00    +0.000 N 
ATOM     20  N   UNL     1       3.787   6.106  17.051  0.00  0.00    +0.000 NA
ATOM     21  H   UNL     1       6.062   7.302  15.155  0.00  0.00    +0.000 HD
ATOM     22  H   UNL     1       4.344   7.518  15.205  0.00  0.00    +0.000 HD
BRANCH  16  23
ATOM     23  C   UNL     1       6.986   4.786  16.249  0.00  0.00    +0.000 C 
ATOM     24  F   UNL     1       6.197   3.899  15.589  0.00  0.00    +0.000 F 
ATOM     25  F   UNL     1       7.529   5.582  15.297  0.00  0.00    +0.000 F 
ATOM     26  F   UNL     1       8.009   4.069  16.780  0.00  0.00    +0.000 F 
ENDBRANCH  16  23
ENDBRANCH   9  12
BRANCH   1  33
ATOM     27  C   UNL     1       3.448  12.379  17.999  0.00  0.00    +0.000 C 
ATOM     28  C   UNL     1       1.991  12.603  18.301  0.00  0.00    +0.000 A 
ATOM     29  C   UNL     1       1.518  13.924  18.401  0.00  0.00    +0.000 A 
ATOM     30  C   UNL     1       0.176  14.169  18.677  0.00  0.00    +0.000 A 
ATOM     31  C   UNL     1      -0.663  13.078  18.839  0.00  0.00    +0.000 A 
ATOM     32  N   UNL     1      -0.263  11.784  18.743  0.00  0.00    +0.000 NA
ATOM     33  C   UNL     1       1.070  11.560  18.488  0.00  0.00    +0.000 A 
BRANCH  30  34
ATOM     34  C   UNL     1      -0.329  15.504  18.790  0.00  0.00    +0.000 C 
ATOM     35  N   UNL     1      -0.742  16.587  18.882  0.00  0.00    +0.000 NA
ENDBRANCH  30  34
ENDBRANCH   1  33
TORSDOF 4
ENDMDL
MODEL 5
REMARK VINA RESULT:      -7.7      2.998      4.099
REMARK  Name = 
REMARK  7 active torsions:
REMARK  status: ('A' for Active; 'I' for Inactive)
REMARK    1  A    between atoms: C_1  and  C_2
REMARK    2  A    between atoms: C_4  and  C_5
REMARK    3  A    between atoms: C_9  and  C_10
REMARK    4  A    between atoms: C_18  and  C_19
REMARK    5  A    between atoms: C_19  and  C_20
REMARK    6  A    between atoms: C_23  and  C_24
REMARK    7  A    between atoms: C_23  and  C_25
REMARK                            x       y       z     vdW  Elec       q    Type
REMARK                         _______ _______ _______ _____ _____    ______ ____
ROOT
ATOM      1  C   UNL     1       0.076  10.260  21.083  0.00  0.00    +0.000 C 
ATOM      2  O   UNL     1       0.284   9.349  21.874  0.00  0.00    +0.000 OA
ATOM      3  N   UNL     1       0.585  10.359  19.800  0.00  0.00    +0.000 N 
ATOM      4  C   UNL     1       1.373   9.397  19.156  0.00  0.00    +0.000 A 
ATOM      5  C   UNL     1       2.013   9.778  17.980  0.00  0.00    +0.000 A 
ATOM      6  C   UNL     1       2.853   8.869  17.339  0.00  0.00    +0.000 A 
ATOM      7  C   UNL     1       2.992   7.595  17.865  0.00  0.00    +0.000 A 
ATOM      8  F   UNL     1       3.852   6.751  17.271  0.00  0.00    +0.000 F 
ATOM      9  C   UNL     1       2.274   7.237  19.003  0.00  0.00    +0.000 A 
ATOM     10  N   UNL     1       1.500   8.150  19.662  0.00  0.00    +0.000 NA
ATOM     11  H   UNL     1       0.388  11.230  19.322  0.00  0.00    +0.000 HD
ENDROOT
BRANCH   9  12
ATOM     12  C   UNL     1       2.402   5.816  19.589  0.00  0.00    +0.000 C 
ATOM     13  C   UNL     1       1.674   5.721  20.948  0.00  0.00    +0.000 C 
ATOM     14  C   UNL     1       3.911   5.552  19.803  0.00  0.00    +0.000 C 
ATOM     15  O   UNL     1       4.474   4.309  19.424  0.00  0.00    +0.000 OA
ATOM     16  C   UNL     1       3.751   3.462  18.541  0.00  0.00    +0.000 C 
ATOM     17  C   UNL     1       4.484   3.536  17.189  0.00  0.00    +0.000 C 
ATOM     18  C   UNL     1       2.281   3.807  18.260  0.00  0.00    +0.000 C 
ATOM     19  N   UNL     1       1.529   3.038  17.415  0.00  0.00    +0.000 N 
ATOM     20  N   UNL     1       1.690   4.847  18.736  0.00  0.00    +0.000 NA
ATOM     21  H   UNL     1       1.817   2.147  17.034  0.00  0.00    +0.000 HD
ATOM     22  H   UNL     1       0.552   3.297  17.316  0.00  0.00    +0.000 HD
BRANCH  16  23
ATOM     23  C   UNL     1       3.816   2.027  19.124  0.00  0.00    +0.000 C 
ATOM     24  F   UNL     1       2.715   1.721  19.858  0.00  0.00    +0.000 F 
ATOM     25  F   UNL     1       3.907   1.067  18.172  0.00  0.00    +0.000 F 
ATOM     26  F   UNL     1       4.884   1.858  19.944  0.00  0.00    +0.000 F 
ENDBRANCH  16  23
ENDBRANCH   9  12
BRANCH   1  33
ATOM     27  C   UNL     1      -1.993  11.558  19.240  0.00  0.00    +0.000 C 
ATOM     28  C   UNL     1      -1.714  12.047  20.635  0.00  0.00    +0.000 A 
ATOM     29  C   UNL     1      -2.431  13.157  21.117  0.00  0.00    +0.000 A 
ATOM     30  C   UNL     1      -2.200  13.636  22.403  0.00  0.00    +0.000 A 
ATOM     31  C   UNL     1      -1.257  12.983  23.179  0.00  0.00    +0.000 A 
ATOM     32  N   UNL     1      -0.545  11.901  22.770  0.00  0.00    +0.000 NA
ATOM     33  C   UNL     1      -0.772  11.453  21.490  0.00  0.00    +0.000 A 
BRANCH  30  34
ATOM     34  C   UNL     1      -2.912  14.769  22.915  0.00  0.00    +0.000 C 
ATOM     35  N   UNL     1      -3.491  15.689  23.328  0.00  0.00    +0.000 NA
ENDBRANCH  30  34
ENDBRANCH   1  33
TORSDOF 4
ENDMDL
MODEL 6
REMARK VINA RESULT:      -7.6      2.317      3.240
REMARK  Name = 
REMARK  7 active torsions:
REMARK  status: ('A' for Active; 'I' for Inactive)
REMARK    1  A    between atoms: C_1  and  C_2
REMARK    2  A    between atoms: C_4  and  C_5
REMARK    3  A    between atoms: C_9  and  C_10
REMARK    4  A    between atoms: C_18  and  C_19
REMARK    5  A    between atoms: C_19  and  C_20
REMARK    6  A    between atoms: C_23  and  C_24
REMARK    7  A    between atoms: C_23  and  C_25
REMARK                            x       y       z     vdW  Elec       q    Type
REMARK                         _______ _______ _______ _____ _____    ______ ____
ROOT
ATOM      1  C   UNL     1       1.731  11.192  18.595  0.00  0.00    +0.000 C 
ATOM      2  O   UNL     1       2.029  10.581  17.578  0.00  0.00    +0.000 OA
ATOM      3  N   UNL     1       1.406  10.632  19.818  0.00  0.00    +0.000 N 
ATOM      4  C   UNL     1       1.430   9.265  20.125  0.00  0.00    +0.000 A 
ATOM      5  C   UNL     1       0.820   8.865  21.311  0.00  0.00    +0.000 A 
ATOM      6  C   UNL     1       0.771   7.508  21.625  0.00  0.00    +0.000 A 
ATOM      7  C   UNL     1       1.371   6.597  20.770  0.00  0.00    +0.000 A 
ATOM      8  F   UNL     1       1.261   5.289  21.054  0.00  0.00    +0.000 F 
ATOM      9  C   UNL     1       2.033   7.053  19.632  0.00  0.00    +0.000 A 
ATOM     10  N   UNL     1       2.025   8.377  19.297  0.00  0.00    +0.000 NA
ATOM     11  H   UNL     1       1.089  11.286  20.524  0.00  0.00    +0.000 HD
ENDROOT
BRANCH   9  12
ATOM     12  C   UNL     1       2.723   6.054  18.682  0.00  0.00    +0.000 C 
ATOM     13  C   UNL     1       3.541   6.802  17.606  0.00  0.00    +0.000 C 
ATOM     14  C   UNL     1       1.602   5.241  17.991  0.00  0.00    +0.000 C 
ATOM     15  O   UNL     1       1.725   3.837  17.855  0.00  0.00    +0.000 OA
ATOM     16  C   UNL     1       2.678   3.146  18.651  0.00  0.00    +0.000 C 
ATOM     17  C   UNL     1       1.868   2.380  19.712  0.00  0.00    +0.000 C 
ATOM     18  C   UNL     1       3.717   3.981  19.414  0.00  0.00    +0.000 C 
ATOM     19  N   UNL     1       4.659   3.381  20.203  0.00  0.00    +0.000 N 
ATOM     20  N   UNL     1       3.734   5.269  19.413  0.00  0.00    +0.000 NA
ATOM     21  H   UNL     1       4.833   2.386  20.240  0.00  0.00    +0.000 HD
ATOM     22  H   UNL     1       5.343   3.993  20.636  0.00  0.00    +0.000 HD
BRANCH  16  23
ATOM     23  C   UNL     1       3.430   2.162  17.718  0.00  0.00    +0.000 C 
ATOM     24  F   UNL     1       4.496   2.744  17.110  0.00  0.00    +0.000 F 
ATOM     25  F   UNL     1       3.916   1.076  18.366  0.00  0.00    +0.000 F 
ATOM     26  F   UNL     1       2.632   1.692  16.725  0.00  0.00    +0.000 F 
ENDBRANCH  16  23
ENDBRANCH   9  12
BRANCH   1  33
ATOM     27  C   UNL     1      -0.921  12.720  18.599  0.00  0.00    +0.000 C 
ATOM     28  C   UNL     1       0.421  13.402  18.577  0.00  0.00    +0.000 A 
ATOM     29  C   UNL     1       0.463  14.808  18.551  0.00  0.00    +0.000 A 
ATOM     30  C   UNL     1       1.686  15.471  18.532  0.00  0.00    +0.000 A 
ATOM     31  C   UNL     1       2.840  14.706  18.547  0.00  0.00    +0.000 A 
ATOM     32  N   UNL     1       2.859  13.348  18.584  0.00  0.00    +0.000 NA
ATOM     33  C   UNL     1       1.641  12.708  18.583  0.00  0.00    +0.000 A 
BRANCH  30  34
ATOM     34  C   UNL     1       1.756  16.902  18.498  0.00  0.00    +0.000 C 
ATOM     35  N   UNL     1       1.812  18.063  18.469  0.00  0.00    +0.000 NA
ENDBRANCH  30  34
ENDBRANCH   1  33
TORSDOF 4
ENDMDL
MODEL 7
REMARK VINA RESULT:      -7.5      3.037      4.167
REMARK  Name = 
REMARK  7 active torsions:
REMARK  status: ('A' for Active; 'I' for Inactive)
REMARK    1  A    between atoms: C_1  and  C_2
REMARK    2  A    between atoms: C_4  and  C_5
REMARK    3  A    between atoms: C_9  and  C_10
REMARK    4  A    between atoms: C_18  and  C_19
REMARK    5  A    between atoms: C_19  and  C_20
REMARK    6  A    between atoms: C_23  and  C_24
REMARK    7  A    between atoms: C_23  and  C_25
REMARK                            x       y       z     vdW  Elec       q    Type
REMARK                         _______ _______ _______ _____ _____    ______ ____
ROOT
ATOM      1  C   UNL     1       0.864  10.536  21.380  0.00  0.00    +0.000 C 
ATOM      2  O   UNL     1       1.205   9.664  22.169  0.00  0.00    +0.000 OA
ATOM      3  N   UNL     1       1.050  10.515  20.010  0.00  0.00    +0.000 N 
ATOM      4  C   UNL     1       1.601   9.458  19.275  0.00  0.00    +0.000 A 
ATOM      5  C   UNL     1       1.956   9.715  17.953  0.00  0.00    +0.000 A 
ATOM      6  C   UNL     1       2.562   8.707  17.205  0.00  0.00    +0.000 A 
ATOM      7  C   UNL     1       2.752   7.461  17.782  0.00  0.00    +0.000 A 
ATOM      8  F   UNL     1       3.392   6.520  17.070  0.00  0.00    +0.000 F 
ATOM      9  C   UNL     1       2.312   7.231  19.084  0.00  0.00    +0.000 A 
ATOM     10  N   UNL     1       1.776   8.240  19.834  0.00  0.00    +0.000 NA
ATOM     11  H   UNL     1       0.793  11.367  19.524  0.00  0.00    +0.000 HD
ENDROOT
BRANCH   9  12
ATOM     12  C   UNL     1       2.498   5.845  19.733  0.00  0.00    +0.000 C 
ATOM     13  C   UNL     1       1.960   5.846  21.182  0.00  0.00    +0.000 C 
ATOM     14  C   UNL     1       4.018   5.559  19.758  0.00  0.00    +0.000 C 
ATOM     15  O   UNL     1       4.506   4.283  19.385  0.00  0.00    +0.000 OA
ATOM     16  C   UNL     1       3.657   3.403  18.660  0.00  0.00    +0.000 C 
ATOM     17  C   UNL     1       4.200   3.380  17.220  0.00  0.00    +0.000 C 
ATOM     18  C   UNL     1       2.167   3.764  18.559  0.00  0.00    +0.000 C 
ATOM     19  N   UNL     1       1.296   2.965  17.872  0.00  0.00    +0.000 N 
ATOM     20  N   UNL     1       1.662   4.844  19.046  0.00  0.00    +0.000 NA
ATOM     21  H   UNL     1       1.516   2.047  17.511  0.00  0.00    +0.000 HD
ATOM     22  H   UNL     1       0.319   3.240  17.890  0.00  0.00    +0.000 HD
BRANCH  16  23
ATOM     23  C   UNL     1       3.779   2.003  19.316  0.00  0.00    +0.000 C 
ATOM     24  F   UNL     1       4.918   1.875  20.044  0.00  0.00    +0.000 F 
ATOM     25  F   UNL     1       2.760   1.720  20.164  0.00  0.00    +0.000 F 
ATOM     26  F   UNL     1       3.799   1.008  18.393  0.00  0.00    +0.000 F 
ENDBRANCH  16  23
ENDBRANCH   9  12
BRANCH   1  33
ATOM     27  C   UNL     1      -1.568  10.562  23.239  0.00  0.00    +0.000 C 
ATOM     28  C   UNL     1      -0.911  11.815  22.727  0.00  0.00    +0.000 A 
ATOM     29  C   UNL     1      -1.440  13.060  23.114  0.00  0.00    +0.000 A 
ATOM     30  C   UNL     1      -0.858  14.240  22.662  0.00  0.00    +0.000 A 
ATOM     31  C   UNL     1       0.250  14.142  21.835  0.00  0.00    +0.000 A 
ATOM     32  N   UNL     1       0.809  12.968  21.440  0.00  0.00    +0.000 NA
ATOM     33  C   UNL     1       0.209  11.812  21.881  0.00  0.00    +0.000 A 
BRANCH  30  34
ATOM     34  C   UNL     1      -1.381  15.520  23.035  0.00  0.00    +0.000 C 
ATOM     35  N   UNL     1      -1.807  16.559  23.336  0.00  0.00    +0.000 NA
ENDBRANCH  30  34
ENDBRANCH   1  33
TORSDOF 4
ENDMDL
MODEL 8
REMARK VINA RESULT:      -7.4      0.986      1.496
REMARK  Name = 
REMARK  7 active torsions:
REMARK  status: ('A' for Active; 'I' for Inactive)
REMARK    1  A    between atoms: C_1  and  C_2
REMARK    2  A    between atoms: C_4  and  C_5
REMARK    3  A    between atoms: C_9  and  C_10
REMARK    4  A    between atoms: C_18  and  C_19
REMARK    5  A    between atoms: C_19  and  C_20
REMARK    6  A    between atoms: C_23  and  C_24
REMARK    7  A    between atoms: C_23  and  C_25
REMARK                            x       y       z     vdW  Elec       q    Type
REMARK                         _______ _______ _______ _____ _____    ______ ____
ROOT
ATOM      1  C   UNL     1       1.299   9.480  18.786  0.00  0.00    +0.000 C 
ATOM      2  O   UNL     1       1.606   9.108  17.661  0.00  0.00    +0.000 OA
ATOM      3  N   UNL     1       1.313   8.709  19.935  0.00  0.00    +0.000 N 
ATOM      4  C   UNL     1       1.749   7.380  20.022  0.00  0.00    +0.000 A 
ATOM      5  C   UNL     1       1.443   6.683  21.188  0.00  0.00    +0.000 A 
ATOM      6  C   UNL     1       1.807   5.342  21.292  0.00  0.00    +0.000 A 
ATOM      7  C   UNL     1       2.505   4.751  20.251  0.00  0.00    +0.000 A 
ATOM      8  F   UNL     1       2.795   3.443  20.339  0.00  0.00    +0.000 F 
ATOM      9  C   UNL     1       2.853   5.511  19.136  0.00  0.00    +0.000 A 
ATOM     10  N   UNL     1       2.440   6.807  19.012  0.00  0.00    +0.000 NA
ATOM     11  H   UNL     1       0.933   9.155  20.761  0.00  0.00    +0.000 HD
ENDROOT
BRANCH   9  12
ATOM     12  C   UNL     1       3.647   4.874  17.978  0.00  0.00    +0.000 C 
ATOM     13  C   UNL     1       2.833   3.737  17.321  0.00  0.00    +0.000 C 
ATOM     14  C   UNL     1       4.939   4.283  18.590  0.00  0.00    +0.000 C 
ATOM     15  O   UNL     1       6.183   4.475  17.941  0.00  0.00    +0.000 OA
ATOM     16  C   UNL     1       6.298   5.488  16.950  0.00  0.00    +0.000 C 
ATOM     17  C   UNL     1       7.127   6.615  17.591  0.00  0.00    +0.000 C 
ATOM     18  C   UNL     1       5.004   6.136  16.434  0.00  0.00    +0.000 C 
ATOM     19  N   UNL     1       5.042   7.121  15.486  0.00  0.00    +0.000 N 
ATOM     20  N   UNL     1       3.834   5.851  16.889  0.00  0.00    +0.000 NA
ATOM     21  H   UNL     1       5.867   7.394  14.970  0.00  0.00    +0.000 HD
ATOM     22  H   UNL     1       4.147   7.468  15.157  0.00  0.00    +0.000 HD
BRANCH  16  23
ATOM     23  C   UNL     1       7.051   4.869  15.745  0.00  0.00    +0.000 C 
ATOM     24  F   UNL     1       7.979   3.956  16.133  0.00  0.00    +0.000 F 
ATOM     25  F   UNL     1       6.233   4.224  14.878  0.00  0.00    +0.000 F 
ATOM     26  F   UNL     1       7.714   5.807  15.022  0.00  0.00    +0.000 F 
ENDBRANCH  16  23
ENDBRANCH   9  12
BRANCH   1  33
ATOM     27  C   UNL     1       2.836  11.970  17.891  0.00  0.00    +0.000 C 
ATOM     28  C   UNL     1       1.516  12.034  18.611  0.00  0.00    +0.000 A 
ATOM     29  C   UNL     1       0.962  13.296  18.892  0.00  0.00    +0.000 A 
ATOM     30  C   UNL     1      -0.257  13.393  19.555  0.00  0.00    +0.000 A 
ATOM     31  C   UNL     1      -0.897  12.218  19.913  0.00  0.00    +0.000 A 
ATOM     32  N   UNL     1      -0.415  10.974  19.656  0.00  0.00    +0.000 NA
ATOM     33  C   UNL     1       0.801  10.897  19.017  0.00  0.00    +0.000 A 
BRANCH  30  34
ATOM     34  C   UNL     1      -0.840  14.666  19.860  0.00  0.00    +0.000 C 
ATOM     35  N   UNL     1      -1.312  15.698  20.110  0.00  0.00    +0.000 NA
ENDBRANCH  30  34
ENDBRANCH   1  33
TORSDOF 4
ENDMDL
MODEL 9
REMARK VINA RESULT:      -7.3      4.825      9.149
REMARK  Name = 
REMARK  7 active torsions:
REMARK  status: ('A' for Active; 'I' for Inactive)
REMARK    1  A    between atoms: C_1  and  C_2
REMARK    2  A    between atoms: C_4  and  C_5
REMARK    3  A    between atoms: C_9  and  C_10
REMARK    4  A    between atoms: C_18  and  C_19
REMARK    5  A    between atoms: C_19  and  C_20
REMARK    6  A    between atoms: C_23  and  C_24
REMARK    7  A    between atoms: C_23  and  C_25
REMARK                            x       y       z     vdW  Elec       q    Type
REMARK                         _______ _______ _______ _____ _____    ______ ____
ROOT
ATOM      1  C   UNL     1       1.961   7.780  19.631  0.00  0.00    +0.000 C 
ATOM      2  O   UNL     1       2.338   8.733  18.962  0.00  0.00    +0.000 OA
ATOM      3  N   UNL     1       1.153   7.838  20.752  0.00  0.00    +0.000 N 
ATOM      4  C   UNL     1       0.565   8.996  21.278  0.00  0.00    +0.000 A 
ATOM      5  C   UNL     1       0.009   8.908  22.552  0.00  0.00    +0.000 A 
ATOM      6  C   UNL     1      -0.533  10.052  23.136  0.00  0.00    +0.000 A 
ATOM      7  C   UNL     1      -0.546  11.235  22.414  0.00  0.00    +0.000 A 
ATOM      8  F   UNL     1      -1.016  12.341  23.012  0.00  0.00    +0.000 F 
ATOM      9  C   UNL     1      -0.045  11.254  21.114  0.00  0.00    +0.000 A 
ATOM     10  N   UNL     1       0.542  10.147  20.570  0.00  0.00    +0.000 NA
ATOM     11  H   UNL     1       1.022   6.959  21.239  0.00  0.00    +0.000 HD
ENDROOT
BRANCH   9  12
ATOM     12  C   UNL     1      -0.071  12.558  20.290  0.00  0.00    +0.000 C 
ATOM     13  C   UNL     1      -1.481  12.807  19.712  0.00  0.00    +0.000 C 
ATOM     14  C   UNL     1       0.930  12.374  19.125  0.00  0.00    +0.000 C 
ATOM     15  O   UNL     1       1.824  13.419  18.786  0.00  0.00    +0.000 OA
ATOM     16  C   UNL     1       2.047  14.468  19.720  0.00  0.00    +0.000 C 
ATOM     17  C   UNL     1       3.460  14.238  20.284  0.00  0.00    +0.000 C 
ATOM     18  C   UNL     1       1.104  14.566  20.928  0.00  0.00    +0.000 C 
ATOM     19  N   UNL     1       1.266  15.546  21.867  0.00  0.00    +0.000 N 
ATOM     20  N   UNL     1       0.163  13.720  21.167  0.00  0.00    +0.000 NA
ATOM     21  H   UNL     1       1.896  16.332  21.780  0.00  0.00    +0.000 HD
ATOM     22  H   UNL     1       0.576  15.580  22.611  0.00  0.00    +0.000 HD
BRANCH  16  23
ATOM     23  C   UNL     1       1.980  15.803  18.935  0.00  0.00    +0.000 C 
ATOM     24  F   UNL     1       2.497  15.690  17.684  0.00  0.00    +0.000 F 
ATOM     25  F   UNL     1       0.716  16.266  18.776  0.00  0.00    +0.000 F 
ATOM     26  F   UNL     1       2.677  16.791  19.551  0.00  0.00    +0.000 F 
ENDBRANCH  16  23
ENDBRANCH   9  12
BRANCH   1  33
ATOM     27  C   UNL     1       3.929   7.153  17.373  0.00  0.00    +0.000 C 
ATOM     28  C   UNL     1       3.316   6.092  18.248  0.00  0.00    +0.000 A 
ATOM     29  C   UNL     1       3.657   4.747  18.015  0.00  0.00    +0.000 A 
ATOM     30  C   UNL     1       3.111   3.740  18.805  0.00  0.00    +0.000 A 
ATOM     31  C   UNL     1       2.239   4.110  19.817  0.00  0.00    +0.000 A 
ATOM     32  N   UNL     1       1.885   5.392  20.093  0.00  0.00    +0.000 NA
ATOM     33  C   UNL     1       2.419   6.373  19.290  0.00  0.00    +0.000 A 
BRANCH  30  34
ATOM     34  C   UNL     1       3.435   2.363  18.585  0.00  0.00    +0.000 C 
ATOM     35  N   UNL     1       3.700   1.244  18.409  0.00  0.00    +0.000 NA
ENDBRANCH  30  34
ENDBRANCH   1  33
TORSDOF 4
ENDMDL
