MODEL 1
REMARK VINA RESULT:      -6.0      0.000      0.000
REMARK  Name = 
REMARK  5 active torsions:
REMARK  status: ('A' for Active; 'I' for Inactive)
REMARK    1  A    between atoms: C_1  and  O_2
REMARK    2  A    between atoms: O_2  and  C_3
REMARK    3  A    between atoms: C_3  and  C_5
REMARK    4  A    between atoms: C_13  and  C_14
REMARK    5  A    between atoms: C_13  and  C_15
REMARK                            x       y       z     vdW  Elec       q    Type
REMARK                         _______ _______ _______ _____ _____    ______ ____
ROOT
ATOM      1  C   UNL     1       5.513   5.771  18.006  0.00  0.00    +0.000 C 
ATOM      2  N   UNL     1       5.260   5.142  16.709  0.00  0.00    +0.000 N 
ATOM      3  C   UNL     1       5.296   5.863  15.548  0.00  0.00    +0.000 C 
ATOM      4  O   UNL     1       4.911   6.990  15.336  0.00  0.00    +0.000 OA
ATOM      5  C   UNL     1       6.249   4.840  14.875  0.00  0.00    +0.000 C 
ATOM      6 CL   UNL     1       5.572   3.993  13.453  0.00  0.00    +0.000 Cl
ATOM      7  C   UNL     1       6.240   4.142  16.256  0.00  0.00    +0.000 C 
ATOM      8  S   UNL     1       7.745   4.422  17.282  0.00  0.00    +0.000 S 
ATOM      9  C   UNL     1       7.053   5.922  18.152  0.00  0.00    +0.000 C 
ATOM     10  C   UNL     1       7.524   5.942  19.615  0.00  0.00    +0.000 C 
ENDROOT
BRANCH   1  11
ATOM     11  C   UNL     1       4.872   4.872  19.077  0.00  0.00    +0.000 C 
ATOM     12  O   UNL     1       5.212   3.724  19.334  0.00  0.00    +0.000 OA
BRANCH  11  14
ATOM     13  C   UNL     1       2.822   4.725  20.201  0.00  0.00    +0.000 C 
ATOM     14  O   UNL     1       3.890   5.555  19.736  0.00  0.00    +0.000 OA
ENDBRANCH  11  14
ENDBRANCH   1  11
BRANCH   9  15
ATOM     15  C   UNL     1       7.540   7.214  17.436  0.00  0.00    +0.000 C 
ATOM     16 CL   UNL     1       8.430   8.360  18.485  0.00  0.00    +0.000 Cl
ENDBRANCH   9  15
TORSDOF 3
ENDMDL
MODEL 2
REMARK VINA RESULT:      -6.0      2.022      3.851
REMARK  Name = 
REMARK  5 active torsions:
REMARK  status: ('A' for Active; 'I' for Inactive)
REMARK    1  A    between atoms: C_1  and  O_2
REMARK    2  A    between atoms: O_2  and  C_3
REMARK    3  A    between atoms: C_3  and  C_5
REMARK    4  A    between atoms: C_13  and  C_14
REMARK    5  A    between atoms: C_13  and  C_15
REMARK                            x       y       z     vdW  Elec       q    Type
REMARK                         _______ _______ _______ _____ _____    ______ ____
ROOT
ATOM      1  C   UNL     1       5.188   4.166  18.521  0.00  0.00    +0.000 C 
ATOM      2  N   UNL     1       6.106   5.286  18.737  0.00  0.00    +0.000 N 
ATOM      3  C   UNL     1       7.378   5.270  18.237  0.00  0.00    +0.000 C 
ATOM      4  O   UNL     1       8.156   4.347  18.155  0.00  0.00    +0.000 OA
ATOM      5  C   UNL     1       7.206   6.674  17.599  0.00  0.00    +0.000 C 
ATOM      6 CL   UNL     1       8.279   7.944  18.257  0.00  0.00    +0.000 Cl
ATOM      7  C   UNL     1       5.748   6.566  18.106  0.00  0.00    +0.000 C 
ATOM      8  S   UNL     1       4.501   6.151  16.814  0.00  0.00    +0.000 S 
ATOM      9  C   UNL     1       4.621   4.308  17.081  0.00  0.00    +0.000 C 
ATOM     10  C   UNL     1       3.235   3.664  16.910  0.00  0.00    +0.000 C 
ENDROOT
BRANCH   1  11
ATOM     11  C   UNL     1       4.117   4.242  19.622  0.00  0.00    +0.000 C 
ATOM     12  O   UNL     1       3.504   5.252  19.946  0.00  0.00    +0.000 OA
BRANCH  11  14
ATOM     13  C   UNL     1       2.539   2.713  20.434  0.00  0.00    +0.000 C 
ATOM     14  O   UNL     1       3.913   3.005  20.164  0.00  0.00    +0.000 OA
ENDBRANCH  11  14
ENDBRANCH   1  11
BRANCH   9  15
ATOM     15  C   UNL     1       5.606   3.692  16.048  0.00  0.00    +0.000 C 
ATOM     16 CL   UNL     1       5.909   4.708  14.605  0.00  0.00    +0.000 Cl
ENDBRANCH   9  15
TORSDOF 3
ENDMDL
MODEL 3
REMARK VINA RESULT:      -5.8      3.256      4.569
REMARK  Name = 
REMARK  5 active torsions:
REMARK  status: ('A' for Active; 'I' for Inactive)
REMARK    1  A    between atoms: C_1  and  O_2
REMARK    2  A    between atoms: O_2  and  C_3
REMARK    3  A    between atoms: C_3  and  C_5
REMARK    4  A    between atoms: C_13  and  C_14
REMARK    5  A    between atoms: C_13  and  C_15
REMARK                            x       y       z     vdW  Elec       q    Type
REMARK                         _______ _______ _______ _____ _____    ______ ____
ROOT
ATOM      1  C   UNL     1       3.422   5.608  19.538  0.00  0.00    +0.000 C 
ATOM      2  N   UNL     1       4.519   5.692  18.572  0.00  0.00    +0.000 N 
ATOM      3  C   UNL     1       5.720   5.080  18.803  0.00  0.00    +0.000 C 
ATOM      4  O   UNL     1       6.334   4.969  19.839  0.00  0.00    +0.000 OA
ATOM      5  C   UNL     1       5.706   4.400  17.409  0.00  0.00    +0.000 C 
ATOM      6 CL   UNL     1       7.020   4.902  16.305  0.00  0.00    +0.000 Cl
ATOM      7  C   UNL     1       4.304   5.040  17.270  0.00  0.00    +0.000 C 
ATOM      8  S   UNL     1       2.890   3.885  17.520  0.00  0.00    +0.000 S 
ATOM      9  C   UNL     1       2.749   4.221  19.351  0.00  0.00    +0.000 C 
ATOM     10  C   UNL     1       1.270   4.204  19.773  0.00  0.00    +0.000 C 
ENDROOT
BRANCH   1  11
ATOM     11  C   UNL     1       2.487   6.797  19.263  0.00  0.00    +0.000 C 
ATOM     12  O   UNL     1       2.260   7.279  18.159  0.00  0.00    +0.000 OA
BRANCH  11  14
ATOM     13  C   UNL     1       1.386   8.549  20.363  0.00  0.00    +0.000 C 
ATOM     14  O   UNL     1       1.906   7.217  20.425  0.00  0.00    +0.000 OA
ENDBRANCH  11  14
ENDBRANCH   1  11
BRANCH   9  15
ATOM     15  C   UNL     1       3.523   3.131  20.145  0.00  0.00    +0.000 C 
ATOM     16 CL   UNL     1       2.696   2.553  21.624  0.00  0.00    +0.000 Cl
ENDBRANCH   9  15
TORSDOF 3
ENDMDL
MODEL 4
REMARK VINA RESULT:      -5.8      3.360      4.746
REMARK  Name = 
REMARK  5 active torsions:
REMARK  status: ('A' for Active; 'I' for Inactive)
REMARK    1  A    between atoms: C_1  and  O_2
REMARK    2  A    between atoms: O_2  and  C_3
REMARK    3  A    between atoms: C_3  and  C_5
REMARK    4  A    between atoms: C_13  and  C_14
REMARK    5  A    between atoms: C_13  and  C_15
REMARK                            x       y       z     vdW  Elec       q    Type
REMARK                         _______ _______ _______ _____ _____    ______ ____
ROOT
ATOM      1  C   UNL     1       3.365   5.502  19.566  0.00  0.00    +0.000 C 
ATOM      2  N   UNL     1       4.222   5.321  18.393  0.00  0.00    +0.000 N 
ATOM      3  C   UNL     1       5.296   4.476  18.418  0.00  0.00    +0.000 C 
ATOM      4  O   UNL     1       6.084   4.269  19.312  0.00  0.00    +0.000 OA
ATOM      5  C   UNL     1       4.846   3.772  17.111  0.00  0.00    +0.000 C 
ATOM      6 CL   UNL     1       5.964   3.950  15.728  0.00  0.00    +0.000 Cl
ATOM      7  C   UNL     1       3.605   4.690  17.215  0.00  0.00    +0.000 C 
ATOM      8  S   UNL     1       2.076   3.869  17.835  0.00  0.00    +0.000 S 
ATOM      9  C   UNL     1       2.403   4.283  19.625  0.00  0.00    +0.000 C 
ATOM     10  C   UNL     1       1.077   4.592  20.341  0.00  0.00    +0.000 C 
ENDROOT
BRANCH   1  11
ATOM     11  C   UNL     1       2.650   6.853  19.399  0.00  0.00    +0.000 C 
ATOM     12  O   UNL     1       1.940   7.387  20.243  0.00  0.00    +0.000 OA
BRANCH  11  14
ATOM     13  C   UNL     1       2.148   8.529  17.841  0.00  0.00    +0.000 C 
ATOM     14  O   UNL     1       2.954   7.398  18.185  0.00  0.00    +0.000 OA
ENDBRANCH  11  14
ENDBRANCH   1  11
BRANCH   9  15
ATOM     15  C   UNL     1       3.095   3.079  20.324  0.00  0.00    +0.000 C 
ATOM     16 CL   UNL     1       2.259   2.481  21.789  0.00  0.00    +0.000 Cl
ENDBRANCH   9  15
TORSDOF 3
ENDMDL
MODEL 5
REMARK VINA RESULT:      -5.7      3.659      5.081
REMARK  Name = 
REMARK  5 active torsions:
REMARK  status: ('A' for Active; 'I' for Inactive)
REMARK    1  A    between atoms: C_1  and  O_2
REMARK    2  A    between atoms: O_2  and  C_3
REMARK    3  A    between atoms: C_3  and  C_5
REMARK    4  A    between atoms: C_13  and  C_14
REMARK    5  A    between atoms: C_13  and  C_15
REMARK                            x       y       z     vdW  Elec       q    Type
REMARK                         _______ _______ _______ _____ _____    ______ ____
ROOT
ATOM      1  C   UNL     1       2.490   5.963  18.080  0.00  0.00    +0.000 C 
ATOM      2  N   UNL     1       2.014   5.070  19.138  0.00  0.00    +0.000 N 
ATOM      3  C   UNL     1       1.646   3.781  18.870  0.00  0.00    +0.000 C 
ATOM      4  O   UNL     1       1.053   3.339  17.913  0.00  0.00    +0.000 OA
ATOM      5  C   UNL     1       2.540   3.227  20.010  0.00  0.00    +0.000 C 
ATOM      6 CL   UNL     1       1.662   2.415  21.338  0.00  0.00    +0.000 Cl
ATOM      7  C   UNL     1       2.988   4.700  20.177  0.00  0.00    +0.000 C 
ATOM      8  S   UNL     1       4.643   5.097  19.472  0.00  0.00    +0.000 S 
ATOM      9  C   UNL     1       3.974   5.599  17.803  0.00  0.00    +0.000 C 
ATOM     10  C   UNL     1       4.793   6.774  17.244  0.00  0.00    +0.000 C 
ENDROOT
BRANCH   1  11
ATOM     11  C   UNL     1       2.285   7.403  18.579  0.00  0.00    +0.000 C 
ATOM     12  O   UNL     1       2.362   7.766  19.746  0.00  0.00    +0.000 OA
BRANCH  11  14
ATOM     13  C   UNL     1       1.913   9.612  17.892  0.00  0.00    +0.000 C 
ATOM     14  O   UNL     1       2.044   8.236  17.524  0.00  0.00    +0.000 OA
ENDBRANCH  11  14
ENDBRANCH   1  11
BRANCH   9  15
ATOM     15  C   UNL     1       4.064   4.397  16.821  0.00  0.00    +0.000 C 
ATOM     16 CL   UNL     1       5.327   4.552  15.561  0.00  0.00    +0.000 Cl
ENDBRANCH   9  15
TORSDOF 3
ENDMDL
MODEL 6
REMARK VINA RESULT:      -5.7      3.225      5.070
REMARK  Name = 
REMARK  5 active torsions:
REMARK  status: ('A' for Active; 'I' for Inactive)
REMARK    1  A    between atoms: C_1  and  O_2
REMARK    2  A    between atoms: O_2  and  C_3
REMARK    3  A    between atoms: C_3  and  C_5
REMARK    4  A    between atoms: C_13  and  C_14
REMARK    5  A    between atoms: C_13  and  C_15
REMARK                            x       y       z     vdW  Elec       q    Type
REMARK                         _______ _______ _______ _____ _____    ______ ____
ROOT
ATOM      1  C   UNL     1       2.861   3.728  19.754  0.00  0.00    +0.000 C 
ATOM      2  N   UNL     1       3.678   4.849  19.286  0.00  0.00    +0.000 N 
ATOM      3  C   UNL     1       4.849   4.645  18.611  0.00  0.00    +0.000 C 
ATOM      4  O   UNL     1       5.698   3.802  18.790  0.00  0.00    +0.000 OA
ATOM      5  C   UNL     1       4.430   5.614  17.475  0.00  0.00    +0.000 C 
ATOM      6 CL   UNL     1       5.452   7.071  17.302  0.00  0.00    +0.000 Cl
ATOM      7  C   UNL     1       3.090   5.706  18.245  0.00  0.00    +0.000 C 
ATOM      8  S   UNL     1       1.705   4.730  17.521  0.00  0.00    +0.000 S 
ATOM      9  C   UNL     1       2.061   3.201  18.531  0.00  0.00    +0.000 C 
ATOM     10  C   UNL     1       0.742   2.513  18.921  0.00  0.00    +0.000 C 
ENDROOT
BRANCH   1  11
ATOM     11  C   UNL     1       1.977   4.258  20.895  0.00  0.00    +0.000 C 
ATOM     12  O   UNL     1       1.229   5.225  20.820  0.00  0.00    +0.000 OA
BRANCH  11  14
ATOM     13  C   UNL     1       2.834   2.255  21.759  0.00  0.00    +0.000 C 
ATOM     14  O   UNL     1       2.113   3.467  22.000  0.00  0.00    +0.000 OA
ENDBRANCH  11  14
ENDBRANCH   1  11
BRANCH   9  15
ATOM     15  C   UNL     1       2.929   2.214  17.699  0.00  0.00    +0.000 C 
ATOM     16 CL   UNL     1       3.818   0.999  18.669  0.00  0.00    +0.000 Cl
ENDBRANCH   9  15
TORSDOF 3
ENDMDL
MODEL 7
REMARK VINA RESULT:      -5.6      1.951      3.771
REMARK  Name = 
REMARK  5 active torsions:
REMARK  status: ('A' for Active; 'I' for Inactive)
REMARK    1  A    between atoms: C_1  and  O_2
REMARK    2  A    between atoms: O_2  and  C_3
REMARK    3  A    between atoms: C_3  and  C_5
REMARK    4  A    between atoms: C_13  and  C_14
REMARK    5  A    between atoms: C_13  and  C_15
REMARK                            x       y       z     vdW  Elec       q    Type
REMARK                         _______ _______ _______ _____ _____    ______ ____
ROOT
ATOM      1  C   UNL     1       5.318   4.054  18.418  0.00  0.00    +0.000 C 
ATOM      2  N   UNL     1       6.202   5.196  18.659  0.00  0.00    +0.000 N 
ATOM      3  C   UNL     1       7.466   5.240  18.142  0.00  0.00    +0.000 C 
ATOM      4  O   UNL     1       8.273   4.347  18.020  0.00  0.00    +0.000 OA
ATOM      5  C   UNL     1       7.238   6.657  17.553  0.00  0.00    +0.000 C 
ATOM      6 CL   UNL     1       8.277   7.941  18.238  0.00  0.00    +0.000 Cl
ATOM      7  C   UNL     1       5.792   6.483  18.075  0.00  0.00    +0.000 C 
ATOM      8  S   UNL     1       4.541   6.068  16.787  0.00  0.00    +0.000 S 
ATOM      9  C   UNL     1       4.727   4.222  16.992  0.00  0.00    +0.000 C 
ATOM     10  C   UNL     1       3.361   3.537  16.817  0.00  0.00    +0.000 C 
ENDROOT
BRANCH   1  11
ATOM     11  C   UNL     1       4.261   4.057  19.535  0.00  0.00    +0.000 C 
ATOM     12  O   UNL     1       3.841   3.064  20.115  0.00  0.00    +0.000 OA
BRANCH  11  14
ATOM     13  C   UNL     1       2.480   5.495  20.036  0.00  0.00    +0.000 C 
ATOM     14  O   UNL     1       3.886   5.338  19.823  0.00  0.00    +0.000 OA
ENDBRANCH  11  14
ENDBRANCH   1  11
BRANCH   9  15
ATOM     15  C   UNL     1       5.717   3.673  15.926  0.00  0.00    +0.000 C 
ATOM     16 CL   UNL     1       5.684   4.538  14.358  0.00  0.00    +0.000 Cl
ENDBRANCH   9  15
TORSDOF 3
ENDMDL
MODEL 8
REMARK VINA RESULT:      -5.6      2.546      4.202
REMARK  Name = 
REMARK  5 active torsions:
REMARK  status: ('A' for Active; 'I' for Inactive)
REMARK    1  A    between atoms: C_1  and  O_2
REMARK    2  A    between atoms: O_2  and  C_3
REMARK    3  A    between atoms: C_3  and  C_5
REMARK    4  A    between atoms: C_13  and  C_14
REMARK    5  A    between atoms: C_13  and  C_15
REMARK                            x       y       z     vdW  Elec       q    Type
REMARK                         _______ _______ _______ _____ _____    ______ ____
ROOT
ATOM      1  C   UNL     1       6.331   4.528  17.125  0.00  0.00    +0.000 C 
ATOM      2  N   UNL     1       4.952   4.037  17.178  0.00  0.00    +0.000 N 
ATOM      3  C   UNL     1       4.441   3.472  18.314  0.00  0.00    +0.000 C 
ATOM      4  O   UNL     1       4.978   2.737  19.110  0.00  0.00    +0.000 OA
ATOM      5  C   UNL     1       3.188   4.386  18.273  0.00  0.00    +0.000 C 
ATOM      6 CL   UNL     1       1.633   3.535  18.044  0.00  0.00    +0.000 Cl
ATOM      7  C   UNL     1       3.887   5.044  17.059  0.00  0.00    +0.000 C 
ATOM      8  S   UNL     1       4.694   6.664  17.406  0.00  0.00    +0.000 S 
ATOM      9  C   UNL     1       6.352   5.916  17.822  0.00  0.00    +0.000 C 
ATOM     10  C   UNL     1       7.480   6.830  17.317  0.00  0.00    +0.000 C 
ENDROOT
BRANCH   1  11
ATOM     11  C   UNL     1       6.738   4.569  15.642  0.00  0.00    +0.000 C 
ATOM     12  O   UNL     1       7.564   5.331  15.156  0.00  0.00    +0.000 OA
BRANCH  11  14
ATOM     13  C   UNL     1       6.097   3.788  13.528  0.00  0.00    +0.000 C 
ATOM     14  O   UNL     1       6.075   3.599  14.946  0.00  0.00    +0.000 OA
ENDBRANCH  11  14
ENDBRANCH   1  11
BRANCH   9  15
ATOM     15  C   UNL     1       6.479   5.747  19.363  0.00  0.00    +0.000 C 
ATOM     16 CL   UNL     1       8.158   5.583  19.963  0.00  0.00    +0.000 Cl
ENDBRANCH   9  15
TORSDOF 3
ENDMDL
MODEL 9
REMARK VINA RESULT:      -5.6      3.516      4.963
REMARK  Name = 
REMARK  5 active torsions:
REMARK  status: ('A' for Active; 'I' for Inactive)
REMARK    1  A    between atoms: C_1  and  O_2
REMARK    2  A    between atoms: O_2  and  C_3
REMARK    3  A    between atoms: C_3  and  C_5
REMARK    4  A    between atoms: C_13  and  C_14
REMARK    5  A    between atoms: C_13  and  C_15
REMARK                            x       y       z     vdW  Elec       q    Type
REMARK                         _______ _______ _______ _____ _____    ______ ____
ROOT
ATOM      1  C   UNL     1       2.629   5.925  17.970  0.00  0.00    +0.000 C 
ATOM      2  N   UNL     1       2.121   5.109  19.075  0.00  0.00    +0.000 N 
ATOM      3  C   UNL     1       1.696   3.825  18.876  0.00  0.00    +0.000 C 
ATOM      4  O   UNL     1       1.079   3.360  17.945  0.00  0.00    +0.000 OA
ATOM      5  C   UNL     1       2.573   3.294  20.041  0.00  0.00    +0.000 C 
ATOM      6 CL   UNL     1       1.668   2.590  21.413  0.00  0.00    +0.000 Cl
ATOM      7  C   UNL     1       3.084   4.752  20.129  0.00  0.00    +0.000 C 
ATOM      8  S   UNL     1       4.751   5.040  19.398  0.00  0.00    +0.000 S 
ATOM      9  C   UNL     1       4.094   5.483  17.707  0.00  0.00    +0.000 C 
ATOM     10  C   UNL     1       4.959   6.590  17.084  0.00  0.00    +0.000 C 
ENDROOT
BRANCH   1  11
ATOM     11  C   UNL     1       2.488   7.396  18.394  0.00  0.00    +0.000 C 
ATOM     12  O   UNL     1       2.503   8.356  17.633  0.00  0.00    +0.000 OA
BRANCH  11  14
ATOM     13  C   UNL     1       1.433   8.547  20.140  0.00  0.00    +0.000 C 
ATOM     14  O   UNL     1       2.299   7.480  19.743  0.00  0.00    +0.000 OA
ENDBRANCH  11  14
ENDBRANCH   1  11
BRANCH   9  15
ATOM     15  C   UNL     1       4.126   4.228  16.789  0.00  0.00    +0.000 C 
ATOM     16 CL   UNL     1       5.438   4.226  15.570  0.00  0.00    +0.000 Cl
ENDBRANCH   9  15
TORSDOF 3
ENDMDL
