MODEL 1
REMARK VINA RESULT:      -7.6      0.000      0.000
REMARK  Name = 
REMARK  5 active torsions:
REMARK  status: ('A' for Active; 'I' for Inactive)
REMARK    1  A    between atoms: S_2  and  C_4
REMARK    2  A    between atoms: S_2  and  C_11
REMARK    3  A    between atoms: C_15  and  C_16
REMARK    4  A    between atoms: C_16  and  C_17
REMARK    5  A    between atoms: C_17  and  O_18
REMARK                            x       y       z     vdW  Elec       q    Type
REMARK                         _______ _______ _______ _____ _____    ______ ____
ROOT
ATOM      1  C   UNL     1       2.781   5.991  18.733  0.00  0.00    +0.000 C 
ATOM      2  C   UNL     1       1.832   5.380  17.701  0.00  0.00    +0.000 C 
ATOM      3  C   UNL     1       1.942   3.869  17.580  0.00  0.00    +0.000 C 
ATOM      4  O   UNL     1       2.601   3.216  18.652  0.00  0.00    +0.000 OA
ATOM      5  C   UNL     1       2.400   3.709  19.962  0.00  0.00    +0.000 C 
ATOM      6  C   UNL     1       2.601   5.228  20.083  0.00  0.00    +0.000 C 
ATOM      7  C   UNL     1       1.466   5.748  20.959  0.00  0.00    +0.000 C 
ATOM      8  O   UNL     1       1.675   7.107  21.273  0.00  0.00    +0.000 OA
ATOM      9  C   UNL     1       1.726   7.874  20.145  0.00  0.00    +0.000 A 
ATOM     10  C   UNL     1       1.039   9.089  20.245  0.00  0.00    +0.000 A 
ATOM     11  F   UNL     1       0.338   9.379  21.355  0.00  0.00    +0.000 F 
ATOM     12  C   UNL     1       0.971   9.956  19.173  0.00  0.00    +0.000 A 
ATOM     13  C   UNL     1       1.661   9.623  18.010  0.00  0.00    +0.000 A 
ATOM     14  C   UNL     1       2.349   8.405  17.915  0.00  0.00    +0.000 A 
ATOM     15  F   UNL     1       2.893   8.099  16.732  0.00  0.00    +0.000 F 
ATOM     16  C   UNL     1       2.375   7.466  18.954  0.00  0.00    +0.000 A 
ENDROOT
BRANCH   1  18
ATOM     17  O   UNL     1       5.192   4.773  19.128  0.00  0.00    +0.000 OA
ATOM     18  S   UNL     1       4.574   5.767  18.265  0.00  0.00    +0.000 S 
ATOM     19  O   UNL     1       5.170   7.098  18.261  0.00  0.00    +0.000 OA
BRANCH  18  20
ATOM     20  C   UNL     1       4.892   5.100  16.615  0.00  0.00    +0.000 A 
ATOM     21  C   UNL     1       5.114   6.020  15.583  0.00  0.00    +0.000 A 
ATOM     22  C   UNL     1       5.728   5.630  14.390  0.00  0.00    +0.000 A 
ATOM     23  C   UNL     1       6.149   4.314  14.214  0.00  0.00    +0.000 A 
ATOM     24 CL   UNL     1       6.968   3.867  12.769  0.00  0.00    +0.000 Cl
ATOM     25  C   UNL     1       5.947   3.379  15.238  0.00  0.00    +0.000 A 
ATOM     26  C   UNL     1       5.344   3.772  16.441  0.00  0.00    +0.000 A 
ENDBRANCH  18  20
ENDBRANCH   1  18
BRANCH   5  27
ATOM     27  C   UNL     1       3.421   3.076  20.927  0.00  0.00    +0.000 C 
BRANCH  27  28
ATOM     28  C   UNL     1       4.073   1.798  20.447  0.00  0.00    +0.000 C 
BRANCH  28  29
ATOM     29  O   UNL     1       5.265   2.141  19.740  0.00  0.00    +0.000 OA
ATOM     30  H   UNL     1       5.054   2.912  19.183  0.00  0.00    +0.000 HD
ENDBRANCH  28  29
ENDBRANCH  27  28
ENDBRANCH   5  27
TORSDOF 5
ENDMDL
MODEL 2
REMARK VINA RESULT:      -7.5      0.755      1.170
REMARK  Name = 
REMARK  5 active torsions:
REMARK  status: ('A' for Active; 'I' for Inactive)
REMARK    1  A    between atoms: S_2  and  C_4
REMARK    2  A    between atoms: S_2  and  C_11
REMARK    3  A    between atoms: C_15  and  C_16
REMARK    4  A    between atoms: C_16  and  C_17
REMARK    5  A    between atoms: C_17  and  O_18
REMARK                            x       y       z     vdW  Elec       q    Type
REMARK                         _______ _______ _______ _____ _____    ______ ____
ROOT
ATOM      1  C   UNL     1       3.229   5.515  18.698  0.00  0.00    +0.000 C 
ATOM      2  C   UNL     1       2.449   4.903  17.533  0.00  0.00    +0.000 C 
ATOM      3  C   UNL     1       2.620   3.399  17.399  0.00  0.00    +0.000 C 
ATOM      4  O   UNL     1       3.147   2.739  18.537  0.00  0.00    +0.000 OA
ATOM      5  C   UNL     1       2.754   3.195  19.818  0.00  0.00    +0.000 C 
ATOM      6  C   UNL     1       2.889   4.715  19.995  0.00  0.00    +0.000 C 
ATOM      7  C   UNL     1       1.630   5.182  20.717  0.00  0.00    +0.000 C 
ATOM      8  O   UNL     1       1.753   6.539  21.083  0.00  0.00    +0.000 OA
ATOM      9  C   UNL     1       1.934   7.334  19.989  0.00  0.00    +0.000 A 
ATOM     10  C   UNL     1       1.203   8.527  20.018  0.00  0.00    +0.000 A 
ATOM     11  F   UNL     1       0.348   8.771  21.027  0.00  0.00    +0.000 F 
ATOM     12  C   UNL     1       1.255   9.417  18.964  0.00  0.00    +0.000 A 
ATOM     13  C   UNL     1       2.108   9.132  17.900  0.00  0.00    +0.000 A 
ATOM     14  C   UNL     1       2.840   7.936  17.877  0.00  0.00    +0.000 A 
ATOM     15  F   UNL     1       3.549   7.672  16.774  0.00  0.00    +0.000 F 
ATOM     16  C   UNL     1       2.751   6.973  18.890  0.00  0.00    +0.000 A 
ENDROOT
BRANCH   1  18
ATOM     17  O   UNL     1       5.566   4.207  19.228  0.00  0.00    +0.000 OA
ATOM     18  S   UNL     1       5.075   5.352  18.476  0.00  0.00    +0.000 S 
ATOM     19  O   UNL     1       5.648   6.652  18.806  0.00  0.00    +0.000 OA
BRANCH  18  20
ATOM     20  C   UNL     1       5.650   4.991  16.801  0.00  0.00    +0.000 A 
ATOM     21  C   UNL     1       5.907   3.650  16.486  0.00  0.00    +0.000 A 
ATOM     22  C   UNL     1       5.983   3.225  15.157  0.00  0.00    +0.000 A 
ATOM     23  C   UNL     1       5.786   4.130  14.117  0.00  0.00    +0.000 A 
ATOM     24 CL   UNL     1       5.810   3.576  12.489  0.00  0.00    +0.000 Cl
ATOM     25  C   UNL     1       5.515   5.473  14.409  0.00  0.00    +0.000 A 
ATOM     26  C   UNL     1       5.425   5.899  15.741  0.00  0.00    +0.000 A 
ENDBRANCH  18  20
ENDBRANCH   1  18
BRANCH   5  27
ATOM     27  C   UNL     1       3.651   2.567  20.901  0.00  0.00    +0.000 C 
BRANCH  27  28
ATOM     28  C   UNL     1       4.668   1.560  20.409  0.00  0.00    +0.000 C 
BRANCH  28  29
ATOM     29  O   UNL     1       5.575   1.281  21.476  0.00  0.00    +0.000 OA
ATOM     30  H   UNL     1       5.111   1.494  22.306  0.00  0.00    +0.000 HD
ENDBRANCH  28  29
ENDBRANCH  27  28
ENDBRANCH   5  27
TORSDOF 5
ENDMDL
MODEL 3
REMARK VINA RESULT:      -7.4      1.015      1.062
REMARK  Name = 
REMARK  5 active torsions:
REMARK  status: ('A' for Active; 'I' for Inactive)
REMARK    1  A    between atoms: S_2  and  C_4
REMARK    2  A    between atoms: S_2  and  C_11
REMARK    3  A    between atoms: C_15  and  C_16
REMARK    4  A    between atoms: C_16  and  C_17
REMARK    5  A    between atoms: C_17  and  O_18
REMARK                            x       y       z     vdW  Elec       q    Type
REMARK                         _______ _______ _______ _____ _____    ______ ____
ROOT
ATOM      1  C   UNL     1       3.116   5.238  18.793  0.00  0.00    +0.000 C 
ATOM      2  C   UNL     1       2.218   4.620  17.720  0.00  0.00    +0.000 C 
ATOM      3  C   UNL     1       2.276   3.103  17.666  0.00  0.00    +0.000 C 
ATOM      4  O   UNL     1       2.832   2.471  18.806  0.00  0.00    +0.000 OA
ATOM      5  C   UNL     1       2.560   3.024  20.079  0.00  0.00    +0.000 C 
ATOM      6  C   UNL     1       2.811   4.538  20.156  0.00  0.00    +0.000 C 
ATOM      7  C   UNL     1       1.640   5.135  20.927  0.00  0.00    +0.000 C 
ATOM      8  O   UNL     1       1.880   6.498  21.203  0.00  0.00    +0.000 OA
ATOM      9  C   UNL     1       2.040   7.215  20.053  0.00  0.00    +0.000 A 
ATOM     10  C   UNL     1       1.396   8.458  20.057  0.00  0.00    +0.000 A 
ATOM     11  F   UNL     1       0.631   8.819  21.102  0.00  0.00    +0.000 F 
ATOM     12  C   UNL     1       1.438   9.282  18.950  0.00  0.00    +0.000 A 
ATOM     13  C   UNL     1       2.194   8.876  17.852  0.00  0.00    +0.000 A 
ATOM     14  C   UNL     1       2.838   7.631  17.854  0.00  0.00    +0.000 A 
ATOM     15  F   UNL     1       3.451   7.256  16.726  0.00  0.00    +0.000 F 
ATOM     16  C   UNL     1       2.754   6.735  18.928  0.00  0.00    +0.000 A 
ENDROOT
BRANCH   1  18
ATOM     17  O   UNL     1       5.248   3.535  18.722  0.00  0.00    +0.000 OA
ATOM     18  S   UNL     1       4.927   4.929  18.463  0.00  0.00    +0.000 S 
ATOM     19  O   UNL     1       5.664   5.928  19.229  0.00  0.00    +0.000 OA
BRANCH  18  20
ATOM     20  C   UNL     1       5.475   5.143  16.754  0.00  0.00    +0.000 A 
ATOM     21  C   UNL     1       6.666   5.850  16.546  0.00  0.00    +0.000 A 
ATOM     22  C   UNL     1       7.362   5.749  15.339  0.00  0.00    +0.000 A 
ATOM     23  C   UNL     1       6.890   4.923  14.322  0.00  0.00    +0.000 A 
ATOM     24 CL   UNL     1       7.797   4.753  12.871  0.00  0.00    +0.000 Cl
ATOM     25  C   UNL     1       5.707   4.196  14.513  0.00  0.00    +0.000 A 
ATOM     26  C   UNL     1       5.015   4.286  15.729  0.00  0.00    +0.000 A 
ENDBRANCH  18  20
ENDBRANCH   1  18
BRANCH   5  27
ATOM     27  C   UNL     1       3.484   2.394  21.138  0.00  0.00    +0.000 C 
BRANCH  27  28
ATOM     28  C   UNL     1       4.619   1.549  20.601  0.00  0.00    +0.000 C 
BRANCH  28  29
ATOM     29  O   UNL     1       5.531   1.293  21.668  0.00  0.00    +0.000 OA
ATOM     30  H   UNL     1       5.786   0.354  21.606  0.00  0.00    +0.000 HD
ENDBRANCH  28  29
ENDBRANCH  27  28
ENDBRANCH   5  27
TORSDOF 5
ENDMDL
MODEL 4
REMARK VINA RESULT:      -7.3      1.188      1.454
REMARK  Name = 
REMARK  5 active torsions:
REMARK  status: ('A' for Active; 'I' for Inactive)
REMARK    1  A    between atoms: S_2  and  C_4
REMARK    2  A    between atoms: S_2  and  C_11
REMARK    3  A    between atoms: C_15  and  C_16
REMARK    4  A    between atoms: C_16  and  C_17
REMARK    5  A    between atoms: C_17  and  O_18
REMARK                            x       y       z     vdW  Elec       q    Type
REMARK                         _______ _______ _______ _____ _____    ______ ____
ROOT
ATOM      1  C   UNL     1       3.324   5.039  18.840  0.00  0.00    +0.000 C 
ATOM      2  C   UNL     1       2.622   4.361  17.663  0.00  0.00    +0.000 C 
ATOM      3  C   UNL     1       2.602   2.844  17.748  0.00  0.00    +0.000 C 
ATOM      4  O   UNL     1       2.885   2.299  19.026  0.00  0.00    +0.000 OA
ATOM      5  C   UNL     1       2.399   2.980  20.167  0.00  0.00    +0.000 C 
ATOM      6  C   UNL     1       2.717   4.483  20.166  0.00  0.00    +0.000 C 
ATOM      7  C   UNL     1       1.453   5.195  20.633  0.00  0.00    +0.000 C 
ATOM      8  O   UNL     1       1.712   6.567  20.837  0.00  0.00    +0.000 OA
ATOM      9  C   UNL     1       2.138   7.167  19.688  0.00  0.00    +0.000 A 
ATOM     10  C   UNL     1       1.578   8.430  19.458  0.00  0.00    +0.000 A 
ATOM     11  F   UNL     1       0.644   8.917  20.293  0.00  0.00    +0.000 F 
ATOM     12  C   UNL     1       1.885   9.144  18.317  0.00  0.00    +0.000 A 
ATOM     13  C   UNL     1       2.818   8.609  17.433  0.00  0.00    +0.000 A 
ATOM     14  C   UNL     1       3.377   7.344  17.668  0.00  0.00    +0.000 A 
ATOM     15  F   UNL     1       4.177   6.841  16.722  0.00  0.00    +0.000 F 
ATOM     16  C   UNL     1       3.030   6.556  18.773  0.00  0.00    +0.000 A 
ENDROOT
BRANCH   1  18
ATOM     17  O   UNL     1       5.335   3.320  19.512  0.00  0.00    +0.000 OA
ATOM     18  S   UNL     1       5.144   4.630  18.909  0.00  0.00    +0.000 S 
ATOM     19  O   UNL     1       5.798   5.757  19.563  0.00  0.00    +0.000 OA
BRANCH  18  20
ATOM     20  C   UNL     1       5.984   4.451  17.319  0.00  0.00    +0.000 A 
ATOM     21  C   UNL     1       5.267   3.846  16.279  0.00  0.00    +0.000 A 
ATOM     22  C   UNL     1       5.664   3.997  14.948  0.00  0.00    +0.000 A 
ATOM     23  C   UNL     1       6.776   4.771  14.629  0.00  0.00    +0.000 A 
ATOM     24 CL   UNL     1       7.207   5.007  12.981  0.00  0.00    +0.000 Cl
ATOM     25  C   UNL     1       7.501   5.396  15.653  0.00  0.00    +0.000 A 
ATOM     26  C   UNL     1       7.097   5.257  16.988  0.00  0.00    +0.000 A 
ENDBRANCH  18  20
ENDBRANCH   1  18
BRANCH   5  27
ATOM     27  C   UNL     1       3.057   2.415  21.439  0.00  0.00    +0.000 C 
BRANCH  27  28
ATOM     28  C   UNL     1       3.943   1.203  21.239  0.00  0.00    +0.000 C 
BRANCH  28  29
ATOM     29  O   UNL     1       5.282   1.568  21.571  0.00  0.00    +0.000 OA
ATOM     30  H   UNL     1       5.232   2.374  22.115  0.00  0.00    +0.000 HD
ENDBRANCH  28  29
ENDBRANCH  27  28
ENDBRANCH   5  27
TORSDOF 5
ENDMDL
MODEL 5
REMARK VINA RESULT:      -7.2      1.445      1.820
REMARK  Name = 
REMARK  5 active torsions:
REMARK  status: ('A' for Active; 'I' for Inactive)
REMARK    1  A    between atoms: S_2  and  C_4
REMARK    2  A    between atoms: S_2  and  C_11
REMARK    3  A    between atoms: C_15  and  C_16
REMARK    4  A    between atoms: C_16  and  C_17
REMARK    5  A    between atoms: C_17  and  O_18
REMARK                            x       y       z     vdW  Elec       q    Type
REMARK                         _______ _______ _______ _____ _____    ______ ____
ROOT
ATOM      1  C   UNL     1       3.218   4.997  18.663  0.00  0.00    +0.000 C 
ATOM      2  C   UNL     1       2.563   4.455  17.392  0.00  0.00    +0.000 C 
ATOM      3  C   UNL     1       2.455   2.939  17.352  0.00  0.00    +0.000 C 
ATOM      4  O   UNL     1       2.619   2.282  18.597  0.00  0.00    +0.000 OA
ATOM      5  C   UNL     1       2.092   2.899  19.755  0.00  0.00    +0.000 C 
ATOM      6  C   UNL     1       2.491   4.377  19.897  0.00  0.00    +0.000 C 
ATOM      7  C   UNL     1       1.238   5.125  20.338  0.00  0.00    +0.000 C 
ATOM      8  O   UNL     1       1.556   6.458  20.668  0.00  0.00    +0.000 OA
ATOM      9  C   UNL     1       2.092   7.119  19.601  0.00  0.00    +0.000 A 
ATOM     10  C   UNL     1       1.619   8.427  19.439  0.00  0.00    +0.000 A 
ATOM     11  F   UNL     1       0.657   8.903  20.249  0.00  0.00    +0.000 F 
ATOM     12  C   UNL     1       2.042   9.208  18.382  0.00  0.00    +0.000 A 
ATOM     13  C   UNL     1       3.004   8.688  17.520  0.00  0.00    +0.000 A 
ATOM     14  C   UNL     1       3.476   7.378  17.688  0.00  0.00    +0.000 A 
ATOM     15  F   UNL     1       4.311   6.903  16.758  0.00  0.00    +0.000 F 
ATOM     16  C   UNL     1       3.011   6.529  18.700  0.00  0.00    +0.000 A 
ENDROOT
BRANCH   1  18
ATOM     17  O   UNL     1       5.082   3.121  19.341  0.00  0.00    +0.000 OA
ATOM     18  S   UNL     1       5.003   4.476  18.816  0.00  0.00    +0.000 S 
ATOM     19  O   UNL     1       5.675   5.519  19.582  0.00  0.00    +0.000 OA
BRANCH  18  20
ATOM     20  C   UNL     1       5.934   4.347  17.272  0.00  0.00    +0.000 A 
ATOM     21  C   UNL     1       5.278   3.777  16.173  0.00  0.00    +0.000 A 
ATOM     22  C   UNL     1       5.751   3.970  14.873  0.00  0.00    +0.000 A 
ATOM     23  C   UNL     1       6.879   4.753  14.644  0.00  0.00    +0.000 A 
ATOM     24 CL   UNL     1       7.405   5.041  13.032  0.00  0.00    +0.000 Cl
ATOM     25  C   UNL     1       7.544   5.343  15.727  0.00  0.00    +0.000 A 
ATOM     26  C   UNL     1       7.064   5.162  17.031  0.00  0.00    +0.000 A 
ENDBRANCH  18  20
ENDBRANCH   1  18
BRANCH   5  27
ATOM     27  C   UNL     1       2.630   2.200  21.018  0.00  0.00    +0.000 C 
BRANCH  27  28
ATOM     28  C   UNL     1       2.145   2.761  22.337  0.00  0.00    +0.000 C 
BRANCH  28  29
ATOM     29  O   UNL     1       0.820   2.283  22.567  0.00  0.00    +0.000 OA
ATOM     30  H   UNL     1       0.209   2.985  22.278  0.00  0.00    +0.000 HD
ENDBRANCH  28  29
ENDBRANCH  27  28
ENDBRANCH   5  27
TORSDOF 5
ENDMDL
MODEL 6
REMARK VINA RESULT:      -6.9      3.337      5.665
REMARK  Name = 
REMARK  5 active torsions:
REMARK  status: ('A' for Active; 'I' for Inactive)
REMARK    1  A    between atoms: S_2  and  C_4
REMARK    2  A    between atoms: S_2  and  C_11
REMARK    3  A    between atoms: C_15  and  C_16
REMARK    4  A    between atoms: C_16  and  C_17
REMARK    5  A    between atoms: C_17  and  O_18
REMARK                            x       y       z     vdW  Elec       q    Type
REMARK                         _______ _______ _______ _____ _____    ______ ____
ROOT
ATOM      1  C   UNL     1       4.107   4.835  17.857  0.00  0.00    +0.000 C 
ATOM      2  C   UNL     1       4.106   4.037  16.552  0.00  0.00    +0.000 C 
ATOM      3  C   UNL     1       5.330   4.275  15.683  0.00  0.00    +0.000 C 
ATOM      4  O   UNL     1       6.434   4.881  16.334  0.00  0.00    +0.000 OA
ATOM      5  C   UNL     1       6.701   4.520  17.675  0.00  0.00    +0.000 C 
ATOM      6  C   UNL     1       5.466   4.589  18.586  0.00  0.00    +0.000 C 
ATOM      7  C   UNL     1       5.500   3.340  19.460  0.00  0.00    +0.000 C 
ATOM      8  O   UNL     1       4.501   3.412  20.453  0.00  0.00    +0.000 OA
ATOM      9  C   UNL     1       3.257   3.509  19.900  0.00  0.00    +0.000 A 
ATOM     10  C   UNL     1       2.285   2.722  20.529  0.00  0.00    +0.000 A 
ATOM     11  F   UNL     1       2.630   1.899  21.536  0.00  0.00    +0.000 F 
ATOM     12  C   UNL     1       0.988   2.687  20.059  0.00  0.00    +0.000 A 
ATOM     13  C   UNL     1       0.652   3.507  18.985  0.00  0.00    +0.000 A 
ATOM     14  C   UNL     1       1.629   4.294  18.359  0.00  0.00    +0.000 A 
ATOM     15  F   UNL     1       1.263   4.969  17.263  0.00  0.00    +0.000 F 
ATOM     16  C   UNL     1       2.971   4.295  18.757  0.00  0.00    +0.000 A 
ENDROOT
BRANCH   1  18
ATOM     17  O   UNL     1       3.860   6.943  16.140  0.00  0.00    +0.000 OA
ATOM     18  S   UNL     1       4.022   6.675  17.561  0.00  0.00    +0.000 S 
ATOM     19  O   UNL     1       5.191   7.255  18.212  0.00  0.00    +0.000 OA
BRANCH  18  20
ATOM     20  C   UNL     1       2.603   7.535  18.281  0.00  0.00    +0.000 A 
ATOM     21  C   UNL     1       2.371   7.355  19.650  0.00  0.00    +0.000 A 
ATOM     22  C   UNL     1       1.563   8.241  20.366  0.00  0.00    +0.000 A 
ATOM     23  C   UNL     1       0.986   9.337  19.730  0.00  0.00    +0.000 A 
ATOM     24 CL   UNL     1       0.054  10.459  20.641  0.00  0.00    +0.000 Cl
ATOM     25  C   UNL     1       1.215   9.544  18.363  0.00  0.00    +0.000 A 
ATOM     26  C   UNL     1       2.036   8.663  17.646  0.00  0.00    +0.000 A 
ENDBRANCH  18  20
ENDBRANCH   1  18
BRANCH   5  27
ATOM     27  C   UNL     1       7.727   5.491  18.289  0.00  0.00    +0.000 C 
BRANCH  27  28
ATOM     28  C   UNL     1       7.612   5.710  19.783  0.00  0.00    +0.000 C 
BRANCH  28  29
ATOM     29  O   UNL     1       8.747   5.115  20.411  0.00  0.00    +0.000 OA
ATOM     30  H   UNL     1       8.981   5.679  21.170  0.00  0.00    +0.000 HD
ENDBRANCH  28  29
ENDBRANCH  27  28
ENDBRANCH   5  27
TORSDOF 5
ENDMDL
MODEL 7
REMARK VINA RESULT:      -6.5      5.625      8.940
REMARK  Name = 
REMARK  5 active torsions:
REMARK  status: ('A' for Active; 'I' for Inactive)
REMARK    1  A    between atoms: S_2  and  C_4
REMARK    2  A    between atoms: S_2  and  C_11
REMARK    3  A    between atoms: C_15  and  C_16
REMARK    4  A    between atoms: C_16  and  C_17
REMARK    5  A    between atoms: C_17  and  O_18
REMARK                            x       y       z     vdW  Elec       q    Type
REMARK                         _______ _______ _______ _____ _____    ______ ____
ROOT
ATOM      1  C   UNL     1      -0.404  11.585  20.713  0.00  0.00    +0.000 C 
ATOM      2  C   UNL     1       0.701  12.571  21.092  0.00  0.00    +0.000 C 
ATOM      3  C   UNL     1       0.233  13.711  21.980  0.00  0.00    +0.000 C 
ATOM      4  O   UNL     1      -1.017  13.514  22.620  0.00  0.00    +0.000 OA
ATOM      5  C   UNL     1      -1.338  12.214  23.078  0.00  0.00    +0.000 C 
ATOM      6  C   UNL     1      -1.123  11.121  22.019  0.00  0.00    +0.000 C 
ATOM      7  C   UNL     1      -0.455   9.951  22.731  0.00  0.00    +0.000 C 
ATOM      8  O   UNL     1      -0.387   8.833  21.873  0.00  0.00    +0.000 OA
ATOM      9  C   UNL     1       0.334   9.114  20.749  0.00  0.00    +0.000 A 
ATOM     10  C   UNL     1       1.206   8.091  20.356  0.00  0.00    +0.000 A 
ATOM     11  F   UNL     1       1.337   6.987  21.112  0.00  0.00    +0.000 F 
ATOM     12  C   UNL     1       2.028   8.244  19.257  0.00  0.00    +0.000 A 
ATOM     13  C   UNL     1       1.919   9.413  18.508  0.00  0.00    +0.000 A 
ATOM     14  C   UNL     1       1.043  10.433  18.905  0.00  0.00    +0.000 A 
ATOM     15  F   UNL     1       1.073  11.574  18.207  0.00  0.00    +0.000 F 
ATOM     16  C   UNL     1       0.252  10.347  20.058  0.00  0.00    +0.000 A 
ENDROOT
BRANCH   1  18
ATOM     17  O   UNL     1      -1.160  13.464  18.882  0.00  0.00    +0.000 OA
ATOM     18  S   UNL     1      -1.729  12.376  19.663  0.00  0.00    +0.000 S 
ATOM     19  O   UNL     1      -2.825  12.715  20.563  0.00  0.00    +0.000 OA
BRANCH  18  20
ATOM     20  C   UNL     1      -2.468  11.330  18.387  0.00  0.00    +0.000 A 
ATOM     21  C   UNL     1      -3.751  11.674  17.940  0.00  0.00    +0.000 A 
ATOM     22  C   UNL     1      -4.246  11.184  16.729  0.00  0.00    +0.000 A 
ATOM     23  C   UNL     1      -3.460  10.355  15.932  0.00  0.00    +0.000 A 
ATOM     24 CL   UNL     1      -4.057   9.820  14.410  0.00  0.00    +0.000 Cl
ATOM     25  C   UNL     1      -2.170  10.008  16.354  0.00  0.00    +0.000 A 
ATOM     26  C   UNL     1      -1.666  10.510  17.562  0.00  0.00    +0.000 A 
ENDBRANCH  18  20
ENDBRANCH   1  18
BRANCH   5  27
ATOM     27  C   UNL     1      -2.829  12.141  23.457  0.00  0.00    +0.000 C 
BRANCH  27  28
ATOM     28  C   UNL     1      -3.437  13.423  23.983  0.00  0.00    +0.000 C 
BRANCH  28  29
ATOM     29  O   UNL     1      -3.916  14.181  22.872  0.00  0.00    +0.000 OA
ATOM     30  H   UNL     1      -3.208  14.183  22.203  0.00  0.00    +0.000 HD
ENDBRANCH  28  29
ENDBRANCH  27  28
ENDBRANCH   5  27
TORSDOF 5
ENDMDL
MODEL 8
REMARK VINA RESULT:      -6.5      3.358      6.085
REMARK  Name = 
REMARK  5 active torsions:
REMARK  status: ('A' for Active; 'I' for Inactive)
REMARK    1  A    between atoms: S_2  and  C_4
REMARK    2  A    between atoms: S_2  and  C_11
REMARK    3  A    between atoms: C_15  and  C_16
REMARK    4  A    between atoms: C_16  and  C_17
REMARK    5  A    between atoms: C_17  and  O_18
REMARK                            x       y       z     vdW  Elec       q    Type
REMARK                         _______ _______ _______ _____ _____    ______ ____
ROOT
ATOM      1  C   UNL     1       4.289   5.448  17.725  0.00  0.00    +0.000 C 
ATOM      2  C   UNL     1       4.403   4.739  16.375  0.00  0.00    +0.000 C 
ATOM      3  C   UNL     1       5.544   5.245  15.508  0.00  0.00    +0.000 C 
ATOM      4  O   UNL     1       6.534   6.003  16.181  0.00  0.00    +0.000 OA
ATOM      5  C   UNL     1       6.892   5.622  17.495  0.00  0.00    +0.000 C 
ATOM      6  C   UNL     1       5.686   5.413  18.423  0.00  0.00    +0.000 C 
ATOM      7  C   UNL     1       5.965   4.144  19.220  0.00  0.00    +0.000 C 
ATOM      8  O   UNL     1       4.992   3.977  20.228  0.00  0.00    +0.000 OA
ATOM      9  C   UNL     1       3.740   3.876  19.695  0.00  0.00    +0.000 A 
ATOM     10  C   UNL     1       2.941   2.891  20.288  0.00  0.00    +0.000 A 
ATOM     11  F   UNL     1       3.451   2.089  21.240  0.00  0.00    +0.000 F 
ATOM     12  C   UNL     1       1.661   2.647  19.832  0.00  0.00    +0.000 A 
ATOM     13  C   UNL     1       1.158   3.451  18.812  0.00  0.00    +0.000 A 
ATOM     14  C   UNL     1       1.961   4.437  18.223  0.00  0.00    +0.000 A 
ATOM     15  F   UNL     1       1.455   5.094  17.174  0.00  0.00    +0.000 F 
ATOM     16  C   UNL     1       3.290   4.661  18.605  0.00  0.00    +0.000 A 
ENDROOT
BRANCH   1  18
ATOM     17  O   UNL     1       3.518   7.546  16.158  0.00  0.00    +0.000 OA
ATOM     18  S   UNL     1       3.864   7.256  17.541  0.00  0.00    +0.000 S 
ATOM     19  O   UNL     1       4.979   8.004  18.111  0.00  0.00    +0.000 OA
BRANCH  18  20
ATOM     20  C   UNL     1       2.401   7.828  18.435  0.00  0.00    +0.000 A 
ATOM     21  C   UNL     1       2.301   7.484  19.789  0.00  0.00    +0.000 A 
ATOM     22  C   UNL     1       1.437   8.171  20.645  0.00  0.00    +0.000 A 
ATOM     23  C   UNL     1       0.668   9.229  20.167  0.00  0.00    +0.000 A 
ATOM     24 CL   UNL     1      -0.336  10.111  21.249  0.00  0.00    +0.000 Cl
ATOM     25  C   UNL     1       0.761   9.599  18.818  0.00  0.00    +0.000 A 
ATOM     26  C   UNL     1       1.638   8.920  17.961  0.00  0.00    +0.000 A 
ENDBRANCH  18  20
ENDBRANCH   1  18
BRANCH   5  27
ATOM     27  C   UNL     1       7.738   6.728  18.154  0.00  0.00    +0.000 C 
BRANCH  27  28
ATOM     28  C   UNL     1       7.815   8.036  17.396  0.00  0.00    +0.000 C 
BRANCH  28  29
ATOM     29  O   UNL     1       8.419   9.011  18.246  0.00  0.00    +0.000 OA
ATOM     30  H   UNL     1       9.202   8.593  18.649  0.00  0.00    +0.000 HD
ENDBRANCH  28  29
ENDBRANCH  27  28
ENDBRANCH   5  27
TORSDOF 5
ENDMDL
MODEL 9
REMARK VINA RESULT:      -6.2      7.383      9.603
REMARK  Name = 
REMARK  5 active torsions:
REMARK  status: ('A' for Active; 'I' for Inactive)
REMARK    1  A    between atoms: S_2  and  C_4
REMARK    2  A    between atoms: S_2  and  C_11
REMARK    3  A    between atoms: C_15  and  C_16
REMARK    4  A    between atoms: C_16  and  C_17
REMARK    5  A    between atoms: C_17  and  O_18
REMARK                            x       y       z     vdW  Elec       q    Type
REMARK                         _______ _______ _______ _____ _____    ______ ____
ROOT
ATOM      1  C   UNL     1      -1.094  11.935  20.888  0.00  0.00    +0.000 C 
ATOM      2  C   UNL     1      -1.066  10.667  21.743  0.00  0.00    +0.000 C 
ATOM      3  C   UNL     1      -1.079  10.931  23.239  0.00  0.00    +0.000 C 
ATOM      4  O   UNL     1      -1.479  12.235  23.626  0.00  0.00    +0.000 OA
ATOM      5  C   UNL     1      -2.506  12.868  22.887  0.00  0.00    +0.000 C 
ATOM      6  C   UNL     1      -2.281  12.829  21.368  0.00  0.00    +0.000 C 
ATOM      7  C   UNL     1      -3.627  12.489  20.738  0.00  0.00    +0.000 C 
ATOM      8  O   UNL     1      -3.553  12.611  19.334  0.00  0.00    +0.000 OA
ATOM      9  C   UNL     1      -2.616  11.769  18.812  0.00  0.00    +0.000 A 
ATOM     10  C   UNL     1      -3.016  11.121  17.637  0.00  0.00    +0.000 A 
ATOM     11  F   UNL     1      -4.262  11.292  17.163  0.00  0.00    +0.000 F 
ATOM     12  C   UNL     1      -2.188  10.211  17.012  0.00  0.00    +0.000 A 
ATOM     13  C   UNL     1      -0.915  10.004  17.539  0.00  0.00    +0.000 A 
ATOM     14  C   UNL     1      -0.519  10.657  18.715  0.00  0.00    +0.000 A 
ATOM     15  F   UNL     1       0.671  10.325  19.229  0.00  0.00    +0.000 F 
ATOM     16  C   UNL     1      -1.360  11.526  19.420  0.00  0.00    +0.000 A 
ENDROOT
BRANCH   1  18
ATOM     17  O   UNL     1       1.581  12.117  21.398  0.00  0.00    +0.000 OA
ATOM     18  S   UNL     1       0.440  12.973  21.112  0.00  0.00    +0.000 S 
ATOM     19  O   UNL     1       0.113  13.988  22.107  0.00  0.00    +0.000 OA
BRANCH  18  20
ATOM     20  C   UNL     1       1.001  13.894  19.661  0.00  0.00    +0.000 A 
ATOM     21  C   UNL     1       0.578  15.224  19.543  0.00  0.00    +0.000 A 
ATOM     22  C   UNL     1       1.237  16.116  18.693  0.00  0.00    +0.000 A 
ATOM     23  C   UNL     1       2.345  15.700  17.960  0.00  0.00    +0.000 A 
ATOM     24 CL   UNL     1       3.189  16.830  16.976  0.00  0.00    +0.000 Cl
ATOM     25  C   UNL     1       2.793  14.377  18.072  0.00  0.00    +0.000 A 
ATOM     26  C   UNL     1       2.142  13.484  18.934  0.00  0.00    +0.000 A 
ENDBRANCH  18  20
ENDBRANCH   1  18
BRANCH   5  27
ATOM     27  C   UNL     1      -2.580  14.361  23.259  0.00  0.00    +0.000 C 
BRANCH  27  28
ATOM     28  C   UNL     1      -2.162  14.709  24.672  0.00  0.00    +0.000 C 
BRANCH  28  29
ATOM     29  O   UNL     1      -0.751  14.923  24.681  0.00  0.00    +0.000 OA
ATOM     30  H   UNL     1      -0.358  14.261  24.084  0.00  0.00    +0.000 HD
ENDBRANCH  28  29
ENDBRANCH  27  28
ENDBRANCH   5  27
TORSDOF 5
ENDMDL
