MODEL 1
REMARK VINA RESULT:      -9.0      0.000      0.000
REMARK  Name = 
REMARK  5 active torsions:
REMARK  status: ('A' for Active; 'I' for Inactive)
REMARK    1  A    between atoms: C_2  and  O_3
REMARK    2  A    between atoms: C_2  and  C_4
REMARK    3  A    between atoms: C_11  and  N_12
REMARK    4  A    between atoms: N_12  and  C_13
REMARK    5  A    between atoms: C_15  and  C_16
REMARK                            x       y       z     vdW  Elec       q    Type
REMARK                         _______ _______ _______ _____ _____    ______ ____
ROOT
ATOM      1  C   UNL     1       2.780   5.001  18.258  0.00  0.00    +0.000 A 
ATOM      2  N   UNL     1       2.468   6.308  18.308  0.00  0.00    +0.000 NA
ATOM      3  C   UNL     1       1.922   6.808  19.439  0.00  0.00    +0.000 A 
ATOM      4  N   UNL     1       1.613   6.121  20.547  0.00  0.00    +0.000 NA
ATOM      5  C   UNL     1       1.880   4.799  20.480  0.00  0.00    +0.000 A 
ATOM      6  C   UNL     1       1.604   3.858  21.515  0.00  0.00    +0.000 A 
ATOM      7  C   UNL     1       1.977   2.578  21.173  0.00  0.00    +0.000 A 
ATOM      8  S   UNL     1       2.673   2.514  19.613  0.00  0.00    +0.000 S 
ATOM      9  C   UNL     1       2.459   4.205  19.365  0.00  0.00    +0.000 A 
ENDROOT
BRANCH   3  10
ATOM     10  C   UNL     1       1.614   8.248  19.446  0.00  0.00    +0.000 A 
ATOM     11  N   UNL     1       1.870   9.038  18.381  0.00  0.00    +0.000 NA
ATOM     12  N   UNL     1       1.429  10.252  18.746  0.00  0.00    +0.000 N 
ATOM     13  C   UNL     1       0.903  10.293  20.002  0.00  0.00    +0.000 A 
ATOM     14  N   UNL     1       0.384  11.378  20.611  0.00  0.00    +0.000 NA
ATOM     15  C   UNL     1      -0.066  11.101  21.861  0.00  0.00    +0.000 A 
ATOM     16  C   UNL     1      -0.007   9.861  22.482  0.00  0.00    +0.000 A 
ATOM     17  F   UNL     1      -0.480   9.704  23.725  0.00  0.00    +0.000 F 
ATOM     18  C   UNL     1       0.543   8.776  21.809  0.00  0.00    +0.000 A 
ATOM     19  C   UNL     1       1.015   9.004  20.504  0.00  0.00    +0.000 A 
ATOM     20  H   UNL     1       1.506  11.022  18.093  0.00  0.00    +0.000 HD
ENDBRANCH   3  10
BRANCH   1  21
ATOM     21  N   UNL     1       3.353   4.483  17.112  0.00  0.00    +0.000 N 
ATOM     22  H   UNL     1       2.782   3.777  16.653  0.00  0.00    +0.000 HD
BRANCH  21  30
ATOM     23  C   UNL     1       5.522   5.337  17.922  0.00  0.00    +0.000 C 
ATOM     24  C   UNL     1       6.489   6.157  17.015  0.00  0.00    +0.000 C 
ATOM     25  C   UNL     1       5.659   6.725  15.872  0.00  0.00    +0.000 C 
ATOM     26  C   UNL     1       5.059   5.798  15.109  0.00  0.00    +0.000 C 
ATOM     27  C   UNL     1       5.288   4.368  15.574  0.00  0.00    +0.000 C 
ATOM     28  C   UNL     1       6.810   4.117  15.547  0.00  0.00    +0.000 C 
ATOM     29  C   UNL     1       7.532   5.225  16.342  0.00  0.00    +0.000 C 
ATOM     30  C   UNL     1       4.808   4.254  17.060  0.00  0.00    +0.000 C 
BRANCH  23  32
ATOM     31  O   UNL     1       7.005   5.366  19.841  0.00  0.00    +0.000 OA
ATOM     32  C   UNL     1       6.250   4.739  19.112  0.00  0.00    +0.000 C 
BRANCH  32  33
ATOM     33  O   UNL     1       5.936   3.456  19.378  0.00  0.00    +0.000 OA
ATOM     34  H   UNL     1       6.681   2.831  19.546  0.00  0.00    +0.000 HD
ENDBRANCH  32  33
ENDBRANCH  23  32
ENDBRANCH  21  30
ENDBRANCH   1  21
TORSDOF 5
ENDMDL
MODEL 2
REMARK VINA RESULT:      -8.7      1.885      4.475
REMARK  Name = 
REMARK  5 active torsions:
REMARK  status: ('A' for Active; 'I' for Inactive)
REMARK    1  A    between atoms: C_2  and  O_3
REMARK    2  A    between atoms: C_2  and  C_4
REMARK    3  A    between atoms: C_11  and  N_12
REMARK    4  A    between atoms: N_12  and  C_13
REMARK    5  A    between atoms: C_15  and  C_16
REMARK                            x       y       z     vdW  Elec       q    Type
REMARK                         _______ _______ _______ _____ _____    ______ ____
ROOT
ATOM      1  C   UNL     1       4.212   5.641  18.859  0.00  0.00    +0.000 A 
ATOM      2  N   UNL     1       3.368   6.673  19.025  0.00  0.00    +0.000 NA
ATOM      3  C   UNL     1       3.167   7.529  17.998  0.00  0.00    +0.000 A 
ATOM      4  N   UNL     1       3.761   7.486  16.797  0.00  0.00    +0.000 NA
ATOM      5  C   UNL     1       4.647   6.478  16.644  0.00  0.00    +0.000 A 
ATOM      6  C   UNL     1       5.428   6.249  15.474  0.00  0.00    +0.000 A 
ATOM      7  C   UNL     1       6.250   5.153  15.599  0.00  0.00    +0.000 A 
ATOM      8  S   UNL     1       6.069   4.391  17.119  0.00  0.00    +0.000 S 
ATOM      9  C   UNL     1       4.898   5.542  17.641  0.00  0.00    +0.000 A 
ENDROOT
BRANCH   3  10
ATOM     10  C   UNL     1       2.221   8.632  18.228  0.00  0.00    +0.000 A 
ATOM     11  N   UNL     1       1.924   9.531  17.265  0.00  0.00    +0.000 NA
ATOM     12  N   UNL     1       1.018  10.345  17.829  0.00  0.00    +0.000 N 
ATOM     13  C   UNL     1       0.714  10.024  19.118  0.00  0.00    +0.000 A 
ATOM     14  N   UNL     1      -0.166  10.667  19.910  0.00  0.00    +0.000 NA
ATOM     15  C   UNL     1      -0.255  10.106  21.143  0.00  0.00    +0.000 A 
ATOM     16  C   UNL     1       0.467   9.004  21.579  0.00  0.00    +0.000 A 
ATOM     17  F   UNL     1       0.300   8.537  22.824  0.00  0.00    +0.000 F 
ATOM     18  C   UNL     1       1.365   8.380  20.721  0.00  0.00    +0.000 A 
ATOM     19  C   UNL     1       1.488   8.915  19.425  0.00  0.00    +0.000 A 
ATOM     20  H   UNL     1       0.632  11.106  17.284  0.00  0.00    +0.000 HD
ENDBRANCH   3  10
BRANCH   1  21
ATOM     21  N   UNL     1       4.413   4.752  19.897  0.00  0.00    +0.000 N 
ATOM     22  H   UNL     1       5.389   4.643  20.159  0.00  0.00    +0.000 HD
BRANCH  21  30
ATOM     23  C   UNL     1       2.619   3.487  18.770  0.00  0.00    +0.000 C 
ATOM     24  C   UNL     1       1.149   3.473  19.291  0.00  0.00    +0.000 C 
ATOM     25  C   UNL     1       0.977   4.699  20.177  0.00  0.00    +0.000 C 
ATOM     26  C   UNL     1       1.796   4.734  21.241  0.00  0.00    +0.000 C 
ATOM     27  C   UNL     1       2.767   3.566  21.314  0.00  0.00    +0.000 C 
ATOM     28  C   UNL     1       1.926   2.275  21.384  0.00  0.00    +0.000 C 
ATOM     29  C   UNL     1       0.909   2.256  20.222  0.00  0.00    +0.000 C 
ATOM     30  C   UNL     1       3.592   3.531  19.984  0.00  0.00    +0.000 C 
BRANCH  23  32
ATOM     31  O   UNL     1       2.293   2.096  16.809  0.00  0.00    +0.000 OA
ATOM     32  C   UNL     1       2.893   2.309  17.853  0.00  0.00    +0.000 C 
BRANCH  32  33
ATOM     33  O   UNL     1       3.931   1.535  18.225  0.00  0.00    +0.000 OA
ATOM     34  H   UNL     1       4.603   1.933  18.828  0.00  0.00    +0.000 HD
ENDBRANCH  32  33
ENDBRANCH  23  32
ENDBRANCH  21  30
ENDBRANCH   1  21
TORSDOF 5
ENDMDL
MODEL 3
REMARK VINA RESULT:      -8.7      1.593      1.894
REMARK  Name = 
REMARK  5 active torsions:
REMARK  status: ('A' for Active; 'I' for Inactive)
REMARK    1  A    between atoms: C_2  and  O_3
REMARK    2  A    between atoms: C_2  and  C_4
REMARK    3  A    between atoms: C_11  and  N_12
REMARK    4  A    between atoms: N_12  and  C_13
REMARK    5  A    between atoms: C_15  and  C_16
REMARK                            x       y       z     vdW  Elec       q    Type
REMARK                         _______ _______ _______ _____ _____    ______ ____
ROOT
ATOM      1  C   UNL     1       2.671   5.797  18.625  0.00  0.00    +0.000 A 
ATOM      2  N   UNL     1       2.333   6.980  19.166  0.00  0.00    +0.000 NA
ATOM      3  C   UNL     1       1.661   6.997  20.338  0.00  0.00    +0.000 A 
ATOM      4  N   UNL     1       1.245   5.931  21.035  0.00  0.00    +0.000 NA
ATOM      5  C   UNL     1       1.540   4.741  20.468  0.00  0.00    +0.000 A 
ATOM      6  C   UNL     1       1.170   3.470  20.999  0.00  0.00    +0.000 A 
ATOM      7  C   UNL     1       1.600   2.428  20.210  0.00  0.00    +0.000 A 
ATOM      8  S   UNL     1       2.460   2.979  18.840  0.00  0.00    +0.000 S 
ATOM      9  C   UNL     1       2.246   4.632  19.276  0.00  0.00    +0.000 A 
ENDROOT
BRANCH   3  10
ATOM     10  C   UNL     1       1.329   8.320  20.894  0.00  0.00    +0.000 A 
ATOM     11  N   UNL     1       1.673   8.672  22.152  0.00  0.00    +0.000 NA
ATOM     12  N   UNL     1       1.240   9.936  22.280  0.00  0.00    +0.000 N 
ATOM     13  C   UNL     1       0.623  10.423  21.167  0.00  0.00    +0.000 A 
ATOM     14  N   UNL     1       0.106  11.659  21.023  0.00  0.00    +0.000 NA
ATOM     15  C   UNL     1      -0.440  11.849  19.795  0.00  0.00    +0.000 A 
ATOM     16  C   UNL     1      -0.488  10.903  18.781  0.00  0.00    +0.000 A 
ATOM     17  F   UNL     1      -1.057  11.201  17.605  0.00  0.00    +0.000 F 
ATOM     18  C   UNL     1       0.059   9.642  18.984  0.00  0.00    +0.000 A 
ATOM     19  C   UNL     1       0.648   9.394  20.237  0.00  0.00    +0.000 A 
ATOM     20  H   UNL     1       1.398  10.425  23.152  0.00  0.00    +0.000 HD
ENDBRANCH   3  10
BRANCH   1  21
ATOM     21  N   UNL     1       3.372   5.769  17.435  0.00  0.00    +0.000 N 
ATOM     22  H   UNL     1       2.777   5.776  16.609  0.00  0.00    +0.000 HD
BRANCH  21  30
ATOM     23  C   UNL     1       5.760   5.699  18.050  0.00  0.00    +0.000 C 
ATOM     24  C   UNL     1       6.898   5.992  17.024  0.00  0.00    +0.000 C 
ATOM     25  C   UNL     1       6.277   6.783  15.881  0.00  0.00    +0.000 C 
ATOM     26  C   UNL     1       5.289   6.142  15.235  0.00  0.00    +0.000 C 
ATOM     27  C   UNL     1       4.955   4.775  15.813  0.00  0.00    +0.000 C 
ATOM     28  C   UNL     1       6.235   3.918  15.728  0.00  0.00    +0.000 C 
ATOM     29  C   UNL     1       7.410   4.675  16.383  0.00  0.00    +0.000 C 
ATOM     30  C   UNL     1       4.598   4.958  17.326  0.00  0.00    +0.000 C 
BRANCH  23  32
ATOM     31  O   UNL     1       7.091   5.365  20.050  0.00  0.00    +0.000 OA
ATOM     32  C   UNL     1       6.280   4.926  19.248  0.00  0.00    +0.000 C 
BRANCH  32  33
ATOM     33  O   UNL     1       5.710   3.719  19.430  0.00  0.00    +0.000 OA
ATOM     34  H   UNL     1       5.971   3.209  20.233  0.00  0.00    +0.000 HD
ENDBRANCH  32  33
ENDBRANCH  23  32
ENDBRANCH  21  30
ENDBRANCH   1  21
TORSDOF 5
ENDMDL
MODEL 4
REMARK VINA RESULT:      -8.5      3.688      7.243
REMARK  Name = 
REMARK  5 active torsions:
REMARK  status: ('A' for Active; 'I' for Inactive)
REMARK    1  A    between atoms: C_2  and  O_3
REMARK    2  A    between atoms: C_2  and  C_4
REMARK    3  A    between atoms: C_11  and  N_12
REMARK    4  A    between atoms: N_12  and  C_13
REMARK    5  A    between atoms: C_15  and  C_16
REMARK                            x       y       z     vdW  Elec       q    Type
REMARK                         _______ _______ _______ _____ _____    ______ ____
ROOT
ATOM      1  C   UNL     1       2.423   6.072  18.995  0.00  0.00    +0.000 A 
ATOM      2  N   UNL     1       3.510   6.310  18.240  0.00  0.00    +0.000 NA
ATOM      3  C   UNL     1       4.476   5.368  18.166  0.00  0.00    +0.000 A 
ATOM      4  N   UNL     1       4.494   4.192  18.809  0.00  0.00    +0.000 NA
ATOM      5  C   UNL     1       3.427   3.972  19.607  0.00  0.00    +0.000 A 
ATOM      6  C   UNL     1       3.240   2.815  20.418  0.00  0.00    +0.000 A 
ATOM      7  C   UNL     1       2.063   2.859  21.131  0.00  0.00    +0.000 A 
ATOM      8  S   UNL     1       1.178   4.286  20.810  0.00  0.00    +0.000 S 
ATOM      9  C   UNL     1       2.379   4.878  19.725  0.00  0.00    +0.000 A 
ENDROOT
BRANCH   3  10
ATOM     10  C   UNL     1       5.637   5.673  17.314  0.00  0.00    +0.000 A 
ATOM     11  N   UNL     1       6.621   6.505  17.719  0.00  0.00    +0.000 NA
ATOM     12  N   UNL     1       7.502   6.506  16.706  0.00  0.00    +0.000 N 
ATOM     13  C   UNL     1       7.136   5.719  15.656  0.00  0.00    +0.000 A 
ATOM     14  N   UNL     1       7.838   5.533  14.521  0.00  0.00    +0.000 NA
ATOM     15  C   UNL     1       7.214   4.687  13.662  0.00  0.00    +0.000 A 
ATOM     16  C   UNL     1       5.990   4.072  13.885  0.00  0.00    +0.000 A 
ATOM     17  F   UNL     1       5.465   3.256  12.962  0.00  0.00    +0.000 F 
ATOM     18  C   UNL     1       5.306   4.302  15.074  0.00  0.00    +0.000 A 
ATOM     19  C   UNL     1       5.914   5.164  16.005  0.00  0.00    +0.000 A 
ATOM     20  H   UNL     1       8.345   7.060  16.787  0.00  0.00    +0.000 HD
ENDBRANCH   3  10
BRANCH   1  21
ATOM     21  N   UNL     1       1.423   7.022  19.065  0.00  0.00    +0.000 N 
ATOM     22  H   UNL     1       0.692   6.899  18.369  0.00  0.00    +0.000 HD
BRANCH  21  30
ATOM     23  C   UNL     1       0.634   9.021  20.278  0.00  0.00    +0.000 C 
ATOM     24  C   UNL     1       0.007  10.249  19.549  0.00  0.00    +0.000 C 
ATOM     25  C   UNL     1      -0.472   9.766  18.188  0.00  0.00    +0.000 C 
ATOM     26  C   UNL     1       0.498   9.267  17.404  0.00  0.00    +0.000 C 
ATOM     27  C   UNL     1       1.871   9.238  18.058  0.00  0.00    +0.000 C 
ATOM     28  C   UNL     1       2.233  10.692  18.424  0.00  0.00    +0.000 C 
ATOM     29  C   UNL     1       1.089  11.319  19.249  0.00  0.00    +0.000 C 
ATOM     30  C   UNL     1       1.761   8.420  19.388  0.00  0.00    +0.000 C 
BRANCH  23  32
ATOM     31  O   UNL     1       0.638  10.273  22.356  0.00  0.00    +0.000 OA
ATOM     32  C   UNL     1       1.128   9.392  21.664  0.00  0.00    +0.000 C 
BRANCH  32  33
ATOM     33  O   UNL     1       2.115   8.607  22.138  0.00  0.00    +0.000 OA
ATOM     34  H   UNL     1       1.858   7.739  22.530  0.00  0.00    +0.000 HD
ENDBRANCH  32  33
ENDBRANCH  23  32
ENDBRANCH  21  30
ENDBRANCH   1  21
TORSDOF 5
ENDMDL
MODEL 5
REMARK VINA RESULT:      -8.3      3.696      7.576
REMARK  Name = 
REMARK  5 active torsions:
REMARK  status: ('A' for Active; 'I' for Inactive)
REMARK    1  A    between atoms: C_2  and  O_3
REMARK    2  A    between atoms: C_2  and  C_4
REMARK    3  A    between atoms: C_11  and  N_12
REMARK    4  A    between atoms: N_12  and  C_13
REMARK    5  A    between atoms: C_15  and  C_16
REMARK                            x       y       z     vdW  Elec       q    Type
REMARK                         _______ _______ _______ _____ _____    ______ ____
ROOT
ATOM      1  C   UNL     1       2.873   6.107  19.606  0.00  0.00    +0.000 A 
ATOM      2  N   UNL     1       3.953   6.329  18.837  0.00  0.00    +0.000 NA
ATOM      3  C   UNL     1       4.386   5.347  18.015  0.00  0.00    +0.000 A 
ATOM      4  N   UNL     1       3.863   4.118  17.896  0.00  0.00    +0.000 NA
ATOM      5  C   UNL     1       2.808   3.877  18.704  0.00  0.00    +0.000 A 
ATOM      6  C   UNL     1       2.110   2.637  18.785  0.00  0.00    +0.000 A 
ATOM      7  C   UNL     1       1.078   2.675  19.694  0.00  0.00    +0.000 A 
ATOM      8  S   UNL     1       0.941   4.207  20.438  0.00  0.00    +0.000 S 
ATOM      9  C   UNL     1       2.286   4.836  19.564  0.00  0.00    +0.000 A 
ENDROOT
BRANCH   3  10
ATOM     10  C   UNL     1       5.563   5.647  17.185  0.00  0.00    +0.000 A 
ATOM     11  N   UNL     1       6.546   6.471  17.610  0.00  0.00    +0.000 NA
ATOM     12  N   UNL     1       7.445   6.469  16.613  0.00  0.00    +0.000 N 
ATOM     13  C   UNL     1       7.092   5.689  15.553  0.00  0.00    +0.000 A 
ATOM     14  N   UNL     1       7.812   5.502  14.430  0.00  0.00    +0.000 NA
ATOM     15  C   UNL     1       7.198   4.664  13.557  0.00  0.00    +0.000 A 
ATOM     16  C   UNL     1       5.966   4.057  13.756  0.00  0.00    +0.000 A 
ATOM     17  F   UNL     1       5.452   3.247  12.821  0.00  0.00    +0.000 F 
ATOM     18  C   UNL     1       5.263   4.287  14.933  0.00  0.00    +0.000 A 
ATOM     19  C   UNL     1       5.860   5.140  15.879  0.00  0.00    +0.000 A 
ATOM     20  H   UNL     1       8.290   7.018  16.711  0.00  0.00    +0.000 HD
ENDBRANCH   3  10
BRANCH   1  21
ATOM     21  N   UNL     1       2.414   7.109  20.438  0.00  0.00    +0.000 N 
ATOM     22  H   UNL     1       2.481   6.883  21.427  0.00  0.00    +0.000 HD
BRANCH  21  30
ATOM     23  C   UNL     1       1.710   9.278  19.496  0.00  0.00    +0.000 C 
ATOM     24  C   UNL     1       1.110  10.418  20.375  0.00  0.00    +0.000 C 
ATOM     25  C   UNL     1       1.537  10.148  21.811  0.00  0.00    +0.000 C 
ATOM     26  C   UNL     1       1.111   8.974  22.304  0.00  0.00    +0.000 C 
ATOM     27  C   UNL     1       0.332   8.128  21.308  0.00  0.00    +0.000 C 
ATOM     28  C   UNL     1      -0.896   8.952  20.870  0.00  0.00    +0.000 C 
ATOM     29  C   UNL     1      -0.440  10.344  20.385  0.00  0.00    +0.000 C 
ATOM     30  C   UNL     1       1.234   7.903  20.048  0.00  0.00    +0.000 C 
BRANCH  23  32
ATOM     31  O   UNL     1       0.469   8.857  17.454  0.00  0.00    +0.000 OA
ATOM     32  C   UNL     1       1.358   9.465  18.031  0.00  0.00    +0.000 C 
BRANCH  32  33
ATOM     33  O   UNL     1       2.051  10.436  17.405  0.00  0.00    +0.000 OA
ATOM     34  H   UNL     1       2.745  10.158  16.760  0.00  0.00    +0.000 HD
ENDBRANCH  32  33
ENDBRANCH  23  32
ENDBRANCH  21  30
ENDBRANCH   1  21
TORSDOF 5
ENDMDL
MODEL 6
REMARK VINA RESULT:      -8.3      1.696      2.311
REMARK  Name = 
REMARK  5 active torsions:
REMARK  status: ('A' for Active; 'I' for Inactive)
REMARK    1  A    between atoms: C_2  and  O_3
REMARK    2  A    between atoms: C_2  and  C_4
REMARK    3  A    between atoms: C_11  and  N_12
REMARK    4  A    between atoms: N_12  and  C_13
REMARK    5  A    between atoms: C_15  and  C_16
REMARK                            x       y       z     vdW  Elec       q    Type
REMARK                         _______ _______ _______ _____ _____    ______ ____
ROOT
ATOM      1  C   UNL     1       3.799   5.304  19.670  0.00  0.00    +0.000 A 
ATOM      2  N   UNL     1       3.266   6.531  19.532  0.00  0.00    +0.000 NA
ATOM      3  C   UNL     1       2.010   6.754  19.977  0.00  0.00    +0.000 A 
ATOM      4  N   UNL     1       1.188   5.853  20.533  0.00  0.00    +0.000 NA
ATOM      5  C   UNL     1       1.704   4.608  20.628  0.00  0.00    +0.000 A 
ATOM      6  C   UNL     1       1.010   3.476  21.147  0.00  0.00    +0.000 A 
ATOM      7  C   UNL     1       1.777   2.334  21.121  0.00  0.00    +0.000 A 
ATOM      8  S   UNL     1       3.337   2.629  20.486  0.00  0.00    +0.000 S 
ATOM      9  C   UNL     1       2.993   4.296  20.214  0.00  0.00    +0.000 A 
ENDROOT
BRANCH   3  10
ATOM     10  C   UNL     1       1.481   8.118  19.814  0.00  0.00    +0.000 A 
ATOM     11  N   UNL     1       1.547   8.773  18.635  0.00  0.00    +0.000 NA
ATOM     12  N   UNL     1       0.943   9.950  18.867  0.00  0.00    +0.000 N 
ATOM     13  C   UNL     1       0.492  10.097  20.144  0.00  0.00    +0.000 A 
ATOM     14  N   UNL     1      -0.154  11.170  20.640  0.00  0.00    +0.000 NA
ATOM     15  C   UNL     1      -0.481  11.016  21.948  0.00  0.00    +0.000 A 
ATOM     16  C   UNL     1      -0.192   9.902  22.724  0.00  0.00    +0.000 A 
ATOM     17  F   UNL     1      -0.560   9.861  24.011  0.00  0.00    +0.000 F 
ATOM     18  C   UNL     1       0.481   8.823  22.162  0.00  0.00    +0.000 A 
ATOM     19  C   UNL     1       0.834   8.925  20.804  0.00  0.00    +0.000 A 
ATOM     20  H   UNL     1       0.860  10.619  18.111  0.00  0.00    +0.000 HD
ENDBRANCH   3  10
BRANCH   1  21
ATOM     21  N   UNL     1       5.087   5.069  19.232  0.00  0.00    +0.000 N 
ATOM     22  H   UNL     1       5.665   4.572  19.906  0.00  0.00    +0.000 HD
BRANCH  21  30
ATOM     23  C   UNL     1       5.586   5.768  16.919  0.00  0.00    +0.000 C 
ATOM     24  C   UNL     1       6.979   5.537  16.257  0.00  0.00    +0.000 C 
ATOM     25  C   UNL     1       7.669   4.428  17.039  0.00  0.00    +0.000 C 
ATOM     26  C   UNL     1       7.866   4.706  18.338  0.00  0.00    +0.000 C 
ATOM     27  C   UNL     1       7.312   6.053  18.775  0.00  0.00    +0.000 C 
ATOM     28  C   UNL     1       8.015   7.134  17.928  0.00  0.00    +0.000 C 
ATOM     29  C   UNL     1       7.883   6.786  16.430  0.00  0.00    +0.000 C 
ATOM     30  C   UNL     1       5.785   6.089  18.429  0.00  0.00    +0.000 C 
BRANCH  23  32
ATOM     31  O   UNL     1       4.905   7.092  15.003  0.00  0.00    +0.000 OA
ATOM     32  C   UNL     1       4.802   6.848  16.197  0.00  0.00    +0.000 C 
BRANCH  32  33
ATOM     33  O   UNL     1       3.890   7.485  16.957  0.00  0.00    +0.000 OA
ATOM     34  H   UNL     1       4.204   8.243  17.506  0.00  0.00    +0.000 HD
ENDBRANCH  32  33
ENDBRANCH  23  32
ENDBRANCH  21  30
ENDBRANCH   1  21
TORSDOF 5
ENDMDL
MODEL 7
REMARK VINA RESULT:      -8.3      1.570      2.150
REMARK  Name = 
REMARK  5 active torsions:
REMARK  status: ('A' for Active; 'I' for Inactive)
REMARK    1  A    between atoms: C_2  and  O_3
REMARK    2  A    between atoms: C_2  and  C_4
REMARK    3  A    between atoms: C_11  and  N_12
REMARK    4  A    between atoms: N_12  and  C_13
REMARK    5  A    between atoms: C_15  and  C_16
REMARK                            x       y       z     vdW  Elec       q    Type
REMARK                         _______ _______ _______ _____ _____    ______ ____
ROOT
ATOM      1  C   UNL     1       3.205   5.005  18.427  0.00  0.00    +0.000 A 
ATOM      2  N   UNL     1       2.756   6.272  18.432  0.00  0.00    +0.000 NA
ATOM      3  C   UNL     1       2.088   6.726  19.516  0.00  0.00    +0.000 A 
ATOM      4  N   UNL     1       1.780   6.025  20.615  0.00  0.00    +0.000 NA
ATOM      5  C   UNL     1       2.187   4.737  20.591  0.00  0.00    +0.000 A 
ATOM      6  C   UNL     1       1.945   3.786  21.624  0.00  0.00    +0.000 A 
ATOM      7  C   UNL     1       2.471   2.548  21.332  0.00  0.00    +0.000 A 
ATOM      8  S   UNL     1       3.269   2.537  19.821  0.00  0.00    +0.000 S 
ATOM      9  C   UNL     1       2.898   4.194  19.527  0.00  0.00    +0.000 A 
ENDROOT
BRANCH   3  10
ATOM     10  C   UNL     1       1.632   8.125  19.475  0.00  0.00    +0.000 A 
ATOM     11  N   UNL     1       1.714   8.871  18.352  0.00  0.00    +0.000 NA
ATOM     12  N   UNL     1       1.179  10.055  18.691  0.00  0.00    +0.000 N 
ATOM     13  C   UNL     1       0.759  10.120  19.985  0.00  0.00    +0.000 A 
ATOM     14  N   UNL     1       0.181  11.181  20.580  0.00  0.00    +0.000 NA
ATOM     15  C   UNL     1      -0.131  10.938  21.878  0.00  0.00    +0.000 A 
ATOM     16  C   UNL     1       0.110   9.751  22.555  0.00  0.00    +0.000 A 
ATOM     17  F   UNL     1      -0.239   9.623  23.842  0.00  0.00    +0.000 F 
ATOM     18  C   UNL     1       0.713   8.687  21.893  0.00  0.00    +0.000 A 
ATOM     19  C   UNL     1       1.047   8.881  20.541  0.00  0.00    +0.000 A 
ATOM     20  H   UNL     1       1.120  10.786  17.994  0.00  0.00    +0.000 HD
ENDBRANCH   3  10
BRANCH   1  21
ATOM     21  N   UNL     1       3.902   4.535  17.330  0.00  0.00    +0.000 N 
ATOM     22  H   UNL     1       4.078   3.533  17.356  0.00  0.00    +0.000 HD
BRANCH  21  30
ATOM     23  C   UNL     1       6.098   4.410  16.212  0.00  0.00    +0.000 C 
ATOM     24  C   UNL     1       7.432   4.739  16.949  0.00  0.00    +0.000 C 
ATOM     25  C   UNL     1       7.165   4.605  18.441  0.00  0.00    +0.000 C 
ATOM     26  C   UNL     1       6.216   5.431  18.911  0.00  0.00    +0.000 C 
ATOM     27  C   UNL     1       5.563   6.296  17.843  0.00  0.00    +0.000 C 
ATOM     28  C   UNL     1       6.678   7.144  17.198  0.00  0.00    +0.000 C 
ATOM     29  C   UNL     1       7.827   6.223  16.733  0.00  0.00    +0.000 C 
ATOM     30  C   UNL     1       4.977   5.352  16.740  0.00  0.00    +0.000 C 
BRANCH  23  32
ATOM     31  O   UNL     1       6.460   5.533  14.093  0.00  0.00    +0.000 OA
ATOM     32  C   UNL     1       6.261   4.494  14.705  0.00  0.00    +0.000 C 
BRANCH  32  33
ATOM     33  O   UNL     1       6.260   3.305  14.071  0.00  0.00    +0.000 OA
ATOM     34  H   UNL     1       5.648   2.609  14.410  0.00  0.00    +0.000 HD
ENDBRANCH  32  33
ENDBRANCH  23  32
ENDBRANCH  21  30
ENDBRANCH   1  21
TORSDOF 5
ENDMDL
MODEL 8
REMARK VINA RESULT:      -8.1      1.845      4.433
REMARK  Name = 
REMARK  5 active torsions:
REMARK  status: ('A' for Active; 'I' for Inactive)
REMARK    1  A    between atoms: C_2  and  O_3
REMARK    2  A    between atoms: C_2  and  C_4
REMARK    3  A    between atoms: C_11  and  N_12
REMARK    4  A    between atoms: N_12  and  C_13
REMARK    5  A    between atoms: C_15  and  C_16
REMARK                            x       y       z     vdW  Elec       q    Type
REMARK                         _______ _______ _______ _____ _____    ______ ____
ROOT
ATOM      1  C   UNL     1       3.435   5.674  17.903  0.00  0.00    +0.000 A 
ATOM      2  N   UNL     1       2.638   6.724  18.164  0.00  0.00    +0.000 NA
ATOM      3  C   UNL     1       3.111   7.974  17.959  0.00  0.00    +0.000 A 
ATOM      4  N   UNL     1       4.342   8.302  17.541  0.00  0.00    +0.000 NA
ATOM      5  C   UNL     1       5.160   7.249  17.325  0.00  0.00    +0.000 A 
ATOM      6  C   UNL     1       6.522   7.346  16.915  0.00  0.00    +0.000 A 
ATOM      7  C   UNL     1       7.116   6.112  16.776  0.00  0.00    +0.000 A 
ATOM      8  S   UNL     1       6.030   4.840  17.124  0.00  0.00    +0.000 S 
ATOM      9  C   UNL     1       4.749   5.932  17.491  0.00  0.00    +0.000 A 
ENDROOT
BRANCH   3  10
ATOM     10  C   UNL     1       2.192   9.087  18.246  0.00  0.00    +0.000 A 
ATOM     11  N   UNL     1       2.004  10.100  17.374  0.00  0.00    +0.000 NA
ATOM     12  N   UNL     1       1.088  10.887  17.961  0.00  0.00    +0.000 N 
ATOM     13  C   UNL     1       0.674  10.438  19.179  0.00  0.00    +0.000 A 
ATOM     14  N   UNL     1      -0.239  11.028  19.975  0.00  0.00    +0.000 NA
ATOM     15  C   UNL     1      -0.442  10.339  21.126  0.00  0.00    +0.000 A 
ATOM     16  C   UNL     1       0.203   9.163  21.484  0.00  0.00    +0.000 A 
ATOM     17  F   UNL     1      -0.076   8.568  22.651  0.00  0.00    +0.000 F 
ATOM     18  C   UNL     1       1.140   8.598  20.626  0.00  0.00    +0.000 A 
ATOM     19  C   UNL     1       1.381   9.267  19.412  0.00  0.00    +0.000 A 
ATOM     20  H   UNL     1       0.773  11.721  17.480  0.00  0.00    +0.000 HD
ENDBRANCH   3  10
BRANCH   1  21
ATOM     21  N   UNL     1       2.956   4.392  18.095  0.00  0.00    +0.000 N 
ATOM     22  H   UNL     1       2.073   4.211  17.624  0.00  0.00    +0.000 HD
BRANCH  21  30
ATOM     23  C   UNL     1       3.004   2.196  19.218  0.00  0.00    +0.000 C 
ATOM     24  C   UNL     1       1.813   1.666  20.073  0.00  0.00    +0.000 C 
ATOM     25  C   UNL     1       0.574   2.438  19.642  0.00  0.00    +0.000 C 
ATOM     26  C   UNL     1       0.658   3.766  19.822  0.00  0.00    +0.000 C 
ATOM     27  C   UNL     1       1.997   4.235  20.371  0.00  0.00    +0.000 C 
ATOM     28  C   UNL     1       2.200   3.541  21.733  0.00  0.00    +0.000 C 
ATOM     29  C   UNL     1       2.015   2.016  21.571  0.00  0.00    +0.000 C 
ATOM     30  C   UNL     1       3.123   3.737  19.405  0.00  0.00    +0.000 C 
BRANCH  23  32
ATOM     31  O   UNL     1       5.026   1.770  20.490  0.00  0.00    +0.000 OA
ATOM     32  C   UNL     1       4.295   1.472  19.556  0.00  0.00    +0.000 C 
BRANCH  32  33
ATOM     33  O   UNL     1       4.550   0.390  18.795  0.00  0.00    +0.000 OA
ATOM     34  H   UNL     1       5.293  -0.197  19.072  0.00  0.00    +0.000 HD
ENDBRANCH  32  33
ENDBRANCH  23  32
ENDBRANCH  21  30
ENDBRANCH   1  21
TORSDOF 5
ENDMDL
MODEL 9
REMARK VINA RESULT:      -8.0      3.347      6.717
REMARK  Name = 
REMARK  5 active torsions:
REMARK  status: ('A' for Active; 'I' for Inactive)
REMARK    1  A    between atoms: C_2  and  O_3
REMARK    2  A    between atoms: C_2  and  C_4
REMARK    3  A    between atoms: C_11  and  N_12
REMARK    4  A    between atoms: N_12  and  C_13
REMARK    5  A    between atoms: C_15  and  C_16
REMARK                            x       y       z     vdW  Elec       q    Type
REMARK                         _______ _______ _______ _____ _____    ______ ____
ROOT
ATOM      1  C   UNL     1       3.008   6.527  19.518  0.00  0.00    +0.000 A 
ATOM      2  N   UNL     1       4.093   6.240  18.778  0.00  0.00    +0.000 NA
ATOM      3  C   UNL     1       4.439   7.072  17.770  0.00  0.00    +0.000 A 
ATOM      4  N   UNL     1       3.782   8.175  17.387  0.00  0.00    +0.000 NA
ATOM      5  C   UNL     1       2.664   8.439  18.097  0.00  0.00    +0.000 A 
ATOM      6  C   UNL     1       1.782   9.531  17.854  0.00  0.00    +0.000 A 
ATOM      7  C   UNL     1       0.720   9.553  18.729  0.00  0.00    +0.000 A 
ATOM      8  S   UNL     1       0.796   8.267  19.853  0.00  0.00    +0.000 S 
ATOM      9  C   UNL     1       2.248   7.648  19.161  0.00  0.00    +0.000 A 
ENDROOT
BRANCH   3  10
ATOM     10  C   UNL     1       5.644   6.719  17.002  0.00  0.00    +0.000 A 
ATOM     11  N   UNL     1       6.859   7.224  17.307  0.00  0.00    +0.000 NA
ATOM     12  N   UNL     1       7.694   6.654  16.423  0.00  0.00    +0.000 N 
ATOM     13  C   UNL     1       7.080   5.806  15.552  0.00  0.00    +0.000 A 
ATOM     14  N   UNL     1       7.682   5.100  14.574  0.00  0.00    +0.000 NA
ATOM     15  C   UNL     1       6.804   4.339  13.873  0.00  0.00    +0.000 A 
ATOM     16  C   UNL     1       5.436   4.274  14.099  0.00  0.00    +0.000 A 
ATOM     17  F   UNL     1       4.662   3.488  13.339  0.00  0.00    +0.000 F 
ATOM     18  C   UNL     1       4.866   5.027  15.120  0.00  0.00    +0.000 A 
ATOM     19  C   UNL     1       5.734   5.827  15.886  0.00  0.00    +0.000 A 
ATOM     20  H   UNL     1       8.681   6.877  16.464  0.00  0.00    +0.000 HD
ENDBRANCH   3  10
BRANCH   1  21
ATOM     21  N   UNL     1       2.655   5.691  20.559  0.00  0.00    +0.000 N 
ATOM     22  H   UNL     1       2.901   6.053  21.477  0.00  0.00    +0.000 HD
BRANCH  21  30
ATOM     23  C   UNL     1       3.592   3.929  19.107  0.00  0.00    +0.000 C 
ATOM     24  C   UNL     1       2.710   3.092  18.131  0.00  0.00    +0.000 C 
ATOM     25  C   UNL     1       1.434   3.885  17.888  0.00  0.00    +0.000 C 
ATOM     26  C   UNL     1       0.714   4.129  18.995  0.00  0.00    +0.000 C 
ATOM     27  C   UNL     1       1.348   3.608  20.275  0.00  0.00    +0.000 C 
ATOM     28  C   UNL     1       1.507   2.082  20.119  0.00  0.00    +0.000 C 
ATOM     29  C   UNL     1       2.252   1.771  18.803  0.00  0.00    +0.000 C 
ATOM     30  C   UNL     1       2.779   4.231  20.400  0.00  0.00    +0.000 C 
BRANCH  23  32
ATOM     31  O   UNL     1       5.036   2.314  20.198  0.00  0.00    +0.000 OA
ATOM     32  C   UNL     1       4.908   3.233  19.402  0.00  0.00    +0.000 C 
BRANCH  32  33
ATOM     33  O   UNL     1       5.944   3.643  18.644  0.00  0.00    +0.000 OA
ATOM     34  H   UNL     1       5.999   4.604  18.431  0.00  0.00    +0.000 HD
ENDBRANCH  32  33
ENDBRANCH  23  32
ENDBRANCH  21  30
ENDBRANCH   1  21
TORSDOF 5
ENDMDL
