MODEL 1
REMARK VINA RESULT:      -3.5      0.000      0.000
REMARK  Name = 
REMARK  0 active torsions:
REMARK  status: ('A' for Active; 'I' for Inactive)
REMARK                            x       y       z     vdW  Elec       q    Type
REMARK                         _______ _______ _______ _____ _____    ______ ____
ROOT
ATOM      1  S   UNL     1       7.447   4.861  17.883  0.00  0.00    +0.000 S 
ATOM      2  C   UNL     1       7.041   4.662  16.519  0.00  0.00    +0.000 C 
ATOM      3  N   UNL     1       7.513   5.417  15.442  0.00  0.00    +0.000 N 
ATOM      4  C   UNL     1       6.966   4.874  14.224  0.00  0.00    +0.000 C 
ATOM      5  C   UNL     1       5.946   3.796  14.682  0.00  0.00    +0.000 C 
ATOM      6  N   UNL     1       6.141   3.675  16.105  0.00  0.00    +0.000 N 
ATOM      7  H   UNL     1       8.216   6.171  15.493  0.00  0.00    +0.000 HD
ATOM      8  H   UNL     1       5.631   3.027  16.723  0.00  0.00    +0.000 HD
ENDROOT
TORSDOF 0
ENDMDL
MODEL 2
REMARK VINA RESULT:      -3.5      2.156      3.052
REMARK  Name = 
REMARK  0 active torsions:
REMARK  status: ('A' for Active; 'I' for Inactive)
REMARK                            x       y       z     vdW  Elec       q    Type
REMARK                         _______ _______ _______ _____ _____    ______ ____
ROOT
ATOM      1  S   UNL     1       6.592   4.152  15.617  0.00  0.00    +0.000 S 
ATOM      2  C   UNL     1       7.044   4.950  16.723  0.00  0.00    +0.000 C 
ATOM      3  N   UNL     1       7.329   6.315  16.641  0.00  0.00    +0.000 N 
ATOM      4  C   UNL     1       7.659   6.798  17.958  0.00  0.00    +0.000 C 
ATOM      5  C   UNL     1       7.723   5.529  18.851  0.00  0.00    +0.000 C 
ATOM      6  N   UNL     1       7.232   4.458  18.018  0.00  0.00    +0.000 N 
ATOM      7  H   UNL     1       7.223   6.906  15.801  0.00  0.00    +0.000 HD
ATOM      8  H   UNL     1       7.126   3.476  18.313  0.00  0.00    +0.000 HD
ENDROOT
TORSDOF 0
ENDMDL
MODEL 3
REMARK VINA RESULT:      -3.5      0.226      1.623
REMARK  Name = 
REMARK  0 active torsions:
REMARK  status: ('A' for Active; 'I' for Inactive)
REMARK                            x       y       z     vdW  Elec       q    Type
REMARK                         _______ _______ _______ _____ _____    ______ ____
ROOT
ATOM      1  S   UNL     1       7.435   5.095  18.045  0.00  0.00    +0.000 S 
ATOM      2  C   UNL     1       7.055   4.782  16.696  0.00  0.00    +0.000 C 
ATOM      3  N   UNL     1       6.201   3.733  16.345  0.00  0.00    +0.000 N 
ATOM      4  C   UNL     1       5.971   3.782  14.923  0.00  0.00    +0.000 C 
ATOM      5  C   UNL     1       6.932   4.882  14.394  0.00  0.00    +0.000 C 
ATOM      6  N   UNL     1       7.480   5.502  15.575  0.00  0.00    +0.000 N 
ATOM      7  H   UNL     1       5.728   3.092  17.001  0.00  0.00    +0.000 HD
ATOM      8  H   UNL     1       8.145   6.289  15.580  0.00  0.00    +0.000 HD
ENDROOT
TORSDOF 0
ENDMDL
MODEL 4
REMARK VINA RESULT:      -3.4      1.933      3.088
REMARK  Name = 
REMARK  0 active torsions:
REMARK  status: ('A' for Active; 'I' for Inactive)
REMARK                            x       y       z     vdW  Elec       q    Type
REMARK                         _______ _______ _______ _____ _____    ______ ____
ROOT
ATOM      1  S   UNL     1       6.570   4.392  14.522  0.00  0.00    +0.000 S 
ATOM      2  C   UNL     1       6.880   4.926  15.820  0.00  0.00    +0.000 C 
ATOM      3  N   UNL     1       6.853   4.181  17.002  0.00  0.00    +0.000 N 
ATOM      4  C   UNL     1       7.312   5.015  18.083  0.00  0.00    +0.000 C 
ATOM      5  C   UNL     1       7.461   6.433  17.468  0.00  0.00    +0.000 C 
ATOM      6  N   UNL     1       7.268   6.249  16.050  0.00  0.00    +0.000 N 
ATOM      7  H   UNL     1       6.638   3.174  17.078  0.00  0.00    +0.000 HD
ATOM      8  H   UNL     1       7.320   6.995  15.341  0.00  0.00    +0.000 HD
ENDROOT
TORSDOF 0
ENDMDL
MODEL 5
REMARK VINA RESULT:      -3.3      1.978      3.003
REMARK  Name = 
REMARK  0 active torsions:
REMARK  status: ('A' for Active; 'I' for Inactive)
REMARK                            x       y       z     vdW  Elec       q    Type
REMARK                         _______ _______ _______ _____ _____    ______ ____
ROOT
ATOM      1  S   UNL     1       6.300   4.158  14.396  0.00  0.00    +0.000 S 
ATOM      2  C   UNL     1       6.497   4.359  15.805  0.00  0.00    +0.000 C 
ATOM      3  N   UNL     1       5.461   4.419  16.741  0.00  0.00    +0.000 N 
ATOM      4  C   UNL     1       6.036   4.532  18.058  0.00  0.00    +0.000 C 
ATOM      5  C   UNL     1       7.560   4.718  17.821  0.00  0.00    +0.000 C 
ATOM      6  N   UNL     1       7.750   4.498  16.409  0.00  0.00    +0.000 N 
ATOM      7  H   UNL     1       4.456   4.299  16.540  0.00  0.00    +0.000 HD
ATOM      8  H   UNL     1       8.656   4.529  15.919  0.00  0.00    +0.000 HD
ENDROOT
TORSDOF 0
ENDMDL
MODEL 6
REMARK VINA RESULT:      -3.3      1.980      2.678
REMARK  Name = 
REMARK  0 active torsions:
REMARK  status: ('A' for Active; 'I' for Inactive)
REMARK                            x       y       z     vdW  Elec       q    Type
REMARK                         _______ _______ _______ _____ _____    ______ ____
ROOT
ATOM      1  S   UNL     1       6.264   4.106  14.368  0.00  0.00    +0.000 S 
ATOM      2  C   UNL     1       6.474   4.304  15.775  0.00  0.00    +0.000 C 
ATOM      3  N   UNL     1       7.729   4.492  16.362  0.00  0.00    +0.000 N 
ATOM      4  C   UNL     1       7.546   4.754  17.768  0.00  0.00    +0.000 C 
ATOM      5  C   UNL     1       6.031   4.529  18.029  0.00  0.00    +0.000 C 
ATOM      6  N   UNL     1       5.447   4.353  16.722  0.00  0.00    +0.000 N 
ATOM      7  H   UNL     1       8.630   4.539  15.862  0.00  0.00    +0.000 HD
ATOM      8  H   UNL     1       4.445   4.200  16.534  0.00  0.00    +0.000 HD
ENDROOT
TORSDOF 0
ENDMDL
MODEL 7
REMARK VINA RESULT:      -3.2      2.046      2.813
REMARK  Name = 
REMARK  0 active torsions:
REMARK  status: ('A' for Active; 'I' for Inactive)
REMARK                            x       y       z     vdW  Elec       q    Type
REMARK                         _______ _______ _______ _____ _____    ______ ____
ROOT
ATOM      1  S   UNL     1       6.654   4.490  14.441  0.00  0.00    +0.000 S 
ATOM      2  C   UNL     1       6.902   4.972  15.770  0.00  0.00    +0.000 C 
ATOM      3  N   UNL     1       6.474   6.214  16.247  0.00  0.00    +0.000 N 
ATOM      4  C   UNL     1       6.816   6.315  17.644  0.00  0.00    +0.000 C 
ATOM      5  C   UNL     1       7.674   5.056  17.943  0.00  0.00    +0.000 C 
ATOM      6  N   UNL     1       7.584   4.248  16.753  0.00  0.00    +0.000 N 
ATOM      7  H   UNL     1       5.916   6.905  15.721  0.00  0.00    +0.000 HD
ATOM      8  H   UNL     1       8.028   3.326  16.623  0.00  0.00    +0.000 HD
ENDROOT
TORSDOF 0
ENDMDL
MODEL 8
REMARK VINA RESULT:      -3.2      2.642      3.430
REMARK  Name = 
REMARK  0 active torsions:
REMARK  status: ('A' for Active; 'I' for Inactive)
REMARK                            x       y       z     vdW  Elec       q    Type
REMARK                         _______ _______ _______ _____ _____    ______ ____
ROOT
ATOM      1  S   UNL     1       4.301   3.800  19.077  0.00  0.00    +0.000 S 
ATOM      2  C   UNL     1       5.580   4.288  18.640  0.00  0.00    +0.000 C 
ATOM      3  N   UNL     1       6.161   3.973  17.408  0.00  0.00    +0.000 N 
ATOM      4  C   UNL     1       7.389   4.715  17.275  0.00  0.00    +0.000 C 
ATOM      5  C   UNL     1       7.602   5.398  18.653  0.00  0.00    +0.000 C 
ATOM      6  N   UNL     1       6.386   5.153  19.386  0.00  0.00    +0.000 N 
ATOM      7  H   UNL     1       5.737   3.388  16.671  0.00  0.00    +0.000 HD
ATOM      8  H   UNL     1       6.187   5.489  20.340  0.00  0.00    +0.000 HD
ENDROOT
TORSDOF 0
ENDMDL
MODEL 9
REMARK VINA RESULT:      -3.2      4.317      4.741
REMARK  Name = 
REMARK  0 active torsions:
REMARK  status: ('A' for Active; 'I' for Inactive)
REMARK                            x       y       z     vdW  Elec       q    Type
REMARK                         _______ _______ _______ _____ _____    ______ ____
ROOT
ATOM      1  S   UNL     1       3.458   1.875  18.507  0.00  0.00    +0.000 S 
ATOM      2  C   UNL     1       4.003   3.164  18.829  0.00  0.00    +0.000 C 
ATOM      3  N   UNL     1       5.370   3.433  18.936  0.00  0.00    +0.000 N 
ATOM      4  C   UNL     1       5.545   4.844  19.173  0.00  0.00    +0.000 C 
ATOM      5  C   UNL     1       4.111   5.401  19.383  0.00  0.00    +0.000 C 
ATOM      6  N   UNL     1       3.231   4.308  19.053  0.00  0.00    +0.000 N 
ATOM      7  H   UNL     1       6.135   2.759  18.772  0.00  0.00    +0.000 HD
ATOM      8  H   UNL     1       2.201   4.347  19.069  0.00  0.00    +0.000 HD
ENDROOT
TORSDOF 0
ENDMDL
