MODEL 1
REMARK VINA RESULT:      -7.6      0.000      0.000
REMARK  Name = 
REMARK  6 active torsions:
REMARK  status: ('A' for Active; 'I' for Inactive)
REMARK    1  A    between atoms: C_1  and  O_2
REMARK    2  A    between atoms: O_2  and  C_3
REMARK    3  A    between atoms: N_10  and  C_11
REMARK    4  A    between atoms: C_16  and  O_17
REMARK    5  A    between atoms: C_20  and  O_21
REMARK    6  A    between atoms: O_21  and  C_22
REMARK                            x       y       z     vdW  Elec       q    Type
REMARK                         _______ _______ _______ _____ _____    ______ ____
ROOT
ATOM      1  C   UNL     1       6.043   4.621  16.031  0.00  0.00    +0.000 A 
ATOM      2  C   UNL     1       4.849   3.952  16.352  0.00  0.00    +0.000 A 
ATOM      3  C   UNL     1       3.841   4.532  17.105  0.00  0.00    +0.000 A 
ATOM      4  N   UNL     1       2.730   3.825  17.308  0.00  0.00    +0.000 NA
ATOM      5  C   UNL     1       1.759   4.430  17.993  0.00  0.00    +0.000 A 
ATOM      6  N   UNL     1       1.800   5.671  18.466  0.00  0.00    +0.000 NA
ATOM      7  C   UNL     1       2.917   6.394  18.245  0.00  0.00    +0.000 A 
ATOM      8  N   UNL     1       2.916   7.767  18.583  0.00  0.00    +0.000 N 
ATOM      9  C   UNL     1       4.024   5.838  17.577  0.00  0.00    +0.000 A 
ATOM     10  C   UNL     1       5.252   6.488  17.331  0.00  0.00    +0.000 A 
ATOM     11  C   UNL     1       6.264   5.896  16.560  0.00  0.00    +0.000 A 
ATOM     12  H   UNL     1       3.747   8.060  19.090  0.00  0.00    +0.000 HD
ENDROOT
BRANCH   8  13
ATOM     13  C   UNL     1       1.804   8.557  18.961  0.00  0.00    +0.000 A 
ATOM     14  C   UNL     1       1.174   9.439  18.077  0.00  0.00    +0.000 A 
ATOM     15  C   UNL     1       0.055  10.172  18.462  0.00  0.00    +0.000 A 
ATOM     16  C   UNL     1      -0.422  10.083  19.763  0.00  0.00    +0.000 A 
ATOM     17  C   UNL     1       0.237   9.273  20.689  0.00  0.00    +0.000 A 
ATOM     18  C   UNL     1       1.342   8.522  20.284  0.00  0.00    +0.000 A 
BRANCH  18  19
ATOM     19  O   UNL     1       1.995   7.708  21.178  0.00  0.00    +0.000 OA
ATOM     20  H   UNL     1       1.456   6.909  21.302  0.00  0.00    +0.000 HD
ENDBRANCH  18  19
ENDBRANCH   8  13
BRANCH   1  22
ATOM     21  C   UNL     1       6.699   4.021  13.839  0.00  0.00    +0.000 C 
ATOM     22  O   UNL     1       6.989   4.026  15.240  0.00  0.00    +0.000 OA
ENDBRANCH   1  22
BRANCH  11  23
ATOM     23  O   UNL     1       7.342   6.723  16.434  0.00  0.00    +0.000 OA
ATOM     24  C   UNL     1       7.585   7.741  17.390  0.00  0.00    +0.000 C 
ENDBRANCH  11  23
TORSDOF 4
ENDMDL
MODEL 2
REMARK VINA RESULT:      -7.6      0.978      1.412
REMARK  Name = 
REMARK  6 active torsions:
REMARK  status: ('A' for Active; 'I' for Inactive)
REMARK    1  A    between atoms: C_1  and  O_2
REMARK    2  A    between atoms: O_2  and  C_3
REMARK    3  A    between atoms: N_10  and  C_11
REMARK    4  A    between atoms: C_16  and  O_17
REMARK    5  A    between atoms: C_20  and  O_21
REMARK    6  A    between atoms: O_21  and  C_22
REMARK                            x       y       z     vdW  Elec       q    Type
REMARK                         _______ _______ _______ _____ _____    ______ ____
ROOT
ATOM      1  C   UNL     1       6.002   4.594  15.913  0.00  0.00    +0.000 A 
ATOM      2  C   UNL     1       4.809   3.910  16.207  0.00  0.00    +0.000 A 
ATOM      3  C   UNL     1       3.842   4.416  17.061  0.00  0.00    +0.000 A 
ATOM      4  N   UNL     1       2.727   3.706  17.229  0.00  0.00    +0.000 NA
ATOM      5  C   UNL     1       1.796   4.244  18.016  0.00  0.00    +0.000 A 
ATOM      6  N   UNL     1       1.879   5.424  18.623  0.00  0.00    +0.000 NA
ATOM      7  C   UNL     1       3.000   6.151  18.439  0.00  0.00    +0.000 A 
ATOM      8  N   UNL     1       3.038   7.477  18.928  0.00  0.00    +0.000 N 
ATOM      9  C   UNL     1       4.069   5.657  17.668  0.00  0.00    +0.000 A 
ATOM     10  C   UNL     1       5.299   6.313  17.445  0.00  0.00    +0.000 A 
ATOM     11  C   UNL     1       6.268   5.797  16.571  0.00  0.00    +0.000 A 
ATOM     12  H   UNL     1       3.894   7.699  19.430  0.00  0.00    +0.000 HD
ENDROOT
BRANCH   8  13
ATOM     13  C   UNL     1       1.958   8.235  19.437  0.00  0.00    +0.000 A 
ATOM     14  C   UNL     1       1.400   7.998  20.698  0.00  0.00    +0.000 A 
ATOM     15  C   UNL     1       0.366   8.789  21.192  0.00  0.00    +0.000 A 
ATOM     16  C   UNL     1      -0.175   9.798  20.406  0.00  0.00    +0.000 A 
ATOM     17  C   UNL     1       0.307  10.004  19.113  0.00  0.00    +0.000 A 
ATOM     18  C   UNL     1       1.362   9.222  18.639  0.00  0.00    +0.000 A 
BRANCH  18  19
ATOM     19  O   UNL     1       1.859   9.419  17.372  0.00  0.00    +0.000 OA
ATOM     20  H   UNL     1       2.826   9.330  17.416  0.00  0.00    +0.000 HD
ENDBRANCH  18  19
ENDBRANCH   8  13
BRANCH   1  22
ATOM     21  C   UNL     1       6.429   3.945  13.679  0.00  0.00    +0.000 C 
ATOM     22  O   UNL     1       6.904   4.077  15.023  0.00  0.00    +0.000 OA
ENDBRANCH   1  22
BRANCH  11  23
ATOM     23  O   UNL     1       7.355   6.618  16.494  0.00  0.00    +0.000 OA
ATOM     24  C   UNL     1       7.588   7.601  17.489  0.00  0.00    +0.000 C 
ENDBRANCH  11  23
TORSDOF 4
ENDMDL
MODEL 3
REMARK VINA RESULT:      -7.1      3.597      4.873
REMARK  Name = 
REMARK  6 active torsions:
REMARK  status: ('A' for Active; 'I' for Inactive)
REMARK    1  A    between atoms: C_1  and  O_2
REMARK    2  A    between atoms: O_2  and  C_3
REMARK    3  A    between atoms: N_10  and  C_11
REMARK    4  A    between atoms: C_16  and  O_17
REMARK    5  A    between atoms: C_20  and  O_21
REMARK    6  A    between atoms: O_21  and  C_22
REMARK                            x       y       z     vdW  Elec       q    Type
REMARK                         _______ _______ _______ _____ _____    ______ ____
ROOT
ATOM      1  C   UNL     1       7.016   4.703  14.215  0.00  0.00    +0.000 A 
ATOM      2  C   UNL     1       7.544   5.201  15.420  0.00  0.00    +0.000 A 
ATOM      3  C   UNL     1       6.821   5.234  16.601  0.00  0.00    +0.000 A 
ATOM      4  N   UNL     1       7.437   5.680  17.695  0.00  0.00    +0.000 NA
ATOM      5  C   UNL     1       6.731   5.651  18.826  0.00  0.00    +0.000 A 
ATOM      6  N   UNL     1       5.487   5.201  18.953  0.00  0.00    +0.000 NA
ATOM      7  C   UNL     1       4.869   4.732  17.850  0.00  0.00    +0.000 A 
ATOM      8  N   UNL     1       3.618   4.090  17.992  0.00  0.00    +0.000 N 
ATOM      9  C   UNL     1       5.503   4.762  16.593  0.00  0.00    +0.000 A 
ATOM     10  C   UNL     1       4.936   4.338  15.372  0.00  0.00    +0.000 A 
ATOM     11  C   UNL     1       5.678   4.300  14.182  0.00  0.00    +0.000 A 
ATOM     12  H   UNL     1       2.924   4.400  17.317  0.00  0.00    +0.000 HD
ENDROOT
BRANCH   8  13
ATOM     13  C   UNL     1       2.990   3.691  19.196  0.00  0.00    +0.000 A 
ATOM     14  C   UNL     1       1.772   4.230  19.623  0.00  0.00    +0.000 A 
ATOM     15  C   UNL     1       1.155   3.786  20.790  0.00  0.00    +0.000 A 
ATOM     16  C   UNL     1       1.777   2.835  21.588  0.00  0.00    +0.000 A 
ATOM     17  C   UNL     1       3.031   2.341  21.229  0.00  0.00    +0.000 A 
ATOM     18  C   UNL     1       3.627   2.773  20.043  0.00  0.00    +0.000 A 
BRANCH  18  19
ATOM     19  O   UNL     1       4.857   2.287  19.666  0.00  0.00    +0.000 OA
ATOM     20  H   UNL     1       4.925   2.371  18.699  0.00  0.00    +0.000 HD
ENDBRANCH  18  19
ENDBRANCH   8  13
BRANCH   1  22
ATOM     21  C   UNL     1       8.424   5.869  12.715  0.00  0.00    +0.000 C 
ATOM     22  O   UNL     1       7.785   4.643  13.085  0.00  0.00    +0.000 OA
ENDBRANCH   1  22
BRANCH  11  23
ATOM     23  O   UNL     1       4.930   3.828  13.144  0.00  0.00    +0.000 OA
ATOM     24  C   UNL     1       5.534   3.084  12.099  0.00  0.00    +0.000 C 
ENDBRANCH  11  23
TORSDOF 4
ENDMDL
MODEL 4
REMARK VINA RESULT:      -7.1      3.444      7.382
REMARK  Name = 
REMARK  6 active torsions:
REMARK  status: ('A' for Active; 'I' for Inactive)
REMARK    1  A    between atoms: C_1  and  O_2
REMARK    2  A    between atoms: O_2  and  C_3
REMARK    3  A    between atoms: N_10  and  C_11
REMARK    4  A    between atoms: C_16  and  O_17
REMARK    5  A    between atoms: C_20  and  O_21
REMARK    6  A    between atoms: O_21  and  C_22
REMARK                            x       y       z     vdW  Elec       q    Type
REMARK                         _______ _______ _______ _____ _____    ______ ____
ROOT
ATOM      1  C   UNL     1       0.360  11.418  20.288  0.00  0.00    +0.000 A 
ATOM      2  C   UNL     1       0.902  11.012  19.056  0.00  0.00    +0.000 A 
ATOM      3  C   UNL     1       1.468   9.763  18.858  0.00  0.00    +0.000 A 
ATOM      4  N   UNL     1       1.907   9.465  17.636  0.00  0.00    +0.000 NA
ATOM      5  C   UNL     1       2.399   8.238  17.465  0.00  0.00    +0.000 A 
ATOM      6  N   UNL     1       2.469   7.294  18.398  0.00  0.00    +0.000 NA
ATOM      7  C   UNL     1       2.008   7.588  19.630  0.00  0.00    +0.000 A 
ATOM      8  N   UNL     1       1.911   6.550  20.585  0.00  0.00    +0.000 N 
ATOM      9  C   UNL     1       1.513   8.870  19.936  0.00  0.00    +0.000 A 
ATOM     10  C   UNL     1       1.048   9.297  21.198  0.00  0.00    +0.000 A 
ATOM     11  C   UNL     1       0.468  10.560  21.386  0.00  0.00    +0.000 A 
ATOM     12  H   UNL     1       2.281   6.803  21.498  0.00  0.00    +0.000 HD
ENDROOT
BRANCH   8  13
ATOM     13  C   UNL     1       2.057   5.161  20.361  0.00  0.00    +0.000 A 
ATOM     14  C   UNL     1       0.995   4.260  20.499  0.00  0.00    +0.000 A 
ATOM     15  C   UNL     1       1.158   2.904  20.229  0.00  0.00    +0.000 A 
ATOM     16  C   UNL     1       2.406   2.410  19.874  0.00  0.00    +0.000 A 
ATOM     17  C   UNL     1       3.501   3.272  19.808  0.00  0.00    +0.000 A 
ATOM     18  C   UNL     1       3.321   4.634  20.055  0.00  0.00    +0.000 A 
BRANCH  18  19
ATOM     19  O   UNL     1       4.384   5.501  19.982  0.00  0.00    +0.000 OA
ATOM     20  H   UNL     1       4.259   6.183  20.664  0.00  0.00    +0.000 HD
ENDBRANCH  18  19
ENDBRANCH   8  13
BRANCH   1  22
ATOM     21  C   UNL     1       0.645  13.715  20.770  0.00  0.00    +0.000 C 
ATOM     22  O   UNL     1      -0.236  12.643  20.422  0.00  0.00    +0.000 OA
ENDBRANCH   1  22
BRANCH  11  23
ATOM     23  O   UNL     1       0.066  10.735  22.679  0.00  0.00    +0.000 OA
ATOM     24  C   UNL     1      -0.308   9.623  23.474  0.00  0.00    +0.000 C 
ENDBRANCH  11  23
TORSDOF 4
ENDMDL
MODEL 5
REMARK VINA RESULT:      -7.1      2.913      7.184
REMARK  Name = 
REMARK  6 active torsions:
REMARK  status: ('A' for Active; 'I' for Inactive)
REMARK    1  A    between atoms: C_1  and  O_2
REMARK    2  A    between atoms: O_2  and  C_3
REMARK    3  A    between atoms: N_10  and  C_11
REMARK    4  A    between atoms: C_16  and  O_17
REMARK    5  A    between atoms: C_20  and  O_21
REMARK    6  A    between atoms: O_21  and  C_22
REMARK                            x       y       z     vdW  Elec       q    Type
REMARK                         _______ _______ _______ _____ _____    ______ ____
ROOT
ATOM      1  C   UNL     1       2.990   4.554  19.871  0.00  0.00    +0.000 A 
ATOM      2  C   UNL     1       3.102   5.809  19.247  0.00  0.00    +0.000 A 
ATOM      3  C   UNL     1       3.865   6.018  18.109  0.00  0.00    +0.000 A 
ATOM      4  N   UNL     1       3.859   7.237  17.572  0.00  0.00    +0.000 NA
ATOM      5  C   UNL     1       4.562   7.393  16.450  0.00  0.00    +0.000 A 
ATOM      6  N   UNL     1       5.241   6.440  15.821  0.00  0.00    +0.000 NA
ATOM      7  C   UNL     1       5.233   5.201  16.354  0.00  0.00    +0.000 A 
ATOM      8  N   UNL     1       5.799   4.138  15.614  0.00  0.00    +0.000 N 
ATOM      9  C   UNL     1       4.565   4.935  17.564  0.00  0.00    +0.000 A 
ATOM     10  C   UNL     1       4.527   3.691  18.230  0.00  0.00    +0.000 A 
ATOM     11  C   UNL     1       3.744   3.486  19.376  0.00  0.00    +0.000 A 
ATOM     12  H   UNL     1       6.409   3.541  16.165  0.00  0.00    +0.000 HD
ENDROOT
BRANCH   8  13
ATOM     13  C   UNL     1       6.221   4.162  14.263  0.00  0.00    +0.000 A 
ATOM     14  C   UNL     1       5.641   3.353  13.280  0.00  0.00    +0.000 A 
ATOM     15  C   UNL     1       6.046   3.430  11.950  0.00  0.00    +0.000 A 
ATOM     16  C   UNL     1       7.085   4.275  11.586  0.00  0.00    +0.000 A 
ATOM     17  C   UNL     1       7.736   5.033  12.560  0.00  0.00    +0.000 A 
ATOM     18  C   UNL     1       7.304   4.969  13.886  0.00  0.00    +0.000 A 
BRANCH  18  19
ATOM     19  O   UNL     1       7.924   5.718  14.857  0.00  0.00    +0.000 OA
ATOM     20  H   UNL     1       8.882   5.685  14.691  0.00  0.00    +0.000 HD
ENDBRANCH  18  19
ENDBRANCH   8  13
BRANCH   1  22
ATOM     21  C   UNL     1       1.046   3.540  20.758  0.00  0.00    +0.000 C 
ATOM     22  O   UNL     1       2.183   4.384  20.964  0.00  0.00    +0.000 OA
ENDBRANCH   1  22
BRANCH  11  23
ATOM     23  O   UNL     1       3.843   2.201  19.823  0.00  0.00    +0.000 OA
ATOM     24  C   UNL     1       3.801   1.115  18.911  0.00  0.00    +0.000 C 
ENDBRANCH  11  23
TORSDOF 4
ENDMDL
MODEL 6
REMARK VINA RESULT:      -6.7      3.196      7.299
REMARK  Name = 
REMARK  6 active torsions:
REMARK  status: ('A' for Active; 'I' for Inactive)
REMARK    1  A    between atoms: C_1  and  O_2
REMARK    2  A    between atoms: O_2  and  C_3
REMARK    3  A    between atoms: N_10  and  C_11
REMARK    4  A    between atoms: C_16  and  O_17
REMARK    5  A    between atoms: C_20  and  O_21
REMARK    6  A    between atoms: O_21  and  C_22
REMARK                            x       y       z     vdW  Elec       q    Type
REMARK                         _______ _______ _______ _____ _____    ______ ____
ROOT
ATOM      1  C   UNL     1       0.262  10.031  20.176  0.00  0.00    +0.000 A 
ATOM      2  C   UNL     1       1.100   9.973  19.048  0.00  0.00    +0.000 A 
ATOM      3  C   UNL     1       1.865   8.860  18.737  0.00  0.00    +0.000 A 
ATOM      4  N   UNL     1       2.586   8.895  17.617  0.00  0.00    +0.000 NA
ATOM      5  C   UNL     1       3.271   7.791  17.319  0.00  0.00    +0.000 A 
ATOM      6  N   UNL     1       3.278   6.667  18.027  0.00  0.00    +0.000 NA
ATOM      7  C   UNL     1       2.534   6.624  19.152  0.00  0.00    +0.000 A 
ATOM      8  N   UNL     1       2.387   5.390  19.824  0.00  0.00    +0.000 N 
ATOM      9  C   UNL     1       1.811   7.751  19.589  0.00  0.00    +0.000 A 
ATOM     10  C   UNL     1       1.038   7.830  20.766  0.00  0.00    +0.000 A 
ATOM     11  C   UNL     1       0.259   8.957  21.069  0.00  0.00    +0.000 A 
ATOM     12  H   UNL     1       2.520   5.457  20.830  0.00  0.00    +0.000 HD
ENDROOT
BRANCH   8  13
ATOM     13  C   UNL     1       2.772   4.109  19.361  0.00  0.00    +0.000 A 
ATOM     14  C   UNL     1       3.809   3.377  19.949  0.00  0.00    +0.000 A 
ATOM     15  C   UNL     1       4.136   2.100  19.500  0.00  0.00    +0.000 A 
ATOM     16  C   UNL     1       3.472   1.553  18.411  0.00  0.00    +0.000 A 
ATOM     17  C   UNL     1       2.490   2.294  17.754  0.00  0.00    +0.000 A 
ATOM     18  C   UNL     1       2.150   3.562  18.229  0.00  0.00    +0.000 A 
BRANCH  18  19
ATOM     19  O   UNL     1       1.176   4.302  17.603  0.00  0.00    +0.000 OA
ATOM     20  H   UNL     1       1.241   5.215  17.929  0.00  0.00    +0.000 HD
ENDBRANCH  18  19
ENDBRANCH   8  13
BRANCH   1  22
ATOM     21  C   UNL     1       0.178  12.264  20.953  0.00  0.00    +0.000 C 
ATOM     22  O   UNL     1      -0.515  11.133  20.415  0.00  0.00    +0.000 OA
ENDBRANCH   1  22
BRANCH  11  23
ATOM     23  O   UNL     1      -0.423   8.791  22.239  0.00  0.00    +0.000 OA
ATOM     24  C   UNL     1      -0.034   9.495  23.407  0.00  0.00    +0.000 C 
ENDBRANCH  11  23
TORSDOF 4
ENDMDL
MODEL 7
REMARK VINA RESULT:      -6.6      1.502      1.990
REMARK  Name = 
REMARK  6 active torsions:
REMARK  status: ('A' for Active; 'I' for Inactive)
REMARK    1  A    between atoms: C_1  and  O_2
REMARK    2  A    between atoms: O_2  and  C_3
REMARK    3  A    between atoms: N_10  and  C_11
REMARK    4  A    between atoms: C_16  and  O_17
REMARK    5  A    between atoms: C_20  and  O_21
REMARK    6  A    between atoms: O_21  and  C_22
REMARK                            x       y       z     vdW  Elec       q    Type
REMARK                         _______ _______ _______ _____ _____    ______ ____
ROOT
ATOM      1  C   UNL     1       4.878   4.410  16.820  0.00  0.00    +0.000 A 
ATOM      2  C   UNL     1       3.887   3.744  17.561  0.00  0.00    +0.000 A 
ATOM      3  C   UNL     1       3.111   4.377  18.519  0.00  0.00    +0.000 A 
ATOM      4  N   UNL     1       2.166   3.661  19.126  0.00  0.00    +0.000 NA
ATOM      5  C   UNL     1       1.403   4.312  20.005  0.00  0.00    +0.000 A 
ATOM      6  N   UNL     1       1.495   5.602  20.307  0.00  0.00    +0.000 NA
ATOM      7  C   UNL     1       2.440   6.332  19.680  0.00  0.00    +0.000 A 
ATOM      8  N   UNL     1       2.442   7.735  19.852  0.00  0.00    +0.000 N 
ATOM      9  C   UNL     1       3.334   5.736  18.769  0.00  0.00    +0.000 A 
ATOM     10  C   UNL     1       4.382   6.394  18.091  0.00  0.00    +0.000 A 
ATOM     11  C   UNL     1       5.156   5.747  17.116  0.00  0.00    +0.000 A 
ATOM     12  H   UNL     1       3.364   8.118  20.046  0.00  0.00    +0.000 HD
ENDROOT
BRANCH   8  13
ATOM     13  C   UNL     1       1.441   8.526  20.464  0.00  0.00    +0.000 A 
ATOM     14  C   UNL     1       1.121   8.416  21.821  0.00  0.00    +0.000 A 
ATOM     15  C   UNL     1       0.162   9.239  22.406  0.00  0.00    +0.000 A 
ATOM     16  C   UNL     1      -0.543  10.148  21.629  0.00  0.00    +0.000 A 
ATOM     17  C   UNL     1      -0.302  10.222  20.257  0.00  0.00    +0.000 A 
ATOM     18  C   UNL     1       0.681   9.412  19.686  0.00  0.00    +0.000 A 
BRANCH  18  19
ATOM     19  O   UNL     1       0.942   9.479  18.339  0.00  0.00    +0.000 OA
ATOM     20  H   UNL     1       0.250   8.976  17.877  0.00  0.00    +0.000 HD
ENDBRANCH  18  19
ENDBRANCH   8  13
BRANCH   1  22
ATOM     21  C   UNL     1       5.434   4.280  14.524  0.00  0.00    +0.000 C 
ATOM     22  O   UNL     1       5.585   3.755  15.847  0.00  0.00    +0.000 OA
ENDBRANCH   1  22
BRANCH  11  23
ATOM     23  O   UNL     1       6.085   6.590  16.578  0.00  0.00    +0.000 OA
ATOM     24  C   UNL     1       7.324   6.809  17.232  0.00  0.00    +0.000 C 
ENDBRANCH  11  23
TORSDOF 4
ENDMDL
MODEL 8
REMARK VINA RESULT:      -6.6      3.470      5.167
REMARK  Name = 
REMARK  6 active torsions:
REMARK  status: ('A' for Active; 'I' for Inactive)
REMARK    1  A    between atoms: C_1  and  O_2
REMARK    2  A    between atoms: O_2  and  C_3
REMARK    3  A    between atoms: N_10  and  C_11
REMARK    4  A    between atoms: C_16  and  O_17
REMARK    5  A    between atoms: C_20  and  O_21
REMARK    6  A    between atoms: O_21  and  C_22
REMARK                            x       y       z     vdW  Elec       q    Type
REMARK                         _______ _______ _______ _____ _____    ______ ____
ROOT
ATOM      1  C   UNL     1       6.729   3.896  12.568  0.00  0.00    +0.000 A 
ATOM      2  C   UNL     1       7.401   4.643  13.552  0.00  0.00    +0.000 A 
ATOM      3  C   UNL     1       6.823   4.979  14.766  0.00  0.00    +0.000 A 
ATOM      4  N   UNL     1       7.569   5.647  15.646  0.00  0.00    +0.000 NA
ATOM      5  C   UNL     1       7.002   5.910  16.823  0.00  0.00    +0.000 A 
ATOM      6  N   UNL     1       5.778   5.549  17.194  0.00  0.00    +0.000 NA
ATOM      7  C   UNL     1       5.029   4.857  16.311  0.00  0.00    +0.000 A 
ATOM      8  N   UNL     1       3.798   4.313  16.742  0.00  0.00    +0.000 N 
ATOM      9  C   UNL     1       5.509   4.567  15.019  0.00  0.00    +0.000 A 
ATOM     10  C   UNL     1       4.798   3.890  14.007  0.00  0.00    +0.000 A 
ATOM     11  C   UNL     1       5.394   3.546  12.783  0.00  0.00    +0.000 A 
ATOM     12  H   UNL     1       3.032   4.480  16.096  0.00  0.00    +0.000 HD
ENDROOT
BRANCH   8  13
ATOM     13  C   UNL     1       3.314   4.231  18.069  0.00  0.00    +0.000 A 
ATOM     14  C   UNL     1       2.609   5.275  18.678  0.00  0.00    +0.000 A 
ATOM     15  C   UNL     1       2.105   5.149  19.970  0.00  0.00    +0.000 A 
ATOM     16  C   UNL     1       2.351   3.997  20.705  0.00  0.00    +0.000 A 
ATOM     17  C   UNL     1       3.122   2.974  20.152  0.00  0.00    +0.000 A 
ATOM     18  C   UNL     1       3.598   3.098  18.846  0.00  0.00    +0.000 A 
BRANCH  18  19
ATOM     19  O   UNL     1       4.347   2.095  18.280  0.00  0.00    +0.000 OA
ATOM     20  H   UNL     1       5.171   2.491  17.948  0.00  0.00    +0.000 HD
ENDBRANCH  18  19
ENDBRANCH   8  13
BRANCH   1  22
ATOM     21  C   UNL     1       7.446   2.137  11.159  0.00  0.00    +0.000 C 
ATOM     22  O   UNL     1       7.359   3.544  11.405  0.00  0.00    +0.000 OA
ENDBRANCH   1  22
BRANCH  11  23
ATOM     23  O   UNL     1       4.523   2.871  11.978  0.00  0.00    +0.000 OA
ATOM     24  C   UNL     1       3.835   3.543  10.937  0.00  0.00    +0.000 C 
ENDBRANCH  11  23
TORSDOF 4
ENDMDL
MODEL 9
REMARK VINA RESULT:      -6.5      3.684      7.445
REMARK  Name = 
REMARK  6 active torsions:
REMARK  status: ('A' for Active; 'I' for Inactive)
REMARK    1  A    between atoms: C_1  and  O_2
REMARK    2  A    between atoms: O_2  and  C_3
REMARK    3  A    between atoms: N_10  and  C_11
REMARK    4  A    between atoms: C_16  and  O_17
REMARK    5  A    between atoms: C_20  and  O_21
REMARK    6  A    between atoms: O_21  and  C_22
REMARK                            x       y       z     vdW  Elec       q    Type
REMARK                         _______ _______ _______ _____ _____    ______ ____
ROOT
ATOM      1  C   UNL     1      -0.143  10.575  20.390  0.00  0.00    +0.000 A 
ATOM      2  C   UNL     1       0.554  10.418  19.179  0.00  0.00    +0.000 A 
ATOM      3  C   UNL     1       1.375   9.332  18.919  0.00  0.00    +0.000 A 
ATOM      4  N   UNL     1       1.948   9.260  17.718  0.00  0.00    +0.000 NA
ATOM      5  C   UNL     1       2.690   8.178  17.481  0.00  0.00    +0.000 A 
ATOM      6  N   UNL     1       2.886   7.171  18.325  0.00  0.00    +0.000 NA
ATOM      7  C   UNL     1       2.292   7.235  19.534  0.00  0.00    +0.000 A 
ATOM      8  N   UNL     1       2.342   6.101  20.377  0.00  0.00    +0.000 N 
ATOM      9  C   UNL     1       1.526   8.355  19.910  0.00  0.00    +0.000 A 
ATOM     10  C   UNL     1       0.898   8.544  21.159  0.00  0.00    +0.000 A 
ATOM     11  C   UNL     1       0.061   9.642  21.411  0.00  0.00    +0.000 A 
ATOM     12  H   UNL     1       2.589   6.322  21.338  0.00  0.00    +0.000 HD
ENDROOT
BRANCH   8  13
ATOM     13  C   UNL     1       2.783   4.800  20.041  0.00  0.00    +0.000 A 
ATOM     14  C   UNL     1       4.098   4.531  19.644  0.00  0.00    +0.000 A 
ATOM     15  C   UNL     1       4.516   3.233  19.362  0.00  0.00    +0.000 A 
ATOM     16  C   UNL     1       3.609   2.183  19.410  0.00  0.00    +0.000 A 
ATOM     17  C   UNL     1       2.273   2.435  19.723  0.00  0.00    +0.000 A 
ATOM     18  C   UNL     1       1.870   3.735  20.031  0.00  0.00    +0.000 A 
BRANCH  18  19
ATOM     19  O   UNL     1       0.561   4.000  20.354  0.00  0.00    +0.000 OA
ATOM     20  H   UNL     1       0.119   3.151  20.521  0.00  0.00    +0.000 HD
ENDBRANCH  18  19
ENDBRANCH   8  13
BRANCH   1  22
ATOM     21  C   UNL     1      -1.945  11.852  19.545  0.00  0.00    +0.000 C 
ATOM     22  O   UNL     1      -0.983  11.639  20.582  0.00  0.00    +0.000 OA
ENDBRANCH   1  22
BRANCH  11  23
ATOM     23  O   UNL     1      -0.455   9.595  22.673  0.00  0.00    +0.000 OA
ATOM     24  C   UNL     1      -1.149  10.709  23.209  0.00  0.00    +0.000 C 
ENDBRANCH  11  23
TORSDOF 4
ENDMDL
