MODEL 1
REMARK VINA RESULT:      -7.9      0.000      0.000
REMARK  Name = 
REMARK  3 active torsions:
REMARK  status: ('A' for Active; 'I' for Inactive)
REMARK    1  A    between atoms: C_2  and  C_5
REMARK    2  A    between atoms: C_9  and  C_10
REMARK    3  A    between atoms: C_13  and  C_14
REMARK                            x       y       z     vdW  Elec       q    Type
REMARK                         _______ _______ _______ _____ _____    ______ ____
ROOT
ATOM      1  C   UNL     1       6.235   4.390  16.238  0.00  0.00    +0.000 A 
ATOM      2  N   UNL     1       7.223   4.466  17.144  0.00  0.00    +0.000 NA
ATOM      3  O   UNL     1       6.559   4.361  18.358  0.00  0.00    +0.000 OA
ATOM      4  C   UNL     1       5.226   4.198  18.076  0.00  0.00    +0.000 A 
ATOM      5  N   UNL     1       4.986   4.238  16.786  0.00  0.00    +0.000 NA
ENDROOT
BRANCH   1  10
ATOM      6  C   UNL     1       5.693   3.825  12.561  0.00  0.00    +0.000 A 
ATOM      7  C   UNL     1       6.860   4.408  12.039  0.00  0.00    +0.000 A 
ATOM      8  C   UNL     1       7.803   4.991  12.887  0.00  0.00    +0.000 A 
ATOM      9  C   UNL     1       7.593   5.001  14.261  0.00  0.00    +0.000 A 
ATOM     10  C   UNL     1       6.438   4.423  14.805  0.00  0.00    +0.000 A 
ATOM     11  C   UNL     1       5.490   3.843  13.946  0.00  0.00    +0.000 A 
BRANCH   6  13
ATOM     12  F   UNL     1       3.496   2.921  12.255  0.00  0.00    +0.000 F 
ATOM     13  C   UNL     1       4.692   3.159  11.649  0.00  0.00    +0.000 C 
ATOM     14  F   UNL     1       5.119   1.954  11.179  0.00  0.00    +0.000 F 
ATOM     15  F   UNL     1       4.409   3.912  10.549  0.00  0.00    +0.000 F 
ENDBRANCH   6  13
ENDBRANCH   1  10
BRANCH   4  16
ATOM     16  C   UNL     1       4.228   3.973  19.076  0.00  0.00    +0.000 A 
ATOM     17  S   UNL     1       4.118   2.461  19.885  0.00  0.00    +0.000 S 
ATOM     18  C   UNL     1       2.811   2.995  20.844  0.00  0.00    +0.000 A 
ATOM     19  C   UNL     1       2.453   4.289  20.549  0.00  0.00    +0.000 A 
ATOM     20  C   UNL     1       3.268   4.856  19.529  0.00  0.00    +0.000 A 
ATOM     21 CL   UNL     1       3.007   6.457  18.972  0.00  0.00    +0.000 Cl
ENDBRANCH   4  16
TORSDOF 3
ENDMDL
MODEL 2
REMARK VINA RESULT:      -7.8      1.387      1.684
REMARK  Name = 
REMARK  3 active torsions:
REMARK  status: ('A' for Active; 'I' for Inactive)
REMARK    1  A    between atoms: C_2  and  C_5
REMARK    2  A    between atoms: C_9  and  C_10
REMARK    3  A    between atoms: C_13  and  C_14
REMARK                            x       y       z     vdW  Elec       q    Type
REMARK                         _______ _______ _______ _____ _____    ______ ____
ROOT
ATOM      1  C   UNL     1       6.012   4.378  16.238  0.00  0.00    +0.000 A 
ATOM      2  N   UNL     1       6.950   4.464  17.194  0.00  0.00    +0.000 NA
ATOM      3  O   UNL     1       6.223   4.365  18.372  0.00  0.00    +0.000 OA
ATOM      4  C   UNL     1       4.907   4.196  18.021  0.00  0.00    +0.000 A 
ATOM      5  N   UNL     1       4.736   4.226  16.720  0.00  0.00    +0.000 NA
ENDROOT
BRANCH   1  10
ATOM      6  C   UNL     1       5.656   3.804  12.540  0.00  0.00    +0.000 A 
ATOM      7  C   UNL     1       6.857   4.369  12.077  0.00  0.00    +0.000 A 
ATOM      8  C   UNL     1       7.763   4.943  12.972  0.00  0.00    +0.000 A 
ATOM      9  C   UNL     1       7.481   4.961  14.334  0.00  0.00    +0.000 A 
ATOM     10  C   UNL     1       6.290   4.402  14.818  0.00  0.00    +0.000 A 
ATOM     11  C   UNL     1       5.381   3.831  13.912  0.00  0.00    +0.000 A 
BRANCH   6  13
ATOM     12  F   UNL     1       5.133   1.940  11.129  0.00  0.00    +0.000 F 
ATOM     13  C   UNL     1       4.695   3.149  11.579  0.00  0.00    +0.000 C 
ATOM     14  F   UNL     1       4.461   3.899  10.466  0.00  0.00    +0.000 F 
ATOM     15  F   UNL     1       3.475   2.918  12.139  0.00  0.00    +0.000 F 
ENDBRANCH   6  13
ENDBRANCH   1  10
BRANCH   4  16
ATOM     16  C   UNL     1       3.857   3.975  18.968  0.00  0.00    +0.000 A 
ATOM     17  S   UNL     1       3.208   5.278  19.882  0.00  0.00    +0.000 S 
ATOM     18  C   UNL     1       2.093   4.255  20.671  0.00  0.00    +0.000 A 
ATOM     19  C   UNL     1       2.217   2.948  20.263  0.00  0.00    +0.000 A 
ATOM     20  C   UNL     1       3.235   2.783  19.281  0.00  0.00    +0.000 A 
ATOM     21 CL   UNL     1       3.594   1.240  18.625  0.00  0.00    +0.000 Cl
ENDBRANCH   4  16
TORSDOF 3
ENDMDL
MODEL 3
REMARK VINA RESULT:      -7.7      0.956      1.260
REMARK  Name = 
REMARK  3 active torsions:
REMARK  status: ('A' for Active; 'I' for Inactive)
REMARK    1  A    between atoms: C_2  and  C_5
REMARK    2  A    between atoms: C_9  and  C_10
REMARK    3  A    between atoms: C_13  and  C_14
REMARK                            x       y       z     vdW  Elec       q    Type
REMARK                         _______ _______ _______ _____ _____    ______ ____
ROOT
ATOM      1  C   UNL     1       5.652   4.299  16.325  0.00  0.00    +0.000 A 
ATOM      2  N   UNL     1       6.470   4.637  17.334  0.00  0.00    +0.000 NA
ATOM      3  O   UNL     1       5.694   4.425  18.465  0.00  0.00    +0.000 OA
ATOM      4  C   UNL     1       4.481   3.945  18.039  0.00  0.00    +0.000 A 
ATOM      5  N   UNL     1       4.409   3.880  16.730  0.00  0.00    +0.000 NA
ENDROOT
BRANCH   1  10
ATOM      6  C   UNL     1       5.530   3.768  12.605  0.00  0.00    +0.000 A 
ATOM      7  C   UNL     1       6.777   4.297  12.231  0.00  0.00    +0.000 A 
ATOM      8  C   UNL     1       7.638   4.833  13.191  0.00  0.00    +0.000 A 
ATOM      9  C   UNL     1       7.264   4.849  14.530  0.00  0.00    +0.000 A 
ATOM     10  C   UNL     1       6.027   4.326  14.927  0.00  0.00    +0.000 A 
ATOM     11  C   UNL     1       5.163   3.793  13.955  0.00  0.00    +0.000 A 
BRANCH   6  13
ATOM     12  F   UNL     1       5.082   1.971  11.085  0.00  0.00    +0.000 F 
ATOM     13  C   UNL     1       4.616   3.153  11.574  0.00  0.00    +0.000 C 
ATOM     14  F   UNL     1       4.421   3.955  10.490  0.00  0.00    +0.000 F 
ATOM     15  F   UNL     1       3.375   2.887  12.071  0.00  0.00    +0.000 F 
ENDBRANCH   6  13
ENDBRANCH   1  10
BRANCH   4  16
ATOM     16  C   UNL     1       3.438   3.530  18.926  0.00  0.00    +0.000 A 
ATOM     17  S   UNL     1       3.792   2.589  20.320  0.00  0.00    +0.000 S 
ATOM     18  C   UNL     1       2.152   2.558  20.795  0.00  0.00    +0.000 A 
ATOM     19  C   UNL     1       1.348   3.234  19.908  0.00  0.00    +0.000 A 
ATOM     20  C   UNL     1       2.087   3.796  18.829  0.00  0.00    +0.000 A 
ATOM     21 CL   UNL     1       1.305   4.675  17.581  0.00  0.00    +0.000 Cl
ENDBRANCH   4  16
TORSDOF 3
ENDMDL
MODEL 4
REMARK VINA RESULT:      -7.7      0.864      1.195
REMARK  Name = 
REMARK  3 active torsions:
REMARK  status: ('A' for Active; 'I' for Inactive)
REMARK    1  A    between atoms: C_2  and  C_5
REMARK    2  A    between atoms: C_9  and  C_10
REMARK    3  A    between atoms: C_13  and  C_14
REMARK                            x       y       z     vdW  Elec       q    Type
REMARK                         _______ _______ _______ _____ _____    ______ ____
ROOT
ATOM      1  C   UNL     1       5.478   4.447  16.290  0.00  0.00    +0.000 A 
ATOM      2  N   UNL     1       6.263   4.813  17.317  0.00  0.00    +0.000 NA
ATOM      3  O   UNL     1       5.437   4.668  18.423  0.00  0.00    +0.000 OA
ATOM      4  C   UNL     1       4.231   4.196  17.968  0.00  0.00    +0.000 A 
ATOM      5  N   UNL     1       4.211   4.074  16.661  0.00  0.00    +0.000 NA
ENDROOT
BRANCH   1  10
ATOM      6  C   UNL     1       5.487   3.771  12.592  0.00  0.00    +0.000 A 
ATOM      7  C   UNL     1       6.768   4.236  12.251  0.00  0.00    +0.000 A 
ATOM      8  C   UNL     1       7.610   4.777  13.224  0.00  0.00    +0.000 A 
ATOM      9  C   UNL     1       7.183   4.862  14.545  0.00  0.00    +0.000 A 
ATOM     10  C   UNL     1       5.911   4.403  14.909  0.00  0.00    +0.000 A 
ATOM     11  C   UNL     1       5.066   3.864  13.924  0.00  0.00    +0.000 A 
BRANCH   6  13
ATOM     12  F   UNL     1       4.425   3.938  10.451  0.00  0.00    +0.000 F 
ATOM     13  C   UNL     1       4.591   3.149  11.549  0.00  0.00    +0.000 C 
ATOM     14  F   UNL     1       3.337   2.887  12.012  0.00  0.00    +0.000 F 
ATOM     15  F   UNL     1       5.076   1.963  11.086  0.00  0.00    +0.000 F 
ENDBRANCH   6  13
ENDBRANCH   1  10
BRANCH   4  16
ATOM     16  C   UNL     1       3.144   3.845  18.829  0.00  0.00    +0.000 A 
ATOM     17  S   UNL     1       2.636   2.211  18.982  0.00  0.00    +0.000 S 
ATOM     18  C   UNL     1       1.425   2.624  20.112  0.00  0.00    +0.000 A 
ATOM     19  C   UNL     1       1.394   3.976  20.359  0.00  0.00    +0.000 A 
ATOM     20  C   UNL     1       2.384   4.683  19.620  0.00  0.00    +0.000 A 
ATOM     21 CL   UNL     1       2.535   6.387  19.744  0.00  0.00    +0.000 Cl
ENDBRANCH   4  16
TORSDOF 3
ENDMDL
MODEL 5
REMARK VINA RESULT:      -7.6      1.383      1.679
REMARK  Name = 
REMARK  3 active torsions:
REMARK  status: ('A' for Active; 'I' for Inactive)
REMARK    1  A    between atoms: C_2  and  C_5
REMARK    2  A    between atoms: C_9  and  C_10
REMARK    3  A    between atoms: C_13  and  C_14
REMARK                            x       y       z     vdW  Elec       q    Type
REMARK                         _______ _______ _______ _____ _____    ______ ____
ROOT
ATOM      1  C   UNL     1       6.031   4.499  16.253  0.00  0.00    +0.000 A 
ATOM      2  N   UNL     1       6.977   4.401  17.200  0.00  0.00    +0.000 NA
ATOM      3  O   UNL     1       6.255   4.431  18.384  0.00  0.00    +0.000 OA
ATOM      4  C   UNL     1       4.927   4.512  18.046  0.00  0.00    +0.000 A 
ATOM      5  N   UNL     1       4.753   4.583  16.747  0.00  0.00    +0.000 NA
ENDROOT
BRANCH   1  10
ATOM      6  C   UNL     1       5.631   3.837  12.574  0.00  0.00    +0.000 A 
ATOM      7  C   UNL     1       6.837   4.367  12.086  0.00  0.00    +0.000 A 
ATOM      8  C   UNL     1       7.762   4.946  12.958  0.00  0.00    +0.000 A 
ATOM      9  C   UNL     1       7.493   5.005  14.321  0.00  0.00    +0.000 A 
ATOM     10  C   UNL     1       6.297   4.481  14.830  0.00  0.00    +0.000 A 
ATOM     11  C   UNL     1       5.368   3.904  13.947  0.00  0.00    +0.000 A 
BRANCH   6  13
ATOM     12  F   UNL     1       4.358   3.935  10.546  0.00  0.00    +0.000 F 
ATOM     13  C   UNL     1       4.649   3.175  11.638  0.00  0.00    +0.000 C 
ATOM     14  F   UNL     1       3.453   2.900  12.231  0.00  0.00    +0.000 F 
ATOM     15  F   UNL     1       5.109   1.988  11.154  0.00  0.00    +0.000 F 
ENDBRANCH   6  13
ENDBRANCH   1  10
BRANCH   4  16
ATOM     16  C   UNL     1       3.863   4.484  19.002  0.00  0.00    +0.000 A 
ATOM     17  S   UNL     1       2.759   5.794  19.128  0.00  0.00    +0.000 S 
ATOM     18  C   UNL     1       1.877   5.017  20.367  0.00  0.00    +0.000 A 
ATOM     19  C   UNL     1       2.416   3.795  20.690  0.00  0.00    +0.000 A 
ATOM     20  C   UNL     1       3.562   3.484  19.905  0.00  0.00    +0.000 A 
ATOM     21 CL   UNL     1       4.423   2.019  20.133  0.00  0.00    +0.000 Cl
ENDBRANCH   4  16
TORSDOF 3
ENDMDL
MODEL 6
REMARK VINA RESULT:      -7.5      1.200      1.252
REMARK  Name = 
REMARK  3 active torsions:
REMARK  status: ('A' for Active; 'I' for Inactive)
REMARK    1  A    between atoms: C_2  and  C_5
REMARK    2  A    between atoms: C_9  and  C_10
REMARK    3  A    between atoms: C_13  and  C_14
REMARK                            x       y       z     vdW  Elec       q    Type
REMARK                         _______ _______ _______ _____ _____    ______ ____
ROOT
ATOM      1  C   UNL     1       5.634   4.189  16.913  0.00  0.00    +0.000 A 
ATOM      2  N   UNL     1       6.426   4.217  17.997  0.00  0.00    +0.000 NA
ATOM      3  O   UNL     1       5.545   3.996  19.047  0.00  0.00    +0.000 OA
ATOM      4  C   UNL     1       4.299   3.823  18.500  0.00  0.00    +0.000 A 
ATOM      5  N   UNL     1       4.310   3.961  17.194  0.00  0.00    +0.000 NA
ENDROOT
BRANCH   1  10
ATOM      6  C   UNL     1       5.860   3.871  13.174  0.00  0.00    +0.000 A 
ATOM      7  C   UNL     1       7.056   4.567  12.931  0.00  0.00    +0.000 A 
ATOM      8  C   UNL     1       7.769   5.144  13.984  0.00  0.00    +0.000 A 
ATOM      9  C   UNL     1       7.297   5.035  15.287  0.00  0.00    +0.000 A 
ATOM     10  C   UNL     1       6.107   4.344  15.554  0.00  0.00    +0.000 A 
ATOM     11  C   UNL     1       5.392   3.771  14.490  0.00  0.00    +0.000 A 
BRANCH   6  13
ATOM     12  F   UNL     1       3.768   3.137  12.266  0.00  0.00    +0.000 F 
ATOM     13  C   UNL     1       5.109   3.214  12.042  0.00  0.00    +0.000 C 
ATOM     14  F   UNL     1       5.521   1.938  11.801  0.00  0.00    +0.000 F 
ATOM     15  F   UNL     1       5.252   3.883  10.864  0.00  0.00    +0.000 F 
ENDBRANCH   6  13
ENDBRANCH   1  10
BRANCH   4  16
ATOM     16  C   UNL     1       3.137   3.492  19.266  0.00  0.00    +0.000 A 
ATOM     17  S   UNL     1       3.278   2.664  20.765  0.00  0.00    +0.000 S 
ATOM     18  C   UNL     1       1.589   2.687  21.012  0.00  0.00    +0.000 A 
ATOM     19  C   UNL     1       0.927   3.297  19.973  0.00  0.00    +0.000 A 
ATOM     20  C   UNL     1       1.817   3.762  18.964  0.00  0.00    +0.000 A 
ATOM     21 CL   UNL     1       1.230   4.544  17.555  0.00  0.00    +0.000 Cl
ENDBRANCH   4  16
TORSDOF 3
ENDMDL
MODEL 7
REMARK VINA RESULT:      -7.5      1.650      1.928
REMARK  Name = 
REMARK  3 active torsions:
REMARK  status: ('A' for Active; 'I' for Inactive)
REMARK    1  A    between atoms: C_2  and  C_5
REMARK    2  A    between atoms: C_9  and  C_10
REMARK    3  A    between atoms: C_13  and  C_14
REMARK                            x       y       z     vdW  Elec       q    Type
REMARK                         _______ _______ _______ _____ _____    ______ ____
ROOT
ATOM      1  C   UNL     1       5.213   4.876  16.266  0.00  0.00    +0.000 A 
ATOM      2  N   UNL     1       5.711   5.760  17.145  0.00  0.00    +0.000 NA
ATOM      3  O   UNL     1       4.913   5.587  18.267  0.00  0.00    +0.000 OA
ATOM      4  C   UNL     1       4.019   4.588  17.977  0.00  0.00    +0.000 A 
ATOM      5  N   UNL     1       4.155   4.146  16.748  0.00  0.00    +0.000 NA
ENDROOT
BRANCH   1  10
ATOM      6  C   UNL     1       5.445   3.826  12.664  0.00  0.00    +0.000 A 
ATOM      7  C   UNL     1       6.781   4.162  12.386  0.00  0.00    +0.000 A 
ATOM      8  C   UNL     1       7.588   4.738  13.370  0.00  0.00    +0.000 A 
ATOM      9  C   UNL     1       7.071   4.988  14.636  0.00  0.00    +0.000 A 
ATOM     10  C   UNL     1       5.743   4.660  14.937  0.00  0.00    +0.000 A 
ATOM     11  C   UNL     1       4.935   4.084  13.942  0.00  0.00    +0.000 A 
BRANCH   6  13
ATOM     12  F   UNL     1       4.425   3.931  10.499  0.00  0.00    +0.000 F 
ATOM     13  C   UNL     1       4.584   3.167  11.614  0.00  0.00    +0.000 C 
ATOM     14  F   UNL     1       3.327   2.886  12.057  0.00  0.00    +0.000 F 
ATOM     15  F   UNL     1       5.103   1.983  11.184  0.00  0.00    +0.000 F 
ENDBRANCH   6  13
ENDBRANCH   1  10
BRANCH   4  16
ATOM     16  C   UNL     1       3.078   4.069  18.921  0.00  0.00    +0.000 A 
ATOM     17  S   UNL     1       2.137   5.126  19.896  0.00  0.00    +0.000 S 
ATOM     18  C   UNL     1       1.332   3.821  20.649  0.00  0.00    +0.000 A 
ATOM     19  C   UNL     1       1.777   2.607  20.183  0.00  0.00    +0.000 A 
ATOM     20  C   UNL     1       2.784   2.746  19.187  0.00  0.00    +0.000 A 
ATOM     21 CL   UNL     1       3.511   1.373  18.461  0.00  0.00    +0.000 Cl
ENDBRANCH   4  16
TORSDOF 3
ENDMDL
MODEL 8
REMARK VINA RESULT:      -7.4      0.718      1.095
REMARK  Name = 
REMARK  3 active torsions:
REMARK  status: ('A' for Active; 'I' for Inactive)
REMARK    1  A    between atoms: C_2  and  C_5
REMARK    2  A    between atoms: C_9  and  C_10
REMARK    3  A    between atoms: C_13  and  C_14
REMARK                            x       y       z     vdW  Elec       q    Type
REMARK                         _______ _______ _______ _____ _____    ______ ____
ROOT
ATOM      1  C   UNL     1       5.637   5.022  16.071  0.00  0.00    +0.000 A 
ATOM      2  N   UNL     1       6.190   5.976  16.838  0.00  0.00    +0.000 NA
ATOM      3  O   UNL     1       5.529   5.841  18.050  0.00  0.00    +0.000 OA
ATOM      4  C   UNL     1       4.653   4.792  17.918  0.00  0.00    +0.000 A 
ATOM      5  N   UNL     1       4.673   4.283  16.709  0.00  0.00    +0.000 NA
ENDROOT
BRANCH   1  10
ATOM      6  C   UNL     1       5.490   3.834  12.508  0.00  0.00    +0.000 A 
ATOM      7  C   UNL     1       6.795   4.137  12.084  0.00  0.00    +0.000 A 
ATOM      8  C   UNL     1       7.704   4.736  12.957  0.00  0.00    +0.000 A 
ATOM      9  C   UNL     1       7.322   5.042  14.259  0.00  0.00    +0.000 A 
ATOM     10  C   UNL     1       6.027   4.748  14.704  0.00  0.00    +0.000 A 
ATOM     11  C   UNL     1       5.115   4.149  13.819  0.00  0.00    +0.000 A 
BRANCH   6  13
ATOM     12  F   UNL     1       4.984   1.962  11.100  0.00  0.00    +0.000 F 
ATOM     13  C   UNL     1       4.518   3.150  11.577  0.00  0.00    +0.000 C 
ATOM     14  F   UNL     1       4.214   3.899  10.482  0.00  0.00    +0.000 F 
ATOM     15  F   UNL     1       3.330   2.868  12.181  0.00  0.00    +0.000 F 
ENDBRANCH   6  13
ENDBRANCH   1  10
BRANCH   4  16
ATOM     16  C   UNL     1       3.847   4.295  18.990  0.00  0.00    +0.000 A 
ATOM     17  S   UNL     1       3.923   2.642  19.456  0.00  0.00    +0.000 S 
ATOM     18  C   UNL     1       2.781   2.873  20.704  0.00  0.00    +0.000 A 
ATOM     19  C   UNL     1       2.338   4.173  20.759  0.00  0.00    +0.000 A 
ATOM     20  C   UNL     1       2.950   4.996  19.772  0.00  0.00    +0.000 A 
ATOM     21 CL   UNL     1       2.548   6.657  19.627  0.00  0.00    +0.000 Cl
ENDBRANCH   4  16
TORSDOF 3
ENDMDL
MODEL 9
REMARK VINA RESULT:      -7.3      5.867      7.268
REMARK  Name = 
REMARK  3 active torsions:
REMARK  status: ('A' for Active; 'I' for Inactive)
REMARK    1  A    between atoms: C_2  and  C_5
REMARK    2  A    between atoms: C_9  and  C_10
REMARK    3  A    between atoms: C_13  and  C_14
REMARK                            x       y       z     vdW  Elec       q    Type
REMARK                         _______ _______ _______ _____ _____    ______ ____
ROOT
ATOM      1  C   UNL     1       2.072   7.749  18.996  0.00  0.00    +0.000 A 
ATOM      2  N   UNL     1       1.772   7.831  20.302  0.00  0.00    +0.000 NA
ATOM      3  O   UNL     1       1.199   9.088  20.425  0.00  0.00    +0.000 OA
ATOM      4  C   UNL     1       1.175   9.646  19.171  0.00  0.00    +0.000 A 
ATOM      5  N   UNL     1       1.727   8.864  18.273  0.00  0.00    +0.000 NA
ENDROOT
BRANCH   1  10
ATOM      6  C   UNL     1       2.696   4.180  17.991  0.00  0.00    +0.000 A 
ATOM      7  C   UNL     1       3.865   4.332  17.226  0.00  0.00    +0.000 A 
ATOM      8  C   UNL     1       4.430   5.594  17.034  0.00  0.00    +0.000 A 
ATOM      9  C   UNL     1       3.835   6.717  17.600  0.00  0.00    +0.000 A 
ATOM     10  C   UNL     1       2.670   6.590  18.368  0.00  0.00    +0.000 A 
ATOM     11  C   UNL     1       2.104   5.318  18.553  0.00  0.00    +0.000 A 
BRANCH   6  13
ATOM     12  F   UNL     1       2.478   2.275  19.427  0.00  0.00    +0.000 F 
ATOM     13  C   UNL     1       2.107   2.812  18.232  0.00  0.00    +0.000 C 
ATOM     14  F   UNL     1       2.469   1.903  17.285  0.00  0.00    +0.000 F 
ATOM     15  F   UNL     1       0.744   2.826  18.237  0.00  0.00    +0.000 F 
ENDBRANCH   6  13
ENDBRANCH   1  10
BRANCH   4  16
ATOM     16  C   UNL     1       0.582  10.915  18.880  0.00  0.00    +0.000 A 
ATOM     17  S   UNL     1       1.489  12.366  19.033  0.00  0.00    +0.000 S 
ATOM     18  C   UNL     1       0.171  13.322  18.519  0.00  0.00    +0.000 A 
ATOM     19  C   UNL     1      -0.941  12.559  18.250  0.00  0.00    +0.000 A 
ATOM     20  C   UNL     1      -0.707  11.171  18.458  0.00  0.00    +0.000 A 
ATOM     21 CL   UNL     1      -1.949  10.014  18.206  0.00  0.00    +0.000 Cl
ENDBRANCH   4  16
TORSDOF 3
ENDMDL
