MODEL 1
REMARK VINA RESULT:      -9.8      0.000      0.000
REMARK  Name = 
REMARK  6 active torsions:
REMARK  status: ('A' for Active; 'I' for Inactive)
REMARK    1  A    between atoms: C_5  and  C_6
REMARK    2  A    between atoms: C_6  and  C_7
REMARK    3  A    between atoms: C_7  and  C_8
REMARK    4  A    between atoms: C_11  and  C_12
REMARK    5  A    between atoms: N_24  and  C_25
REMARK    6  A    between atoms: C_25  and  C_26
REMARK                            x       y       z     vdW  Elec       q    Type
REMARK                         _______ _______ _______ _____ _____    ______ ____
ROOT
ATOM      1  O   UNL     1       5.467   6.348  15.165  0.00  0.00    +0.000 OA
ATOM      2  C   UNL     1       5.513   5.887  16.302  0.00  0.00    +0.000 C 
ATOM      3  C   UNL     1       6.612   6.276  17.211  0.00  0.00    +0.000 A 
ATOM      4  C   UNL     1       6.987   7.627  17.175  0.00  0.00    +0.000 A 
ATOM      5  C   UNL     1       7.940   8.141  18.062  0.00  0.00    +0.000 A 
ATOM      6  C   UNL     1       8.542   7.261  18.968  0.00  0.00    +0.000 A 
ATOM      7  C   UNL     1       8.188   5.905  18.990  0.00  0.00    +0.000 A 
ATOM      8  C   UNL     1       7.194   5.418  18.142  0.00  0.00    +0.000 A 
ATOM      9  O   UNL     1       6.885   4.091  18.254  0.00  0.00    +0.000 OA
ATOM     10  C   UNL     1       5.526   3.897  18.670  0.00  0.00    +0.000 C 
ATOM     11  C   UNL     1       4.568   3.948  17.483  0.00  0.00    +0.000 C 
ATOM     12  N   UNL     1       4.429   5.280  16.908  0.00  0.00    +0.000 N 
ENDROOT
BRANCH   5  13
ATOM     13  C   UNL     1       8.178   9.635  18.068  0.00  0.00    +0.000 C 
BRANCH  13  14
ATOM     14  C   UNL     1       9.108  10.166  19.163  0.00  0.00    +0.000 C 
BRANCH  14  15
ATOM     15  C   UNL     1       9.663  11.519  18.786  0.00  0.00    +0.000 A 
ATOM     16  C   UNL     1       9.276  12.666  19.492  0.00  0.00    +0.000 A 
ATOM     17  C   UNL     1       9.732  13.927  19.099  0.00  0.00    +0.000 A 
ATOM     18  C   UNL     1      10.577  14.065  17.990  0.00  0.00    +0.000 A 
ATOM     19  C   UNL     1      10.981  12.913  17.298  0.00  0.00    +0.000 A 
ATOM     20  C   UNL     1      10.524  11.653  17.690  0.00  0.00    +0.000 A 
BRANCH  18  21
ATOM     21  C   UNL     1      11.033  15.425  17.520  0.00  0.00    +0.000 C 
ATOM     22  F   UNL     1      10.123  16.064  16.731  0.00  0.00    +0.000 F 
ATOM     23  F   UNL     1      11.298  16.276  18.549  0.00  0.00    +0.000 F 
ATOM     24  F   UNL     1      12.178  15.361  16.785  0.00  0.00    +0.000 F 
ENDBRANCH  18  21
ENDBRANCH  14  15
ENDBRANCH  13  14
ENDBRANCH   5  13
BRANCH  12  25
ATOM     25  C   UNL     1       3.382   6.169  17.397  0.00  0.00    +0.000 C 
BRANCH  25  26
ATOM     26  C   UNL     1       2.526   5.525  18.456  0.00  0.00    +0.000 A 
ATOM     27  C   UNL     1       2.497   6.032  19.761  0.00  0.00    +0.000 A 
ATOM     28  C   UNL     1       1.722   5.411  20.741  0.00  0.00    +0.000 A 
ATOM     29  C   UNL     1       0.958   4.289  20.422  0.00  0.00    +0.000 A 
ATOM     30  C   UNL     1       0.949   3.799  19.119  0.00  0.00    +0.000 A 
ATOM     31  C   UNL     1       1.723   4.419  18.139  0.00  0.00    +0.000 A 
ENDBRANCH  25  26
ENDBRANCH  12  25
TORSDOF 6
ENDMDL
MODEL 2
REMARK VINA RESULT:      -9.6      0.634      1.162
REMARK  Name = 
REMARK  6 active torsions:
REMARK  status: ('A' for Active; 'I' for Inactive)
REMARK    1  A    between atoms: C_5  and  C_6
REMARK    2  A    between atoms: C_6  and  C_7
REMARK    3  A    between atoms: C_7  and  C_8
REMARK    4  A    between atoms: C_11  and  C_12
REMARK    5  A    between atoms: N_24  and  C_25
REMARK    6  A    between atoms: C_25  and  C_26
REMARK                            x       y       z     vdW  Elec       q    Type
REMARK                         _______ _______ _______ _____ _____    ______ ____
ROOT
ATOM      1  O   UNL     1       5.460   6.278  15.173  0.00  0.00    +0.000 OA
ATOM      2  C   UNL     1       5.492   5.801  16.303  0.00  0.00    +0.000 C 
ATOM      3  C   UNL     1       6.589   6.161  17.225  0.00  0.00    +0.000 A 
ATOM      4  C   UNL     1       6.984   7.507  17.210  0.00  0.00    +0.000 A 
ATOM      5  C   UNL     1       7.938   7.995  18.111  0.00  0.00    +0.000 A 
ATOM      6  C   UNL     1       8.520   7.094  19.008  0.00  0.00    +0.000 A 
ATOM      7  C   UNL     1       8.147   5.744  19.010  0.00  0.00    +0.000 A 
ATOM      8  C   UNL     1       7.151   5.282  18.149  0.00  0.00    +0.000 A 
ATOM      9  O   UNL     1       6.823   3.959  18.240  0.00  0.00    +0.000 OA
ATOM     10  C   UNL     1       5.458   3.779  18.644  0.00  0.00    +0.000 C 
ATOM     11  C   UNL     1       4.509   3.860  17.451  0.00  0.00    +0.000 C 
ATOM     12  N   UNL     1       4.394   5.202  16.894  0.00  0.00    +0.000 N 
ENDROOT
BRANCH   5  13
ATOM     13  C   UNL     1       8.198   9.485  18.138  0.00  0.00    +0.000 C 
BRANCH  13  14
ATOM     14  C   UNL     1       9.233   9.971  19.157  0.00  0.00    +0.000 C 
BRANCH  14  15
ATOM     15  C   UNL     1       9.771  11.329  18.771  0.00  0.00    +0.000 A 
ATOM     16  C   UNL     1      11.027  11.750  19.225  0.00  0.00    +0.000 A 
ATOM     17  C   UNL     1      11.494  13.033  18.930  0.00  0.00    +0.000 A 
ATOM     18  C   UNL     1      10.710  13.921  18.181  0.00  0.00    +0.000 A 
ATOM     19  C   UNL     1       9.462  13.490  17.709  0.00  0.00    +0.000 A 
ATOM     20  C   UNL     1       8.994  12.208  18.005  0.00  0.00    +0.000 A 
BRANCH  18  21
ATOM     21  C   UNL     1      11.177  15.329  17.901  0.00  0.00    +0.000 C 
ATOM     22  F   UNL     1      10.269  16.285  18.248  0.00  0.00    +0.000 F 
ATOM     23  F   UNL     1      12.324  15.645  18.564  0.00  0.00    +0.000 F 
ATOM     24  F   UNL     1      11.441  15.533  16.580  0.00  0.00    +0.000 F 
ENDBRANCH  18  21
ENDBRANCH  14  15
ENDBRANCH  13  14
ENDBRANCH   5  13
BRANCH  12  25
ATOM     25  C   UNL     1       3.356   6.099  17.387  0.00  0.00    +0.000 C 
BRANCH  25  26
ATOM     26  C   UNL     1       2.525   5.477  18.477  0.00  0.00    +0.000 A 
ATOM     27  C   UNL     1       1.753   4.335  18.227  0.00  0.00    +0.000 A 
ATOM     28  C   UNL     1       0.965   3.783  19.237  0.00  0.00    +0.000 A 
ATOM     29  C   UNL     1       0.954   4.356  20.508  0.00  0.00    +0.000 A 
ATOM     30  C   UNL     1       1.746   5.468  20.778  0.00  0.00    +0.000 A 
ATOM     31  C   UNL     1       2.534   6.021  19.770  0.00  0.00    +0.000 A 
ENDBRANCH  25  26
ENDBRANCH  12  25
TORSDOF 6
ENDMDL
MODEL 3
REMARK VINA RESULT:      -9.4      6.924      9.283
REMARK  Name = 
REMARK  6 active torsions:
REMARK  status: ('A' for Active; 'I' for Inactive)
REMARK    1  A    between atoms: C_5  and  C_6
REMARK    2  A    between atoms: C_6  and  C_7
REMARK    3  A    between atoms: C_7  and  C_8
REMARK    4  A    between atoms: C_11  and  C_12
REMARK    5  A    between atoms: N_24  and  C_25
REMARK    6  A    between atoms: C_25  and  C_26
REMARK                            x       y       z     vdW  Elec       q    Type
REMARK                         _______ _______ _______ _____ _____    ______ ____
ROOT
ATOM      1  O   UNL     1       6.102   7.179  16.574  0.00  0.00    +0.000 OA
ATOM      2  C   UNL     1       5.471   6.258  17.083  0.00  0.00    +0.000 C 
ATOM      3  C   UNL     1       4.345   6.550  17.996  0.00  0.00    +0.000 A 
ATOM      4  C   UNL     1       3.512   7.613  17.618  0.00  0.00    +0.000 A 
ATOM      5  C   UNL     1       2.353   7.921  18.340  0.00  0.00    +0.000 A 
ATOM      6  C   UNL     1       2.063   7.161  19.478  0.00  0.00    +0.000 A 
ATOM      7  C   UNL     1       2.906   6.113  19.873  0.00  0.00    +0.000 A 
ATOM      8  C   UNL     1       4.025   5.778  19.110  0.00  0.00    +0.000 A 
ATOM      9  O   UNL     1       4.772   4.721  19.547  0.00  0.00    +0.000 OA
ATOM     10  C   UNL     1       4.779   3.648  18.594  0.00  0.00    +0.000 C 
ATOM     11  C   UNL     1       5.841   3.865  17.519  0.00  0.00    +0.000 C 
ATOM     12  N   UNL     1       5.527   4.960  16.609  0.00  0.00    +0.000 N 
ENDROOT
BRANCH   5  13
ATOM     13  C   UNL     1       1.425   8.979  17.785  0.00  0.00    +0.000 C 
BRANCH  13  14
ATOM     14  C   UNL     1       1.002  10.083  18.758  0.00  0.00    +0.000 C 
BRANCH  14  15
ATOM     15  C   UNL     1      -0.416  10.526  18.483  0.00  0.00    +0.000 A 
ATOM     16  C   UNL     1      -0.967  11.613  19.175  0.00  0.00    +0.000 A 
ATOM     17  C   UNL     1      -2.300  11.979  18.975  0.00  0.00    +0.000 A 
ATOM     18  C   UNL     1      -3.110  11.260  18.086  0.00  0.00    +0.000 A 
ATOM     19  C   UNL     1      -2.550  10.186  17.378  0.00  0.00    +0.000 A 
ATOM     20  C   UNL     1      -1.218   9.819  17.578  0.00  0.00    +0.000 A 
BRANCH  18  21
ATOM     21  C   UNL     1      -4.566  11.608  17.901  0.00  0.00    +0.000 C 
ATOM     22  F   UNL     1      -4.851  12.134  16.676  0.00  0.00    +0.000 F 
ATOM     23  F   UNL     1      -5.387  10.531  18.045  0.00  0.00    +0.000 F 
ATOM     24  F   UNL     1      -4.998  12.529  18.808  0.00  0.00    +0.000 F 
ENDBRANCH  18  21
ENDBRANCH  14  15
ENDBRANCH  13  14
ENDBRANCH   5  13
BRANCH  12  25
ATOM     25  C   UNL     1       4.785   4.687  15.385  0.00  0.00    +0.000 C 
BRANCH  25  26
ATOM     26  C   UNL     1       5.687   4.445  14.204  0.00  0.00    +0.000 A 
ATOM     27  C   UNL     1       6.927   5.088  14.106  0.00  0.00    +0.000 A 
ATOM     28  C   UNL     1       7.743   4.878  12.993  0.00  0.00    +0.000 A 
ATOM     29  C   UNL     1       7.334   4.014  11.978  0.00  0.00    +0.000 A 
ATOM     30  C   UNL     1       6.120   3.340  12.084  0.00  0.00    +0.000 A 
ATOM     31  C   UNL     1       5.304   3.549  13.194  0.00  0.00    +0.000 A 
ENDBRANCH  25  26
ENDBRANCH  12  25
TORSDOF 6
ENDMDL
MODEL 4
REMARK VINA RESULT:      -9.3      6.912      9.303
REMARK  Name = 
REMARK  6 active torsions:
REMARK  status: ('A' for Active; 'I' for Inactive)
REMARK    1  A    between atoms: C_5  and  C_6
REMARK    2  A    between atoms: C_6  and  C_7
REMARK    3  A    between atoms: C_7  and  C_8
REMARK    4  A    between atoms: C_11  and  C_12
REMARK    5  A    between atoms: N_24  and  C_25
REMARK    6  A    between atoms: C_25  and  C_26
REMARK                            x       y       z     vdW  Elec       q    Type
REMARK                         _______ _______ _______ _____ _____    ______ ____
ROOT
ATOM      1  O   UNL     1       6.136   7.170  16.487  0.00  0.00    +0.000 OA
ATOM      2  C   UNL     1       5.512   6.247  17.001  0.00  0.00    +0.000 C 
ATOM      3  C   UNL     1       4.404   6.535  17.936  0.00  0.00    +0.000 A 
ATOM      4  C   UNL     1       3.567   7.603  17.581  0.00  0.00    +0.000 A 
ATOM      5  C   UNL     1       2.422   7.908  18.327  0.00  0.00    +0.000 A 
ATOM      6  C   UNL     1       2.151   7.140  19.465  0.00  0.00    +0.000 A 
ATOM      7  C   UNL     1       2.999   6.089  19.837  0.00  0.00    +0.000 A 
ATOM      8  C   UNL     1       4.103   5.756  19.051  0.00  0.00    +0.000 A 
ATOM      9  O   UNL     1       4.856   4.695  19.466  0.00  0.00    +0.000 OA
ATOM     10  C   UNL     1       4.843   3.628  18.507  0.00  0.00    +0.000 C 
ATOM     11  C   UNL     1       5.885   3.851  17.414  0.00  0.00    +0.000 C 
ATOM     12  N   UNL     1       5.557   4.952  16.517  0.00  0.00    +0.000 N 
ENDROOT
BRANCH   5  13
ATOM     13  C   UNL     1       1.486   8.971  17.796  0.00  0.00    +0.000 C 
BRANCH  13  14
ATOM     14  C   UNL     1       1.038  10.038  18.800  0.00  0.00    +0.000 C 
BRANCH  14  15
ATOM     15  C   UNL     1      -0.376  10.486  18.511  0.00  0.00    +0.000 A 
ATOM     16  C   UNL     1      -0.949  11.538  19.238  0.00  0.00    +0.000 A 
ATOM     17  C   UNL     1      -2.279  11.906  19.023  0.00  0.00    +0.000 A 
ATOM     18  C   UNL     1      -3.063  11.224  18.084  0.00  0.00    +0.000 A 
ATOM     19  C   UNL     1      -2.481  10.185  17.341  0.00  0.00    +0.000 A 
ATOM     20  C   UNL     1      -1.152   9.817  17.557  0.00  0.00    +0.000 A 
BRANCH  18  21
ATOM     21  C   UNL     1      -4.517  11.573  17.880  0.00  0.00    +0.000 C 
ATOM     22  F   UNL     1      -4.979  12.518  18.747  0.00  0.00    +0.000 F 
ATOM     23  F   UNL     1      -4.773  12.053  16.632  0.00  0.00    +0.000 F 
ATOM     24  F   UNL     1      -5.336  10.495  18.040  0.00  0.00    +0.000 F 
ENDBRANCH  18  21
ENDBRANCH  14  15
ENDBRANCH  13  14
ENDBRANCH   5  13
BRANCH  12  25
ATOM     25  C   UNL     1       4.791   4.689  15.305  0.00  0.00    +0.000 C 
BRANCH  25  26
ATOM     26  C   UNL     1       5.671   4.408  14.115  0.00  0.00    +0.000 A 
ATOM     27  C   UNL     1       5.255   3.532  13.106  0.00  0.00    +0.000 A 
ATOM     28  C   UNL     1       6.090   3.258  12.022  0.00  0.00    +0.000 A 
ATOM     29  C   UNL     1       7.340   3.869  11.930  0.00  0.00    +0.000 A 
ATOM     30  C   UNL     1       7.748   4.771  12.909  0.00  0.00    +0.000 A 
ATOM     31  C   UNL     1       6.915   5.046  13.992  0.00  0.00    +0.000 A 
ENDBRANCH  25  26
ENDBRANCH  12  25
TORSDOF 6
ENDMDL
MODEL 5
REMARK VINA RESULT:      -9.3      2.014      2.601
REMARK  Name = 
REMARK  6 active torsions:
REMARK  status: ('A' for Active; 'I' for Inactive)
REMARK    1  A    between atoms: C_5  and  C_6
REMARK    2  A    between atoms: C_6  and  C_7
REMARK    3  A    between atoms: C_7  and  C_8
REMARK    4  A    between atoms: C_11  and  C_12
REMARK    5  A    between atoms: N_24  and  C_25
REMARK    6  A    between atoms: C_25  and  C_26
REMARK                            x       y       z     vdW  Elec       q    Type
REMARK                         _______ _______ _______ _____ _____    ______ ____
ROOT
ATOM      1  O   UNL     1       5.476   6.350  15.159  0.00  0.00    +0.000 OA
ATOM      2  C   UNL     1       5.567   5.948  16.315  0.00  0.00    +0.000 C 
ATOM      3  C   UNL     1       6.651   6.447  17.187  0.00  0.00    +0.000 A 
ATOM      4  C   UNL     1       6.940   7.815  17.081  0.00  0.00    +0.000 A 
ATOM      5  C   UNL     1       7.872   8.430  17.927  0.00  0.00    +0.000 A 
ATOM      6  C   UNL     1       8.539   7.632  18.863  0.00  0.00    +0.000 A 
ATOM      7  C   UNL     1       8.272   6.260  18.955  0.00  0.00    +0.000 A 
ATOM      8  C   UNL     1       7.298   5.672  18.148  0.00  0.00    +0.000 A 
ATOM      9  O   UNL     1       7.075   4.336  18.327  0.00  0.00    +0.000 OA
ATOM     10  C   UNL     1       5.736   4.078  18.774  0.00  0.00    +0.000 C 
ATOM     11  C   UNL     1       4.761   4.013  17.602  0.00  0.00    +0.000 C 
ATOM     12  N   UNL     1       4.531   5.305  16.968  0.00  0.00    +0.000 N 
ENDROOT
BRANCH   5  13
ATOM     13  C   UNL     1       8.016   9.934  17.858  0.00  0.00    +0.000 C 
BRANCH  13  14
ATOM     14  C   UNL     1       9.410  10.492  18.156  0.00  0.00    +0.000 C 
BRANCH  14  15
ATOM     15  C   UNL     1       9.362  11.471  19.306  0.00  0.00    +0.000 A 
ATOM     16  C   UNL     1       9.374  11.013  20.630  0.00  0.00    +0.000 A 
ATOM     17  C   UNL     1       9.256  11.912  21.692  0.00  0.00    +0.000 A 
ATOM     18  C   UNL     1       9.117  13.285  21.451  0.00  0.00    +0.000 A 
ATOM     19  C   UNL     1       9.128  13.744  20.125  0.00  0.00    +0.000 A 
ATOM     20  C   UNL     1       9.244  12.846  19.063  0.00  0.00    +0.000 A 
BRANCH  18  21
ATOM     21  C   UNL     1       8.933  14.263  22.586  0.00  0.00    +0.000 C 
ATOM     22  F   UNL     1       9.921  15.199  22.666  0.00  0.00    +0.000 F 
ATOM     23  F   UNL     1       7.766  14.958  22.498  0.00  0.00    +0.000 F 
ATOM     24  F   UNL     1       8.910  13.647  23.801  0.00  0.00    +0.000 F 
ENDBRANCH  18  21
ENDBRANCH  14  15
ENDBRANCH  13  14
ENDBRANCH   5  13
BRANCH  12  25
ATOM     25  C   UNL     1       3.437   6.150  17.431  0.00  0.00    +0.000 C 
BRANCH  25  26
ATOM     26  C   UNL     1       2.547   5.449  18.423  0.00  0.00    +0.000 A 
ATOM     27  C   UNL     1       2.445   5.905  19.743  0.00  0.00    +0.000 A 
ATOM     28  C   UNL     1       1.638   5.231  20.661  0.00  0.00    +0.000 A 
ATOM     29  C   UNL     1       0.915   4.107  20.264  0.00  0.00    +0.000 A 
ATOM     30  C   UNL     1       0.979   3.667  18.945  0.00  0.00    +0.000 A 
ATOM     31  C   UNL     1       1.784   4.339  18.027  0.00  0.00    +0.000 A 
ENDBRANCH  25  26
ENDBRANCH  12  25
TORSDOF 6
ENDMDL
MODEL 6
REMARK VINA RESULT:      -9.2      8.509     11.166
REMARK  Name = 
REMARK  6 active torsions:
REMARK  status: ('A' for Active; 'I' for Inactive)
REMARK    1  A    between atoms: C_5  and  C_6
REMARK    2  A    between atoms: C_6  and  C_7
REMARK    3  A    between atoms: C_7  and  C_8
REMARK    4  A    between atoms: C_11  and  C_12
REMARK    5  A    between atoms: N_24  and  C_25
REMARK    6  A    between atoms: C_25  and  C_26
REMARK                            x       y       z     vdW  Elec       q    Type
REMARK                         _______ _______ _______ _____ _____    ______ ____
ROOT
ATOM      1  O   UNL     1       0.091  11.020  22.552  0.00  0.00    +0.000 OA
ATOM      2  C   UNL     1       0.024  11.928  21.730  0.00  0.00    +0.000 C 
ATOM      3  C   UNL     1       0.823  11.860  20.488  0.00  0.00    +0.000 A 
ATOM      4  C   UNL     1       0.896  10.600  19.877  0.00  0.00    +0.000 A 
ATOM      5  C   UNL     1       1.533  10.426  18.642  0.00  0.00    +0.000 A 
ATOM      6  C   UNL     1       2.132  11.541  18.046  0.00  0.00    +0.000 A 
ATOM      7  C   UNL     1       2.083  12.797  18.666  0.00  0.00    +0.000 A 
ATOM      8  C   UNL     1       1.393  12.969  19.866  0.00  0.00    +0.000 A 
ATOM      9  O   UNL     1       1.364  14.233  20.384  0.00  0.00    +0.000 OA
ATOM     10  C   UNL     1       0.026  14.746  20.453  0.00  0.00    +0.000 C 
ATOM     11  C   UNL     1      -0.682  14.285  21.724  0.00  0.00    +0.000 C 
ATOM     12  N   UNL     1      -0.997  12.862  21.726  0.00  0.00    +0.000 N 
ENDROOT
BRANCH   5  13
ATOM     13  C   UNL     1       1.436   9.074  17.973  0.00  0.00    +0.000 C 
BRANCH  13  14
ATOM     14  C   UNL     1       2.723   8.244  17.939  0.00  0.00    +0.000 C 
BRANCH  14  15
ATOM     15  C   UNL     1       2.508   6.891  18.576  0.00  0.00    +0.000 A 
ATOM     16  C   UNL     1       2.641   5.720  17.818  0.00  0.00    +0.000 A 
ATOM     17  C   UNL     1       2.371   4.474  18.386  0.00  0.00    +0.000 A 
ATOM     18  C   UNL     1       1.955   4.374  19.721  0.00  0.00    +0.000 A 
ATOM     19  C   UNL     1       1.843   5.546  20.484  0.00  0.00    +0.000 A 
ATOM     20  C   UNL     1       2.112   6.793  19.916  0.00  0.00    +0.000 A 
BRANCH  18  21
ATOM     21  C   UNL     1       1.606   3.040  20.333  0.00  0.00    +0.000 C 
ATOM     22  F   UNL     1       0.825   2.260  19.533  0.00  0.00    +0.000 F 
ATOM     23  F   UNL     1       2.706   2.291  20.625  0.00  0.00    +0.000 F 
ATOM     24  F   UNL     1       0.922   3.170  21.504  0.00  0.00    +0.000 F 
ENDBRANCH  18  21
ENDBRANCH  14  15
ENDBRANCH  13  14
ENDBRANCH   5  13
BRANCH  12  25
ATOM     25  C   UNL     1      -2.284  12.409  21.213  0.00  0.00    +0.000 C 
BRANCH  25  26
ATOM     26  C   UNL     1      -3.396  12.577  22.215  0.00  0.00    +0.000 A 
ATOM     27  C   UNL     1      -3.159  12.413  23.585  0.00  0.00    +0.000 A 
ATOM     28  C   UNL     1      -4.202  12.543  24.501  0.00  0.00    +0.000 A 
ATOM     29  C   UNL     1      -5.488  12.855  24.058  0.00  0.00    +0.000 A 
ATOM     30  C   UNL     1      -5.727  13.058  22.702  0.00  0.00    +0.000 A 
ATOM     31  C   UNL     1      -4.686  12.928  21.786  0.00  0.00    +0.000 A 
ENDBRANCH  25  26
ENDBRANCH  12  25
TORSDOF 6
ENDMDL
MODEL 7
REMARK VINA RESULT:      -9.2      8.433     11.088
REMARK  Name = 
REMARK  6 active torsions:
REMARK  status: ('A' for Active; 'I' for Inactive)
REMARK    1  A    between atoms: C_5  and  C_6
REMARK    2  A    between atoms: C_6  and  C_7
REMARK    3  A    between atoms: C_7  and  C_8
REMARK    4  A    between atoms: C_11  and  C_12
REMARK    5  A    between atoms: N_24  and  C_25
REMARK    6  A    between atoms: C_25  and  C_26
REMARK                            x       y       z     vdW  Elec       q    Type
REMARK                         _______ _______ _______ _____ _____    ______ ____
ROOT
ATOM      1  O   UNL     1       0.115  10.773  22.441  0.00  0.00    +0.000 OA
ATOM      2  C   UNL     1       0.098  11.742  21.689  0.00  0.00    +0.000 C 
ATOM      3  C   UNL     1       0.917  11.736  20.458  0.00  0.00    +0.000 A 
ATOM      4  C   UNL     1       0.953  10.524  19.754  0.00  0.00    +0.000 A 
ATOM      5  C   UNL     1       1.606  10.419  18.520  0.00  0.00    +0.000 A 
ATOM      6  C   UNL     1       2.259  11.551  18.020  0.00  0.00    +0.000 A 
ATOM      7  C   UNL     1       2.246  12.757  18.733  0.00  0.00    +0.000 A 
ATOM      8  C   UNL     1       1.541  12.865  19.931  0.00  0.00    +0.000 A 
ATOM      9  O   UNL     1       1.551  14.087  20.544  0.00  0.00    +0.000 OA
ATOM     10  C   UNL     1       0.233  14.646  20.630  0.00  0.00    +0.000 C 
ATOM     11  C   UNL     1      -0.516  14.119  21.851  0.00  0.00    +0.000 C 
ATOM     12  N   UNL     1      -0.886  12.713  21.740  0.00  0.00    +0.000 N 
ENDROOT
BRANCH   5  13
ATOM     13  C   UNL     1       1.470   9.125  17.748  0.00  0.00    +0.000 C 
BRANCH  13  14
ATOM     14  C   UNL     1       2.679   8.186  17.788  0.00  0.00    +0.000 C 
BRANCH  14  15
ATOM     15  C   UNL     1       2.336   6.899  18.502  0.00  0.00    +0.000 A 
ATOM     16  C   UNL     1       2.160   6.884  19.892  0.00  0.00    +0.000 A 
ATOM     17  C   UNL     1       1.915   5.684  20.562  0.00  0.00    +0.000 A 
ATOM     18  C   UNL     1       1.849   4.475  19.857  0.00  0.00    +0.000 A 
ATOM     19  C   UNL     1       2.004   4.495  18.462  0.00  0.00    +0.000 A 
ATOM     20  C   UNL     1       2.251   5.695  17.792  0.00  0.00    +0.000 A 
BRANCH  18  21
ATOM     21  C   UNL     1       1.641   3.163  20.573  0.00  0.00    +0.000 C 
ATOM     22  F   UNL     1       2.750   2.371  20.596  0.00  0.00    +0.000 F 
ATOM     23  F   UNL     1       1.271   3.326  21.873  0.00  0.00    +0.000 F 
ATOM     24  F   UNL     1       0.661   2.410  19.998  0.00  0.00    +0.000 F 
ENDBRANCH  18  21
ENDBRANCH  14  15
ENDBRANCH  13  14
ENDBRANCH   5  13
BRANCH  12  25
ATOM     25  C   UNL     1      -2.179  12.352  21.174  0.00  0.00    +0.000 C 
BRANCH  25  26
ATOM     26  C   UNL     1      -3.313  12.563  22.142  0.00  0.00    +0.000 A 
ATOM     27  C   UNL     1      -4.538  13.086  21.710  0.00  0.00    +0.000 A 
ATOM     28  C   UNL     1      -5.572  13.303  22.621  0.00  0.00    +0.000 A 
ATOM     29  C   UNL     1      -5.397  12.985  23.967  0.00  0.00    +0.000 A 
ATOM     30  C   UNL     1      -4.197  12.429  24.401  0.00  0.00    +0.000 A 
ATOM     31  C   UNL     1      -3.163  12.211  23.493  0.00  0.00    +0.000 A 
ENDBRANCH  25  26
ENDBRANCH  12  25
TORSDOF 6
ENDMDL
MODEL 8
REMARK VINA RESULT:      -9.2      0.964      1.517
REMARK  Name = 
REMARK  6 active torsions:
REMARK  status: ('A' for Active; 'I' for Inactive)
REMARK    1  A    between atoms: C_5  and  C_6
REMARK    2  A    between atoms: C_6  and  C_7
REMARK    3  A    between atoms: C_7  and  C_8
REMARK    4  A    between atoms: C_11  and  C_12
REMARK    5  A    between atoms: N_24  and  C_25
REMARK    6  A    between atoms: C_25  and  C_26
REMARK                            x       y       z     vdW  Elec       q    Type
REMARK                         _______ _______ _______ _____ _____    ______ ____
ROOT
ATOM      1  O   UNL     1       5.537   6.078  15.166  0.00  0.00    +0.000 OA
ATOM      2  C   UNL     1       5.598   5.727  16.340  0.00  0.00    +0.000 C 
ATOM      3  C   UNL     1       6.659   6.266  17.217  0.00  0.00    +0.000 A 
ATOM      4  C   UNL     1       6.948   7.629  17.058  0.00  0.00    +0.000 A 
ATOM      5  C   UNL     1       7.857   8.282  17.900  0.00  0.00    +0.000 A 
ATOM      6  C   UNL     1       8.501   7.529  18.887  0.00  0.00    +0.000 A 
ATOM      7  C   UNL     1       8.233   6.161  19.033  0.00  0.00    +0.000 A 
ATOM      8  C   UNL     1       7.282   5.536  18.227  0.00  0.00    +0.000 A 
ATOM      9  O   UNL     1       7.056   4.209  18.459  0.00  0.00    +0.000 OA
ATOM     10  C   UNL     1       5.706   3.967  18.882  0.00  0.00    +0.000 C 
ATOM     11  C   UNL     1       4.761   3.848  17.689  0.00  0.00    +0.000 C 
ATOM     12  N   UNL     1       4.547   5.110  16.994  0.00  0.00    +0.000 N 
ENDROOT
BRANCH   5  13
ATOM     13  C   UNL     1       8.000   9.782  17.769  0.00  0.00    +0.000 C 
BRANCH  13  14
ATOM     14  C   UNL     1       9.328  10.377  18.250  0.00  0.00    +0.000 C 
BRANCH  14  15
ATOM     15  C   UNL     1       9.276  11.887  18.235  0.00  0.00    +0.000 A 
ATOM     16  C   UNL     1       8.198  12.555  17.639  0.00  0.00    +0.000 A 
ATOM     17  C   UNL     1       8.184  13.949  17.560  0.00  0.00    +0.000 A 
ATOM     18  C   UNL     1       9.251  14.702  18.069  0.00  0.00    +0.000 A 
ATOM     19  C   UNL     1      10.319  14.033  18.686  0.00  0.00    +0.000 A 
ATOM     20  C   UNL     1      10.334  12.638  18.764  0.00  0.00    +0.000 A 
BRANCH  18  21
ATOM     21  C   UNL     1       9.276  16.206  17.942  0.00  0.00    +0.000 C 
ATOM     22  F   UNL     1       9.975  16.651  16.859  0.00  0.00    +0.000 F 
ATOM     23  F   UNL     1       8.031  16.745  17.831  0.00  0.00    +0.000 F 
ATOM     24  F   UNL     1       9.849  16.807  19.023  0.00  0.00    +0.000 F 
ENDBRANCH  18  21
ENDBRANCH  14  15
ENDBRANCH  13  14
ENDBRANCH   5  13
BRANCH  12  25
ATOM     25  C   UNL     1       3.440   5.972  17.391  0.00  0.00    +0.000 C 
BRANCH  25  26
ATOM     26  C   UNL     1       2.573   5.346  18.452  0.00  0.00    +0.000 A 
ATOM     27  C   UNL     1       1.757   4.247  18.155  0.00  0.00    +0.000 A 
ATOM     28  C   UNL     1       0.938   3.692  19.138  0.00  0.00    +0.000 A 
ATOM     29  C   UNL     1       0.938   4.219  20.429  0.00  0.00    +0.000 A 
ATOM     30  C   UNL     1       1.773   5.287  20.745  0.00  0.00    +0.000 A 
ATOM     31  C   UNL     1       2.592   5.843  19.764  0.00  0.00    +0.000 A 
ENDBRANCH  25  26
ENDBRANCH  12  25
TORSDOF 6
ENDMDL
MODEL 9
REMARK VINA RESULT:      -8.9      1.370      1.764
REMARK  Name = 
REMARK  6 active torsions:
REMARK  status: ('A' for Active; 'I' for Inactive)
REMARK    1  A    between atoms: C_5  and  C_6
REMARK    2  A    between atoms: C_6  and  C_7
REMARK    3  A    between atoms: C_7  and  C_8
REMARK    4  A    between atoms: C_11  and  C_12
REMARK    5  A    between atoms: N_24  and  C_25
REMARK    6  A    between atoms: C_25  and  C_26
REMARK                            x       y       z     vdW  Elec       q    Type
REMARK                         _______ _______ _______ _____ _____    ______ ____
ROOT
ATOM      1  O   UNL     1       5.427   6.257  15.166  0.00  0.00    +0.000 OA
ATOM      2  C   UNL     1       5.511   5.851  16.321  0.00  0.00    +0.000 C 
ATOM      3  C   UNL     1       6.596   6.340  17.198  0.00  0.00    +0.000 A 
ATOM      4  C   UNL     1       6.896   7.706  17.096  0.00  0.00    +0.000 A 
ATOM      5  C   UNL     1       7.829   8.311  17.947  0.00  0.00    +0.000 A 
ATOM      6  C   UNL     1       8.488   7.507  18.883  0.00  0.00    +0.000 A 
ATOM      7  C   UNL     1       8.210   6.136  18.970  0.00  0.00    +0.000 A 
ATOM      8  C   UNL     1       7.234   5.558  18.158  0.00  0.00    +0.000 A 
ATOM      9  O   UNL     1       7.001   4.223  18.333  0.00  0.00    +0.000 OA
ATOM     10  C   UNL     1       5.659   3.974  18.775  0.00  0.00    +0.000 C 
ATOM     11  C   UNL     1       4.686   3.919  17.600  0.00  0.00    +0.000 C 
ATOM     12  N   UNL     1       4.468   5.214  16.969  0.00  0.00    +0.000 N 
ENDROOT
BRANCH   5  13
ATOM     13  C   UNL     1       7.984   9.814  17.883  0.00  0.00    +0.000 C 
BRANCH  13  14
ATOM     14  C   UNL     1       9.357  10.368  18.276  0.00  0.00    +0.000 C 
BRANCH  14  15
ATOM     15  C   UNL     1       9.248  11.808  18.720  0.00  0.00    +0.000 A 
ATOM     16  C   UNL     1       9.393  12.147  20.072  0.00  0.00    +0.000 A 
ATOM     17  C   UNL     1       9.221  13.468  20.493  0.00  0.00    +0.000 A 
ATOM     18  C   UNL     1       8.893  14.472  19.573  0.00  0.00    +0.000 A 
ATOM     19  C   UNL     1       8.771  14.134  18.217  0.00  0.00    +0.000 A 
ATOM     20  C   UNL     1       8.941  12.814  17.795  0.00  0.00    +0.000 A 
BRANCH  18  21
ATOM     21  C   UNL     1       8.650  15.892  20.021  0.00  0.00    +0.000 C 
ATOM     22  F   UNL     1       9.756  16.501  20.535  0.00  0.00    +0.000 F 
ATOM     23  F   UNL     1       8.217  16.696  19.011  0.00  0.00    +0.000 F 
ATOM     24  F   UNL     1       7.699  15.972  20.994  0.00  0.00    +0.000 F 
ENDBRANCH  18  21
ENDBRANCH  14  15
ENDBRANCH  13  14
ENDBRANCH   5  13
BRANCH  12  25
ATOM     25  C   UNL     1       3.379   6.066  17.431  0.00  0.00    +0.000 C 
BRANCH  25  26
ATOM     26  C   UNL     1       2.513   5.388  18.460  0.00  0.00    +0.000 A 
ATOM     27  C   UNL     1       2.482   5.844  19.784  0.00  0.00    +0.000 A 
ATOM     28  C   UNL     1       1.698   5.191  20.735  0.00  0.00    +0.000 A 
ATOM     29  C   UNL     1       0.927   4.088  20.369  0.00  0.00    +0.000 A 
ATOM     30  C   UNL     1       0.920   3.650  19.048  0.00  0.00    +0.000 A 
ATOM     31  C   UNL     1       1.703   4.301  18.096  0.00  0.00    +0.000 A 
ENDBRANCH  25  26
ENDBRANCH  12  25
TORSDOF 6
ENDMDL
