MODEL 1
REMARK VINA RESULT:      -8.1      0.000      0.000
REMARK  Name = 
REMARK  9 active torsions:
REMARK  status: ('A' for Active; 'I' for Inactive)
REMARK    1  A    between atoms: C_1  and  C_2
REMARK    2  A    between atoms: C_2  and  C_3
REMARK    3  A    between atoms: C_3  and  C_4
REMARK    4  A    between atoms: C_4  and  C_5
REMARK    5  A    between atoms: N_11  and  N_12
REMARK    6  A    between atoms: C_13  and  C_15
REMARK    7  A    between atoms: N_17  and  C_18
REMARK    8  A    between atoms: C_18  and  C_19
REMARK    9  A    between atoms: C_18  and  C_20
REMARK                            x       y       z     vdW  Elec       q    Type
REMARK                         _______ _______ _______ _____ _____    ______ ____
ROOT
ATOM      1  N   UNL     1       5.711   4.163  17.768  0.00  0.00    +0.000 N 
ATOM      2  C   UNL     1       7.014   4.507  17.446  0.00  0.00    +0.000 C 
ATOM      3  O   UNL     1       8.037   4.312  18.089  0.00  0.00    +0.000 OA
ATOM      4  H   UNL     1       4.988   4.387  17.090  0.00  0.00    +0.000 HD
ENDROOT
BRANCH   2   5
ATOM      5  C   UNL     1       7.107   5.245  16.094  0.00  0.00    +0.000 C 
ATOM      6  O   UNL     1       7.402   6.433  16.072  0.00  0.00    +0.000 OA
ATOM      7  N   UNL     1       6.854   4.445  15.006  0.00  0.00    +0.000 N 
ATOM      8  H   UNL     1       6.578   3.487  15.211  0.00  0.00    +0.000 HD
BRANCH   7   9
ATOM      9  C   UNL     1       6.877   4.913  13.633  0.00  0.00    +0.000 C 
ATOM     10  C   UNL     1       8.288   5.369  13.255  0.00  0.00    +0.000 C 
BRANCH   9  11
ATOM     11  C   UNL     1       6.356   3.842  12.690  0.00  0.00    +0.000 A 
ATOM     12  C   UNL     1       4.981   3.755  12.418  0.00  0.00    +0.000 A 
ATOM     13  C   UNL     1       4.481   2.764  11.568  0.00  0.00    +0.000 A 
ATOM     14  C   UNL     1       5.347   1.849  10.977  0.00  0.00    +0.000 A 
ATOM     15  C   UNL     1       6.714   1.927  11.228  0.00  0.00    +0.000 A 
ATOM     16  C   UNL     1       7.217   2.917  12.075  0.00  0.00    +0.000 A 
ENDBRANCH   9  11
ENDBRANCH   7   9
ENDBRANCH   2   5
BRANCH   1  19
ATOM     17  C   UNL     1       4.232   2.145  20.442  0.00  0.00    +0.000 C 
ATOM     18  C   UNL     1       4.355   2.838  19.098  0.00  0.00    +0.000 C 
ATOM     19  N   UNL     1       5.438   3.544  18.947  0.00  0.00    +0.000 NA
BRANCH  18  20
ATOM     20  C   UNL     1       3.295   2.602  18.026  0.00  0.00    +0.000 C 
BRANCH  20  21
ATOM     21  C   UNL     1       1.910   3.166  18.354  0.00  0.00    +0.000 C 
BRANCH  21  22
ATOM     22  C   UNL     1       1.983   4.591  18.843  0.00  0.00    +0.000 A 
ATOM     23  C   UNL     1       2.408   5.613  17.981  0.00  0.00    +0.000 A 
ATOM     24  C   UNL     1       2.512   6.927  18.438  0.00  0.00    +0.000 A 
ATOM     25  C   UNL     1       2.194   7.232  19.760  0.00  0.00    +0.000 A 
ATOM     26  C   UNL     1       1.759   6.226  20.621  0.00  0.00    +0.000 A 
ATOM     27  C   UNL     1       1.654   4.911  20.167  0.00  0.00    +0.000 A 
ENDBRANCH  21  22
ENDBRANCH  20  21
ENDBRANCH  18  20
ENDBRANCH   1  19
TORSDOF 7
ENDMDL
MODEL 2
REMARK VINA RESULT:      -7.6      5.296      7.574
REMARK  Name = 
REMARK  9 active torsions:
REMARK  status: ('A' for Active; 'I' for Inactive)
REMARK    1  A    between atoms: C_1  and  C_2
REMARK    2  A    between atoms: C_2  and  C_3
REMARK    3  A    between atoms: C_3  and  C_4
REMARK    4  A    between atoms: C_4  and  C_5
REMARK    5  A    between atoms: N_11  and  N_12
REMARK    6  A    between atoms: C_13  and  C_15
REMARK    7  A    between atoms: N_17  and  C_18
REMARK    8  A    between atoms: C_18  and  C_19
REMARK    9  A    between atoms: C_18  and  C_20
REMARK                            x       y       z     vdW  Elec       q    Type
REMARK                         _______ _______ _______ _____ _____    ______ ____
ROOT
ATOM      1  N   UNL     1       7.605   7.499  16.798  0.00  0.00    +0.000 N 
ATOM      2  C   UNL     1       8.145   7.840  18.027  0.00  0.00    +0.000 C 
ATOM      3  O   UNL     1       8.555   7.102  18.913  0.00  0.00    +0.000 OA
ATOM      4  H   UNL     1       7.342   8.258  16.176  0.00  0.00    +0.000 HD
ENDROOT
BRANCH   2   5
ATOM      5  C   UNL     1       8.188   9.367  18.243  0.00  0.00    +0.000 C 
ATOM      6  O   UNL     1       7.585  10.104  17.473  0.00  0.00    +0.000 OA
ATOM      7  N   UNL     1       8.918   9.753  19.340  0.00  0.00    +0.000 N 
ATOM      8  H   UNL     1       9.392   9.007  19.846  0.00  0.00    +0.000 HD
BRANCH   7   9
ATOM      9  C   UNL     1       9.106  11.134  19.745  0.00  0.00    +0.000 C 
ATOM     10  C   UNL     1       9.570  11.198  21.201  0.00  0.00    +0.000 C 
BRANCH   9  11
ATOM     11  C   UNL     1      10.071  11.843  18.811  0.00  0.00    +0.000 A 
ATOM     12  C   UNL     1      11.426  11.470  18.786  0.00  0.00    +0.000 A 
ATOM     13  C   UNL     1      12.333  12.125  17.949  0.00  0.00    +0.000 A 
ATOM     14  C   UNL     1      11.901  13.158  17.122  0.00  0.00    +0.000 A 
ATOM     15  C   UNL     1      10.560  13.534  17.127  0.00  0.00    +0.000 A 
ATOM     16  C   UNL     1       9.651  12.880  17.962  0.00  0.00    +0.000 A 
ENDBRANCH   9  11
ENDBRANCH   7   9
ENDBRANCH   2   5
BRANCH   1  19
ATOM     17  C   UNL     1       6.287   4.139  16.180  0.00  0.00    +0.000 C 
ATOM     18  C   UNL     1       6.333   5.566  16.691  0.00  0.00    +0.000 C 
ATOM     19  N   UNL     1       7.450   6.192  16.456  0.00  0.00    +0.000 NA
BRANCH  18  20
ATOM     20  C   UNL     1       5.093   6.178  17.336  0.00  0.00    +0.000 C 
BRANCH  20  21
ATOM     21  C   UNL     1       4.792   5.681  18.753  0.00  0.00    +0.000 C 
BRANCH  21  22
ATOM     22  C   UNL     1       3.468   4.962  18.828  0.00  0.00    +0.000 A 
ATOM     23  C   UNL     1       2.694   5.028  19.996  0.00  0.00    +0.000 A 
ATOM     24  C   UNL     1       1.485   4.335  20.085  0.00  0.00    +0.000 A 
ATOM     25  C   UNL     1       1.041   3.569  19.008  0.00  0.00    +0.000 A 
ATOM     26  C   UNL     1       1.797   3.507  17.839  0.00  0.00    +0.000 A 
ATOM     27  C   UNL     1       3.006   4.199  17.748  0.00  0.00    +0.000 A 
ENDBRANCH  21  22
ENDBRANCH  20  21
ENDBRANCH  18  20
ENDBRANCH   1  19
TORSDOF 7
ENDMDL
MODEL 3
REMARK VINA RESULT:      -7.5      3.684      8.416
REMARK  Name = 
REMARK  9 active torsions:
REMARK  status: ('A' for Active; 'I' for Inactive)
REMARK    1  A    between atoms: C_1  and  C_2
REMARK    2  A    between atoms: C_2  and  C_3
REMARK    3  A    between atoms: C_3  and  C_4
REMARK    4  A    between atoms: C_4  and  C_5
REMARK    5  A    between atoms: N_11  and  N_12
REMARK    6  A    between atoms: C_13  and  C_15
REMARK    7  A    between atoms: N_17  and  C_18
REMARK    8  A    between atoms: C_18  and  C_19
REMARK    9  A    between atoms: C_18  and  C_20
REMARK                            x       y       z     vdW  Elec       q    Type
REMARK                         _______ _______ _______ _____ _____    ______ ____
ROOT
ATOM      1  N   UNL     1       3.828   6.053  18.551  0.00  0.00    +0.000 N 
ATOM      2  C   UNL     1       3.029   7.185  18.500  0.00  0.00    +0.000 C 
ATOM      3  O   UNL     1       3.004   8.063  17.648  0.00  0.00    +0.000 OA
ATOM      4  H   UNL     1       3.687   5.418  19.332  0.00  0.00    +0.000 HD
ENDROOT
BRANCH   2   5
ATOM      5  C   UNL     1       2.088   7.292  19.717  0.00  0.00    +0.000 C 
ATOM      6  O   UNL     1       1.925   6.319  20.444  0.00  0.00    +0.000 OA
ATOM      7  N   UNL     1       1.522   8.533  19.875  0.00  0.00    +0.000 N 
ATOM      8  H   UNL     1       1.734   9.216  19.149  0.00  0.00    +0.000 HD
BRANCH   7   9
ATOM      9  C   UNL     1       0.602   8.875  20.942  0.00  0.00    +0.000 C 
ATOM     10  C   UNL     1       1.372   9.151  22.235  0.00  0.00    +0.000 C 
BRANCH   9  11
ATOM     11  C   UNL     1      -0.274  10.051  20.544  0.00  0.00    +0.000 A 
ATOM     12  C   UNL     1      -0.660  10.997  21.508  0.00  0.00    +0.000 A 
ATOM     13  C   UNL     1      -1.482  12.074  21.164  0.00  0.00    +0.000 A 
ATOM     14  C   UNL     1      -1.927  12.223  19.854  0.00  0.00    +0.000 A 
ATOM     15  C   UNL     1      -1.546  11.300  18.884  0.00  0.00    +0.000 A 
ATOM     16  C   UNL     1      -0.724  10.223  19.224  0.00  0.00    +0.000 A 
ENDBRANCH   9  11
ENDBRANCH   7   9
ENDBRANCH   2   5
BRANCH   1  19
ATOM     17  C   UNL     1       5.705   4.714  15.707  0.00  0.00    +0.000 C 
ATOM     18  C   UNL     1       4.645   4.792  16.790  0.00  0.00    +0.000 C 
ATOM     19  N   UNL     1       4.750   5.821  17.580  0.00  0.00    +0.000 NA
BRANCH  18  20
ATOM     20  C   UNL     1       3.524   3.757  16.825  0.00  0.00    +0.000 C 
BRANCH  20  21
ATOM     21  C   UNL     1       3.744   2.602  17.805  0.00  0.00    +0.000 C 
BRANCH  21  22
ATOM     22  C   UNL     1       2.883   2.735  19.037  0.00  0.00    +0.000 A 
ATOM     23  C   UNL     1       3.457   2.645  20.313  0.00  0.00    +0.000 A 
ATOM     24  C   UNL     1       2.660   2.731  21.456  0.00  0.00    +0.000 A 
ATOM     25  C   UNL     1       1.283   2.907  21.333  0.00  0.00    +0.000 A 
ATOM     26  C   UNL     1       0.705   3.010  20.069  0.00  0.00    +0.000 A 
ATOM     27  C   UNL     1       1.499   2.924  18.925  0.00  0.00    +0.000 A 
ENDBRANCH  21  22
ENDBRANCH  20  21
ENDBRANCH  18  20
ENDBRANCH   1  19
TORSDOF 7
ENDMDL
MODEL 4
REMARK VINA RESULT:      -7.5      3.599      8.256
REMARK  Name = 
REMARK  9 active torsions:
REMARK  status: ('A' for Active; 'I' for Inactive)
REMARK    1  A    between atoms: C_1  and  C_2
REMARK    2  A    between atoms: C_2  and  C_3
REMARK    3  A    between atoms: C_3  and  C_4
REMARK    4  A    between atoms: C_4  and  C_5
REMARK    5  A    between atoms: N_11  and  N_12
REMARK    6  A    between atoms: C_13  and  C_15
REMARK    7  A    between atoms: N_17  and  C_18
REMARK    8  A    between atoms: C_18  and  C_19
REMARK    9  A    between atoms: C_18  and  C_20
REMARK                            x       y       z     vdW  Elec       q    Type
REMARK                         _______ _______ _______ _____ _____    ______ ____
ROOT
ATOM      1  N   UNL     1       3.971   5.909  18.777  0.00  0.00    +0.000 N 
ATOM      2  C   UNL     1       3.096   6.960  18.553  0.00  0.00    +0.000 C 
ATOM      3  O   UNL     1       3.032   7.709  17.587  0.00  0.00    +0.000 OA
ATOM      4  H   UNL     1       3.854   5.379  19.636  0.00  0.00    +0.000 HD
ENDROOT
BRANCH   2   5
ATOM      5  C   UNL     1       2.115   7.163  19.726  0.00  0.00    +0.000 C 
ATOM      6  O   UNL     1       1.843   6.220  20.458  0.00  0.00    +0.000 OA
ATOM      7  N   UNL     1       1.643   8.448  19.840  0.00  0.00    +0.000 N 
ATOM      8  H   UNL     1       1.940   9.098  19.115  0.00  0.00    +0.000 HD
BRANCH   7   9
ATOM      9  C   UNL     1       0.708   8.881  20.861  0.00  0.00    +0.000 C 
ATOM     10  C   UNL     1       1.459   9.253  22.141  0.00  0.00    +0.000 C 
BRANCH   9  11
ATOM     11  C   UNL     1      -0.150  10.028  20.355  0.00  0.00    +0.000 A 
ATOM     12  C   UNL     1      -0.425  10.147  18.983  0.00  0.00    +0.000 A 
ATOM     13  C   UNL     1      -1.195  11.206  18.497  0.00  0.00    +0.000 A 
ATOM     14  C   UNL     1      -1.706  12.159  19.373  0.00  0.00    +0.000 A 
ATOM     15  C   UNL     1      -1.451  12.051  20.738  0.00  0.00    +0.000 A 
ATOM     16  C   UNL     1      -0.682  10.992  21.227  0.00  0.00    +0.000 A 
ENDBRANCH   9  11
ENDBRANCH   7   9
ENDBRANCH   2   5
BRANCH   1  19
ATOM     17  C   UNL     1       5.926   4.452  16.045  0.00  0.00    +0.000 C 
ATOM     18  C   UNL     1       4.806   4.602  17.058  0.00  0.00    +0.000 C 
ATOM     19  N   UNL     1       4.935   5.615  17.865  0.00  0.00    +0.000 NA
BRANCH  18  20
ATOM     20  C   UNL     1       3.611   3.654  17.008  0.00  0.00    +0.000 C 
BRANCH  20  21
ATOM     21  C   UNL     1       3.726   2.425  17.914  0.00  0.00    +0.000 C 
BRANCH  21  22
ATOM     22  C   UNL     1       2.877   2.558  19.154  0.00  0.00    +0.000 A 
ATOM     23  C   UNL     1       1.493   2.761  19.045  0.00  0.00    +0.000 A 
ATOM     24  C   UNL     1       0.708   2.921  20.188  0.00  0.00    +0.000 A 
ATOM     25  C   UNL     1       1.299   2.880  21.449  0.00  0.00    +0.000 A 
ATOM     26  C   UNL     1       2.671   2.667  21.569  0.00  0.00    +0.000 A 
ATOM     27  C   UNL     1       3.458   2.506  20.428  0.00  0.00    +0.000 A 
ENDBRANCH  21  22
ENDBRANCH  20  21
ENDBRANCH  18  20
ENDBRANCH   1  19
TORSDOF 7
ENDMDL
MODEL 5
REMARK VINA RESULT:      -7.4      4.080      7.965
REMARK  Name = 
REMARK  9 active torsions:
REMARK  status: ('A' for Active; 'I' for Inactive)
REMARK    1  A    between atoms: C_1  and  C_2
REMARK    2  A    between atoms: C_2  and  C_3
REMARK    3  A    between atoms: C_3  and  C_4
REMARK    4  A    between atoms: C_4  and  C_5
REMARK    5  A    between atoms: N_11  and  N_12
REMARK    6  A    between atoms: C_13  and  C_15
REMARK    7  A    between atoms: N_17  and  C_18
REMARK    8  A    between atoms: C_18  and  C_19
REMARK    9  A    between atoms: C_18  and  C_20
REMARK                            x       y       z     vdW  Elec       q    Type
REMARK                         _______ _______ _______ _____ _____    ______ ____
ROOT
ATOM      1  N   UNL     1       3.823   7.343  17.818  0.00  0.00    +0.000 N 
ATOM      2  C   UNL     1       2.500   7.085  18.137  0.00  0.00    +0.000 C 
ATOM      3  O   UNL     1       1.798   6.146  17.784  0.00  0.00    +0.000 OA
ATOM      4  H   UNL     1       4.251   8.167  18.231  0.00  0.00    +0.000 HD
ENDROOT
BRANCH   2   5
ATOM      5  C   UNL     1       1.894   8.176  19.044  0.00  0.00    +0.000 C 
ATOM      6  O   UNL     1       1.924   8.037  20.261  0.00  0.00    +0.000 OA
ATOM      7  N   UNL     1       1.379   9.248  18.357  0.00  0.00    +0.000 N 
ATOM      8  H   UNL     1       1.398   9.177  17.341  0.00  0.00    +0.000 HD
BRANCH   7   9
ATOM      9  C   UNL     1       0.755  10.393  18.991  0.00  0.00    +0.000 C 
ATOM     10  C   UNL     1       1.592  11.651  18.749  0.00  0.00    +0.000 C 
BRANCH   9  11
ATOM     11  C   UNL     1      -0.675  10.564  18.508  0.00  0.00    +0.000 A 
ATOM     12  C   UNL     1      -1.509  11.522  19.108  0.00  0.00    +0.000 A 
ATOM     13  C   UNL     1      -2.834  11.680  18.692  0.00  0.00    +0.000 A 
ATOM     14  C   UNL     1      -3.343  10.886  17.668  0.00  0.00    +0.000 A 
ATOM     15  C   UNL     1      -2.528   9.938  17.056  0.00  0.00    +0.000 A 
ATOM     16  C   UNL     1      -1.203   9.780  17.469  0.00  0.00    +0.000 A 
ENDBRANCH   9  11
ENDBRANCH   7   9
ENDBRANCH   2   5
BRANCH   1  19
ATOM     17  C   UNL     1       5.823   4.618  16.410  0.00  0.00    +0.000 C 
ATOM     18  C   UNL     1       5.187   5.505  17.464  0.00  0.00    +0.000 C 
ATOM     19  N   UNL     1       4.504   6.506  16.990  0.00  0.00    +0.000 NA
BRANCH  18  20
ATOM     20  C   UNL     1       5.308   5.133  18.939  0.00  0.00    +0.000 C 
BRANCH  20  21
ATOM     21  C   UNL     1       4.918   3.690  19.273  0.00  0.00    +0.000 C 
BRANCH  21  22
ATOM     22  C   UNL     1       3.427   3.537  19.452  0.00  0.00    +0.000 A 
ATOM     23  C   UNL     1       2.770   4.201  20.498  0.00  0.00    +0.000 A 
ATOM     24  C   UNL     1       1.397   4.034  20.691  0.00  0.00    +0.000 A 
ATOM     25  C   UNL     1       0.671   3.203  19.841  0.00  0.00    +0.000 A 
ATOM     26  C   UNL     1       1.313   2.548  18.791  0.00  0.00    +0.000 A 
ATOM     27  C   UNL     1       2.685   2.713  18.596  0.00  0.00    +0.000 A 
ENDBRANCH  21  22
ENDBRANCH  20  21
ENDBRANCH  18  20
ENDBRANCH   1  19
TORSDOF 7
ENDMDL
MODEL 6
REMARK VINA RESULT:      -7.4      4.023      8.659
REMARK  Name = 
REMARK  9 active torsions:
REMARK  status: ('A' for Active; 'I' for Inactive)
REMARK    1  A    between atoms: C_1  and  C_2
REMARK    2  A    between atoms: C_2  and  C_3
REMARK    3  A    between atoms: C_3  and  C_4
REMARK    4  A    between atoms: C_4  and  C_5
REMARK    5  A    between atoms: N_11  and  N_12
REMARK    6  A    between atoms: C_13  and  C_15
REMARK    7  A    between atoms: N_17  and  C_18
REMARK    8  A    between atoms: C_18  and  C_19
REMARK    9  A    between atoms: C_18  and  C_20
REMARK                            x       y       z     vdW  Elec       q    Type
REMARK                         _______ _______ _______ _____ _____    ______ ____
ROOT
ATOM      1  N   UNL     1       2.306   5.275  18.180  0.00  0.00    +0.000 N 
ATOM      2  C   UNL     1       2.384   6.028  19.341  0.00  0.00    +0.000 C 
ATOM      3  O   UNL     1       2.480   5.639  20.497  0.00  0.00    +0.000 OA
ATOM      4  H   UNL     1       2.257   5.780  17.299  0.00  0.00    +0.000 HD
ENDROOT
BRANCH   2   5
ATOM      5  C   UNL     1       2.319   7.543  19.060  0.00  0.00    +0.000 C 
ATOM      6  O   UNL     1       3.018   8.027  18.179  0.00  0.00    +0.000 OA
ATOM      7  N   UNL     1       1.425   8.218  19.855  0.00  0.00    +0.000 N 
ATOM      8  H   UNL     1       0.957   7.664  20.570  0.00  0.00    +0.000 HD
BRANCH   7   9
ATOM      9  C   UNL     1       1.190   9.647  19.780  0.00  0.00    +0.000 C 
ATOM     10  C   UNL     1       0.541  10.006  18.442  0.00  0.00    +0.000 C 
BRANCH   9  11
ATOM     11  C   UNL     1       0.356  10.120  20.958  0.00  0.00    +0.000 A 
ATOM     12  C   UNL     1       0.290   9.345  22.128  0.00  0.00    +0.000 A 
ATOM     13  C   UNL     1      -0.488   9.753  23.215  0.00  0.00    +0.000 A 
ATOM     14  C   UNL     1      -1.209  10.942  23.150  0.00  0.00    +0.000 A 
ATOM     15  C   UNL     1      -1.149  11.727  22.001  0.00  0.00    +0.000 A 
ATOM     16  C   UNL     1      -0.370  11.322  20.915  0.00  0.00    +0.000 A 
ENDBRANCH   9  11
ENDBRANCH   7   9
ENDBRANCH   2   5
BRANCH   1  19
ATOM     17  C   UNL     1       3.235   1.734  18.133  0.00  0.00    +0.000 C 
ATOM     18  C   UNL     1       3.368   3.232  17.936  0.00  0.00    +0.000 C 
ATOM     19  N   UNL     1       2.305   3.918  18.242  0.00  0.00    +0.000 NA
BRANCH  18  20
ATOM     20  C   UNL     1       4.707   3.820  17.499  0.00  0.00    +0.000 C 
BRANCH  20  21
ATOM     21  C   UNL     1       5.633   4.238  18.645  0.00  0.00    +0.000 C 
BRANCH  21  22
ATOM     22  C   UNL     1       6.367   5.520  18.338  0.00  0.00    +0.000 A 
ATOM     23  C   UNL     1       5.886   6.389  17.348  0.00  0.00    +0.000 A 
ATOM     24  C   UNL     1       6.581   7.558  17.034  0.00  0.00    +0.000 A 
ATOM     25  C   UNL     1       7.762   7.868  17.705  0.00  0.00    +0.000 A 
ATOM     26  C   UNL     1       8.242   7.017  18.699  0.00  0.00    +0.000 A 
ATOM     27  C   UNL     1       7.549   5.847  19.015  0.00  0.00    +0.000 A 
ENDBRANCH  21  22
ENDBRANCH  20  21
ENDBRANCH  18  20
ENDBRANCH   1  19
TORSDOF 7
ENDMDL
MODEL 7
REMARK VINA RESULT:      -7.3      3.953      7.975
REMARK  Name = 
REMARK  9 active torsions:
REMARK  status: ('A' for Active; 'I' for Inactive)
REMARK    1  A    between atoms: C_1  and  C_2
REMARK    2  A    between atoms: C_2  and  C_3
REMARK    3  A    between atoms: C_3  and  C_4
REMARK    4  A    between atoms: C_4  and  C_5
REMARK    5  A    between atoms: N_11  and  N_12
REMARK    6  A    between atoms: C_13  and  C_15
REMARK    7  A    between atoms: N_17  and  C_18
REMARK    8  A    between atoms: C_18  and  C_19
REMARK    9  A    between atoms: C_18  and  C_20
REMARK                            x       y       z     vdW  Elec       q    Type
REMARK                         _______ _______ _______ _____ _____    ______ ____
ROOT
ATOM      1  N   UNL     1       3.568   6.330  18.296  0.00  0.00    +0.000 N 
ATOM      2  C   UNL     1       3.015   7.561  17.982  0.00  0.00    +0.000 C 
ATOM      3  O   UNL     1       3.220   8.262  16.999  0.00  0.00    +0.000 OA
ATOM      4  H   UNL     1       3.254   5.882  19.152  0.00  0.00    +0.000 HD
ENDROOT
BRANCH   2   5
ATOM      5  C   UNL     1       2.037   8.056  19.066  0.00  0.00    +0.000 C 
ATOM      6  O   UNL     1       1.948   7.447  20.125  0.00  0.00    +0.000 OA
ATOM      7  N   UNL     1       1.352   9.196  18.720  0.00  0.00    +0.000 N 
ATOM      8  H   UNL     1       1.518   9.546  17.778  0.00  0.00    +0.000 HD
BRANCH   7   9
ATOM      9  C   UNL     1       0.377   9.847  19.573  0.00  0.00    +0.000 C 
ATOM     10  C   UNL     1       1.029  11.005  20.332  0.00  0.00    +0.000 C 
BRANCH   9  11
ATOM     11  C   UNL     1      -0.825  10.305  18.766  0.00  0.00    +0.000 A 
ATOM     12  C   UNL     1      -1.107   9.709  17.525  0.00  0.00    +0.000 A 
ATOM     13  C   UNL     1      -2.197  10.132  16.760  0.00  0.00    +0.000 A 
ATOM     14  C   UNL     1      -3.023  11.151  17.222  0.00  0.00    +0.000 A 
ATOM     15  C   UNL     1      -2.764  11.747  18.454  0.00  0.00    +0.000 A 
ATOM     16  C   UNL     1      -1.676  11.326  19.223  0.00  0.00    +0.000 A 
ENDBRANCH   9  11
ENDBRANCH   7   9
ENDBRANCH   2   5
BRANCH   1  19
ATOM     17  C   UNL     1       5.313   4.195  15.887  0.00  0.00    +0.000 C 
ATOM     18  C   UNL     1       4.219   4.661  16.828  0.00  0.00    +0.000 C 
ATOM     19  N   UNL     1       4.486   5.761  17.471  0.00  0.00    +0.000 NA
BRANCH  18  20
ATOM     20  C   UNL     1       2.900   3.896  16.891  0.00  0.00    +0.000 C 
BRANCH  20  21
ATOM     21  C   UNL     1       2.972   2.546  17.610  0.00  0.00    +0.000 C 
BRANCH  21  22
ATOM     22  C   UNL     1       2.508   2.645  19.043  0.00  0.00    +0.000 A 
ATOM     23  C   UNL     1       1.168   2.938  19.332  0.00  0.00    +0.000 A 
ATOM     24  C   UNL     1       0.740   3.066  20.655  0.00  0.00    +0.000 A 
ATOM     25  C   UNL     1       1.649   2.905  21.699  0.00  0.00    +0.000 A 
ATOM     26  C   UNL     1       2.980   2.602  21.422  0.00  0.00    +0.000 A 
ATOM     27  C   UNL     1       3.411   2.472  20.100  0.00  0.00    +0.000 A 
ENDBRANCH  21  22
ENDBRANCH  20  21
ENDBRANCH  18  20
ENDBRANCH   1  19
TORSDOF 7
ENDMDL
MODEL 8
REMARK VINA RESULT:      -7.3      5.285      9.044
REMARK  Name = 
REMARK  9 active torsions:
REMARK  status: ('A' for Active; 'I' for Inactive)
REMARK    1  A    between atoms: C_1  and  C_2
REMARK    2  A    between atoms: C_2  and  C_3
REMARK    3  A    between atoms: C_3  and  C_4
REMARK    4  A    between atoms: C_4  and  C_5
REMARK    5  A    between atoms: N_11  and  N_12
REMARK    6  A    between atoms: C_13  and  C_15
REMARK    7  A    between atoms: N_17  and  C_18
REMARK    8  A    between atoms: C_18  and  C_19
REMARK    9  A    between atoms: C_18  and  C_20
REMARK                            x       y       z     vdW  Elec       q    Type
REMARK                         _______ _______ _______ _____ _____    ______ ____
ROOT
ATOM      1  N   UNL     1       2.170   8.013  19.003  0.00  0.00    +0.000 N 
ATOM      2  C   UNL     1       1.679   9.155  18.390  0.00  0.00    +0.000 C 
ATOM      3  O   UNL     1       2.059   9.689  17.355  0.00  0.00    +0.000 OA
ATOM      4  H   UNL     1       1.706   7.704  19.852  0.00  0.00    +0.000 HD
ENDROOT
BRANCH   2   5
ATOM      5  C   UNL     1       0.518   9.790  19.180  0.00  0.00    +0.000 C 
ATOM      6  O   UNL     1       0.224   9.348  20.284  0.00  0.00    +0.000 OA
ATOM      7  N   UNL     1      -0.080  10.847  18.539  0.00  0.00    +0.000 N 
ATOM      8  H   UNL     1       0.264  11.053  17.602  0.00  0.00    +0.000 HD
BRANCH   7   9
ATOM      9  C   UNL     1      -1.194  11.601  19.081  0.00  0.00    +0.000 C 
ATOM     10  C   UNL     1      -0.795  13.064  19.280  0.00  0.00    +0.000 C 
BRANCH   9  11
ATOM     11  C   UNL     1      -2.420  11.465  18.194  0.00  0.00    +0.000 A 
ATOM     12  C   UNL     1      -2.287  10.985  16.881  0.00  0.00    +0.000 A 
ATOM     13  C   UNL     1      -3.400  10.872  16.044  0.00  0.00    +0.000 A 
ATOM     14  C   UNL     1      -4.662  11.233  16.507  0.00  0.00    +0.000 A 
ATOM     15  C   UNL     1      -4.814  11.702  17.809  0.00  0.00    +0.000 A 
ATOM     16  C   UNL     1      -3.703  11.814  18.648  0.00  0.00    +0.000 A 
ENDBRANCH   9  11
ENDBRANCH   7   9
ENDBRANCH   2   5
BRANCH   1  19
ATOM     17  C   UNL     1       4.322   5.621  17.257  0.00  0.00    +0.000 C 
ATOM     18  C   UNL     1       3.063   6.199  17.874  0.00  0.00    +0.000 C 
ATOM     19  N   UNL     1       3.226   7.347  18.466  0.00  0.00    +0.000 NA
BRANCH  18  20
ATOM     20  C   UNL     1       1.732   5.476  17.693  0.00  0.00    +0.000 C 
BRANCH  20  21
ATOM     21  C   UNL     1       1.824   3.948  17.681  0.00  0.00    +0.000 C 
BRANCH  21  22
ATOM     22  C   UNL     1       2.030   3.385  19.065  0.00  0.00    +0.000 A 
ATOM     23  C   UNL     1       0.987   3.413  20.002  0.00  0.00    +0.000 A 
ATOM     24  C   UNL     1       1.182   2.926  21.295  0.00  0.00    +0.000 A 
ATOM     25  C   UNL     1       2.422   2.409  21.665  0.00  0.00    +0.000 A 
ATOM     26  C   UNL     1       3.462   2.366  20.738  0.00  0.00    +0.000 A 
ATOM     27  C   UNL     1       3.269   2.851  19.443  0.00  0.00    +0.000 A 
ENDBRANCH  21  22
ENDBRANCH  20  21
ENDBRANCH  18  20
ENDBRANCH   1  19
TORSDOF 7
ENDMDL
MODEL 9
REMARK VINA RESULT:      -7.3      5.361      8.392
REMARK  Name = 
REMARK  9 active torsions:
REMARK  status: ('A' for Active; 'I' for Inactive)
REMARK    1  A    between atoms: C_1  and  C_2
REMARK    2  A    between atoms: C_2  and  C_3
REMARK    3  A    between atoms: C_3  and  C_4
REMARK    4  A    between atoms: C_4  and  C_5
REMARK    5  A    between atoms: N_11  and  N_12
REMARK    6  A    between atoms: C_13  and  C_15
REMARK    7  A    between atoms: N_17  and  C_18
REMARK    8  A    between atoms: C_18  and  C_19
REMARK    9  A    between atoms: C_18  and  C_20
REMARK                            x       y       z     vdW  Elec       q    Type
REMARK                         _______ _______ _______ _____ _____    ______ ____
ROOT
ATOM      1  N   UNL     1      -0.061   9.284  20.938  0.00  0.00    +0.000 N 
ATOM      2  C   UNL     1       1.207   8.768  21.158  0.00  0.00    +0.000 C 
ATOM      3  O   UNL     1       1.886   8.819  22.175  0.00  0.00    +0.000 OA
ATOM      4  H   UNL     1      -0.481   9.118  20.028  0.00  0.00    +0.000 HD
ENDROOT
BRANCH   2   5
ATOM      5  C   UNL     1       1.777   8.068  19.908  0.00  0.00    +0.000 C 
ATOM      6  O   UNL     1       1.681   8.610  18.814  0.00  0.00    +0.000 OA
ATOM      7  N   UNL     1       2.380   6.863  20.172  0.00  0.00    +0.000 N 
ATOM      8  H   UNL     1       2.330   6.541  21.137  0.00  0.00    +0.000 HD
BRANCH   7   9
ATOM      9  C   UNL     1       2.986   6.019  19.159  0.00  0.00    +0.000 C 
ATOM     10  C   UNL     1       4.484   5.866  19.428  0.00  0.00    +0.000 C 
BRANCH   9  11
ATOM     11  C   UNL     1       2.283   4.674  19.086  0.00  0.00    +0.000 A 
ATOM     12  C   UNL     1       2.514   3.820  17.995  0.00  0.00    +0.000 A 
ATOM     13  C   UNL     1       1.862   2.588  17.901  0.00  0.00    +0.000 A 
ATOM     14  C   UNL     1       0.972   2.190  18.894  0.00  0.00    +0.000 A 
ATOM     15  C   UNL     1       0.738   3.021  19.987  0.00  0.00    +0.000 A 
ATOM     16  C   UNL     1       1.390   4.252  20.085  0.00  0.00    +0.000 A 
ENDBRANCH   9  11
ENDBRANCH   7   9
ENDBRANCH   2   5
BRANCH   1  19
ATOM     17  C   UNL     1      -1.690  11.867  22.958  0.00  0.00    +0.000 C 
ATOM     18  C   UNL     1      -0.892  11.256  21.821  0.00  0.00    +0.000 C 
ATOM     19  N   UNL     1      -0.700   9.973  21.920  0.00  0.00    +0.000 NA
BRANCH  18  20
ATOM     20  C   UNL     1      -0.464  12.129  20.645  0.00  0.00    +0.000 C 
BRANCH  20  21
ATOM     21  C   UNL     1      -1.616  12.703  19.816  0.00  0.00    +0.000 C 
BRANCH  21  22
ATOM     22  C   UNL     1      -2.162  11.696  18.834  0.00  0.00    +0.000 A 
ATOM     23  C   UNL     1      -1.288  10.874  18.106  0.00  0.00    +0.000 A 
ATOM     24  C   UNL     1      -1.785   9.965  17.171  0.00  0.00    +0.000 A 
ATOM     25  C   UNL     1      -3.158   9.870  16.954  0.00  0.00    +0.000 A 
ATOM     26  C   UNL     1      -4.035  10.673  17.680  0.00  0.00    +0.000 A 
ATOM     27  C   UNL     1      -3.541  11.583  18.617  0.00  0.00    +0.000 A 
ENDBRANCH  21  22
ENDBRANCH  20  21
ENDBRANCH  18  20
ENDBRANCH   1  19
TORSDOF 7
ENDMDL
