MODEL 1
REMARK VINA RESULT:      -7.5      0.000      0.000
REMARK  Name = 
REMARK  7 active torsions:
REMARK  status: ('A' for Active; 'I' for Inactive)
REMARK    1  A    between atoms: C_1  and  C_2
REMARK    2  A    between atoms: C_2  and  O_3
REMARK    3  A    between atoms: O_3  and  C_4
REMARK    4  A    between atoms: C_4  and  C_6
REMARK    5  A    between atoms: N_9  and  C_10
REMARK    6  A    between atoms: C_10  and  C_11
REMARK    7  A    between atoms: C_14  and  C_15
REMARK                            x       y       z     vdW  Elec       q    Type
REMARK                         _______ _______ _______ _____ _____    ______ ____
ROOT
ATOM      1  C   UNL     1       3.452   7.005  17.521  0.00  0.00    +0.000 C 
ENDROOT
BRANCH   1   5
ATOM      2  C   UNL     1       7.074   4.765  16.915  0.00  0.00    +0.000 C 
ATOM      3  C   UNL     1       5.832   4.067  17.467  0.00  0.00    +0.000 C 
ATOM      4  C   UNL     1       4.572   4.907  17.254  0.00  0.00    +0.000 C 
ATOM      5  N   UNL     1       4.701   6.260  17.824  0.00  0.00    +0.000 NA
ATOM      6  C   UNL     1       5.882   6.962  17.289  0.00  0.00    +0.000 C 
ATOM      7  C   UNL     1       7.177   6.173  17.485  0.00  0.00    +0.000 C 
BRANCH   2   8
ATOM      8  C   UNL     1       7.070   4.758  15.399  0.00  0.00    +0.000 C 
ATOM      9  O   UNL     1       7.566   5.637  14.698  0.00  0.00    +0.000 OA
BRANCH   8  10
ATOM     10  O   UNL     1       6.300   3.740  14.926  0.00  0.00    +0.000 OA
BRANCH  10  12
ATOM     11  C   UNL     1       6.120   3.374  12.585  0.00  0.00    +0.000 C 
ATOM     12  C   UNL     1       5.515   4.090  13.779  0.00  0.00    +0.000 C 
ENDBRANCH  10  12
ENDBRANCH   8  10
ENDBRANCH   2   8
ENDBRANCH   1   5
BRANCH   1  13
ATOM     13  C   UNL     1       2.619   7.214  18.738  0.00  0.00    +0.000 A 
ATOM     14  C   UNL     1       2.366   6.359  19.785  0.00  0.00    +0.000 A 
ATOM     15  O   UNL     1       1.636   7.032  20.712  0.00  0.00    +0.000 OA
ATOM     16  C   UNL     1       1.462   8.281  20.172  0.00  0.00    +0.000 A 
ATOM     17  N   UNL     1       2.010   8.430  18.983  0.00  0.00    +0.000 NA
BRANCH  16  18
ATOM     18  C   UNL     1       0.731   9.248  20.984  0.00  0.00    +0.000 A 
ATOM     19  C   UNL     1       0.643  10.597  20.601  0.00  0.00    +0.000 A 
ATOM     20  C   UNL     1      -0.054  11.519  21.385  0.00  0.00    +0.000 A 
ATOM     21  C   UNL     1      -0.665  11.094  22.559  0.00  0.00    +0.000 A 
ATOM     22  F   UNL     1      -1.325  11.980  23.313  0.00  0.00    +0.000 F 
ATOM     23  C   UNL     1      -0.599   9.766  22.959  0.00  0.00    +0.000 A 
ATOM     24  C   UNL     1       0.094   8.843  22.169  0.00  0.00    +0.000 A 
ENDBRANCH  16  18
ENDBRANCH   1  13
TORSDOF 6
ENDMDL
MODEL 2
REMARK VINA RESULT:      -7.3      4.831      7.137
REMARK  Name = 
REMARK  7 active torsions:
REMARK  status: ('A' for Active; 'I' for Inactive)
REMARK    1  A    between atoms: C_1  and  C_2
REMARK    2  A    between atoms: C_2  and  O_3
REMARK    3  A    between atoms: O_3  and  C_4
REMARK    4  A    between atoms: C_4  and  C_6
REMARK    5  A    between atoms: N_9  and  C_10
REMARK    6  A    between atoms: C_10  and  C_11
REMARK    7  A    between atoms: C_14  and  C_15
REMARK                            x       y       z     vdW  Elec       q    Type
REMARK                         _______ _______ _______ _____ _____    ______ ____
ROOT
ATOM      1  C   UNL     1       6.702   5.781  16.170  0.00  0.00    +0.000 C 
ENDROOT
BRANCH   1   5
ATOM      2  C   UNL     1       3.238   4.314  18.256  0.00  0.00    +0.000 C 
ATOM      3  C   UNL     1       3.715   3.611  16.985  0.00  0.00    +0.000 C 
ATOM      4  C   UNL     1       5.140   4.024  16.614  0.00  0.00    +0.000 C 
ATOM      5  N   UNL     1       5.280   5.485  16.480  0.00  0.00    +0.000 NA
ATOM      6  C   UNL     1       4.846   6.184  17.703  0.00  0.00    +0.000 C 
ATOM      7  C   UNL     1       3.420   5.819  18.117  0.00  0.00    +0.000 C 
BRANCH   2   8
ATOM      8  C   UNL     1       3.944   3.760  19.477  0.00  0.00    +0.000 C 
ATOM      9  O   UNL     1       5.117   3.395  19.498  0.00  0.00    +0.000 OA
BRANCH   8  10
ATOM     10  O   UNL     1       3.060   3.566  20.495  0.00  0.00    +0.000 OA
BRANCH  10  12
ATOM     11  C   UNL     1       0.708   3.263  20.352  0.00  0.00    +0.000 C 
ATOM     12  C   UNL     1       2.057   2.581  20.214  0.00  0.00    +0.000 C 
ENDBRANCH  10  12
ENDBRANCH   8  10
ENDBRANCH   2   8
ENDBRANCH   1   5
BRANCH   1  13
ATOM     13  C   UNL     1       7.327   6.655  17.203  0.00  0.00    +0.000 A 
ATOM     14  C   UNL     1       7.899   6.318  18.407  0.00  0.00    +0.000 A 
ATOM     15  O   UNL     1       8.428   7.444  18.953  0.00  0.00    +0.000 OA
ATOM     16  C   UNL     1       8.137   8.433  18.048  0.00  0.00    +0.000 A 
ATOM     17  N   UNL     1       7.458   8.015  16.998  0.00  0.00    +0.000 NA
BRANCH  16  18
ATOM     18  C   UNL     1       8.627   9.771  18.362  0.00  0.00    +0.000 A 
ATOM     19  C   UNL     1       9.437  10.002  19.488  0.00  0.00    +0.000 A 
ATOM     20  C   UNL     1       9.899  11.285  19.786  0.00  0.00    +0.000 A 
ATOM     21  C   UNL     1       9.549  12.347  18.959  0.00  0.00    +0.000 A 
ATOM     22  F   UNL     1       9.986  13.577  19.251  0.00  0.00    +0.000 F 
ATOM     23  C   UNL     1       8.755  12.147  17.837  0.00  0.00    +0.000 A 
ATOM     24  C   UNL     1       8.299  10.860  17.536  0.00  0.00    +0.000 A 
ENDBRANCH  16  18
ENDBRANCH   1  13
TORSDOF 6
ENDMDL
MODEL 3
REMARK VINA RESULT:      -7.3      4.881      7.084
REMARK  Name = 
REMARK  7 active torsions:
REMARK  status: ('A' for Active; 'I' for Inactive)
REMARK    1  A    between atoms: C_1  and  C_2
REMARK    2  A    between atoms: C_2  and  O_3
REMARK    3  A    between atoms: O_3  and  C_4
REMARK    4  A    between atoms: C_4  and  C_6
REMARK    5  A    between atoms: N_9  and  C_10
REMARK    6  A    between atoms: C_10  and  C_11
REMARK    7  A    between atoms: C_14  and  C_15
REMARK                            x       y       z     vdW  Elec       q    Type
REMARK                         _______ _______ _______ _____ _____    ______ ____
ROOT
ATOM      1  C   UNL     1       6.526   5.862  16.128  0.00  0.00    +0.000 C 
ENDROOT
BRANCH   1   5
ATOM      2  C   UNL     1       3.327   4.099  18.400  0.00  0.00    +0.000 C 
ATOM      3  C   UNL     1       3.685   3.533  17.026  0.00  0.00    +0.000 C 
ATOM      4  C   UNL     1       5.056   4.023  16.555  0.00  0.00    +0.000 C 
ATOM      5  N   UNL     1       5.150   5.494  16.549  0.00  0.00    +0.000 NA
ATOM      6  C   UNL     1       4.828   6.062  17.871  0.00  0.00    +0.000 C 
ATOM      7  C   UNL     1       3.461   5.615  18.390  0.00  0.00    +0.000 C 
BRANCH   2   8
ATOM      8  C   UNL     1       4.166   3.455  19.486  0.00  0.00    +0.000 C 
ATOM      9  O   UNL     1       5.392   3.378  19.463  0.00  0.00    +0.000 OA
BRANCH   8  10
ATOM     10  O   UNL     1       3.372   2.832  20.400  0.00  0.00    +0.000 OA
BRANCH  10  12
ATOM     11  C   UNL     1       1.093   2.988  21.054  0.00  0.00    +0.000 C 
ATOM     12  C   UNL     1       2.038   2.583  19.937  0.00  0.00    +0.000 C 
ENDBRANCH  10  12
ENDBRANCH   8  10
ENDBRANCH   2   8
ENDBRANCH   1   5
BRANCH   1  13
ATOM     13  C   UNL     1       7.216   6.698  17.150  0.00  0.00    +0.000 A 
ATOM     14  C   UNL     1       7.861   6.318  18.303  0.00  0.00    +0.000 A 
ATOM     15  O   UNL     1       8.426   7.425  18.854  0.00  0.00    +0.000 OA
ATOM     16  C   UNL     1       8.080   8.446  18.006  0.00  0.00    +0.000 A 
ATOM     17  N   UNL     1       7.337   8.065  16.986  0.00  0.00    +0.000 NA
BRANCH  16  18
ATOM     18  C   UNL     1       8.592   9.772  18.336  0.00  0.00    +0.000 A 
ATOM     19  C   UNL     1       8.305  10.883  17.525  0.00  0.00    +0.000 A 
ATOM     20  C   UNL     1       8.801  12.148  17.844  0.00  0.00    +0.000 A 
ATOM     21  C   UNL     1       9.593  12.307  18.976  0.00  0.00    +0.000 A 
ATOM     22  F   UNL     1      10.075  13.519  19.275  0.00  0.00    +0.000 F 
ATOM     23  C   UNL     1       9.888  11.228  19.798  0.00  0.00    +0.000 A 
ATOM     24  C   UNL     1       9.383   9.962  19.481  0.00  0.00    +0.000 A 
ENDBRANCH  16  18
ENDBRANCH   1  13
TORSDOF 6
ENDMDL
MODEL 4
REMARK VINA RESULT:      -7.2      1.231      1.481
REMARK  Name = 
REMARK  7 active torsions:
REMARK  status: ('A' for Active; 'I' for Inactive)
REMARK    1  A    between atoms: C_1  and  C_2
REMARK    2  A    between atoms: C_2  and  O_3
REMARK    3  A    between atoms: O_3  and  C_4
REMARK    4  A    between atoms: C_4  and  C_6
REMARK    5  A    between atoms: N_9  and  C_10
REMARK    6  A    between atoms: C_10  and  C_11
REMARK    7  A    between atoms: C_14  and  C_15
REMARK                            x       y       z     vdW  Elec       q    Type
REMARK                         _______ _______ _______ _____ _____    ______ ____
ROOT
ATOM      1  C   UNL     1       3.048   6.011  18.307  0.00  0.00    +0.000 C 
ENDROOT
BRANCH   1   5
ATOM      2  C   UNL     1       7.167   5.469  17.190  0.00  0.00    +0.000 C 
ATOM      3  C   UNL     1       6.581   4.665  18.350  0.00  0.00    +0.000 C 
ATOM      4  C   UNL     1       5.052   4.705  18.349  0.00  0.00    +0.000 C 
ATOM      5  N   UNL     1       4.531   6.084  18.360  0.00  0.00    +0.000 NA
ATOM      6  C   UNL     1       5.066   6.873  17.235  0.00  0.00    +0.000 C 
ATOM      7  C   UNL     1       6.594   6.879  17.193  0.00  0.00    +0.000 C 
BRANCH   2   8
ATOM      8  C   UNL     1       6.938   4.759  15.871  0.00  0.00    +0.000 C 
ATOM      9  O   UNL     1       6.439   3.641  15.759  0.00  0.00    +0.000 OA
BRANCH   8  10
ATOM     10  O   UNL     1       7.511   5.450  14.847  0.00  0.00    +0.000 OA
BRANCH  10  12
ATOM     11  C   UNL     1       8.153   5.616  12.565  0.00  0.00    +0.000 C 
ATOM     12  C   UNL     1       7.261   4.886  13.553  0.00  0.00    +0.000 C 
ENDBRANCH  10  12
ENDBRANCH   8  10
ENDBRANCH   2   8
ENDBRANCH   1   5
BRANCH   1  13
ATOM     13  C   UNL     1       2.414   7.317  18.643  0.00  0.00    +0.000 A 
ATOM     14  C   UNL     1       2.160   8.401  17.836  0.00  0.00    +0.000 A 
ATOM     15  O   UNL     1       1.471   9.317  18.567  0.00  0.00    +0.000 OA
ATOM     16  C   UNL     1       1.349   8.745  19.808  0.00  0.00    +0.000 A 
ATOM     17  N   UNL     1       1.919   7.561  19.909  0.00  0.00    +0.000 NA
BRANCH  16  18
ATOM     18  C   UNL     1       0.605   9.505  20.807  0.00  0.00    +0.000 A 
ATOM     19  C   UNL     1       0.085  10.777  20.512  0.00  0.00    +0.000 A 
ATOM     20  C   UNL     1      -0.622  11.501  21.475  0.00  0.00    +0.000 A 
ATOM     21  C   UNL     1      -0.808  10.956  22.740  0.00  0.00    +0.000 A 
ATOM     22  F   UNL     1      -1.478  11.655  23.664  0.00  0.00    +0.000 F 
ATOM     23  C   UNL     1      -0.310   9.699  23.057  0.00  0.00    +0.000 A 
ATOM     24  C   UNL     1       0.392   8.972  22.090  0.00  0.00    +0.000 A 
ENDBRANCH  16  18
ENDBRANCH   1  13
TORSDOF 6
ENDMDL
MODEL 5
REMARK VINA RESULT:      -7.1      1.977      3.341
REMARK  Name = 
REMARK  7 active torsions:
REMARK  status: ('A' for Active; 'I' for Inactive)
REMARK    1  A    between atoms: C_1  and  C_2
REMARK    2  A    between atoms: C_2  and  O_3
REMARK    3  A    between atoms: O_3  and  C_4
REMARK    4  A    between atoms: C_4  and  C_6
REMARK    5  A    between atoms: N_9  and  C_10
REMARK    6  A    between atoms: C_10  and  C_11
REMARK    7  A    between atoms: C_14  and  C_15
REMARK                            x       y       z     vdW  Elec       q    Type
REMARK                         _______ _______ _______ _____ _____    ______ ____
ROOT
ATOM      1  C   UNL     1       3.217   5.116  17.837  0.00  0.00    +0.000 C 
ENDROOT
BRANCH   1   5
ATOM      2  C   UNL     1       7.480   5.614  18.127  0.00  0.00    +0.000 C 
ATOM      3  C   UNL     1       6.892   4.696  17.055  0.00  0.00    +0.000 C 
ATOM      4  C   UNL     1       5.395   4.941  16.863  0.00  0.00    +0.000 C 
ATOM      5  N   UNL     1       4.642   4.811  18.123  0.00  0.00    +0.000 NA
ATOM      6  C   UNL     1       5.178   5.704  19.167  0.00  0.00    +0.000 C 
ATOM      7  C   UNL     1       6.673   5.495  19.412  0.00  0.00    +0.000 C 
BRANCH   2   8
ATOM      8  C   UNL     1       7.562   7.043  17.629  0.00  0.00    +0.000 C 
ATOM      9  O   UNL     1       7.115   7.432  16.553  0.00  0.00    +0.000 OA
BRANCH   8  10
ATOM     10  O   UNL     1       8.340   7.795  18.456  0.00  0.00    +0.000 OA
BRANCH  10  12
ATOM     11  C   UNL     1       9.234   9.883  19.155  0.00  0.00    +0.000 C 
ATOM     12  C   UNL     1       8.342   9.193  18.138  0.00  0.00    +0.000 C 
ENDBRANCH  10  12
ENDBRANCH   8  10
ENDBRANCH   2   8
ENDBRANCH   1   5
BRANCH   1  13
ATOM     13  C   UNL     1       2.846   6.495  18.262  0.00  0.00    +0.000 A 
ATOM     14  C   UNL     1       2.993   7.687  17.594  0.00  0.00    +0.000 A 
ATOM     15  O   UNL     1       2.411   8.663  18.339  0.00  0.00    +0.000 OA
ATOM     16  C   UNL     1       1.942   8.012  19.452  0.00  0.00    +0.000 A 
ATOM     17  N   UNL     1       2.200   6.719  19.463  0.00  0.00    +0.000 NA
BRANCH  16  18
ATOM     18  C   UNL     1       1.223   8.822  20.429  0.00  0.00    +0.000 A 
ATOM     19  C   UNL     1       1.098   8.406  21.766  0.00  0.00    +0.000 A 
ATOM     20  C   UNL     1       0.405   9.183  22.695  0.00  0.00    +0.000 A 
ATOM     21  C   UNL     1      -0.170  10.383  22.290  0.00  0.00    +0.000 A 
ATOM     22  F   UNL     1      -0.842  11.122  23.180  0.00  0.00    +0.000 F 
ATOM     23  C   UNL     1      -0.057  10.821  20.977  0.00  0.00    +0.000 A 
ATOM     24  C   UNL     1       0.643  10.044  20.049  0.00  0.00    +0.000 A 
ENDBRANCH  16  18
ENDBRANCH   1  13
TORSDOF 6
ENDMDL
MODEL 6
REMARK VINA RESULT:      -7.1      0.540      1.140
REMARK  Name = 
REMARK  7 active torsions:
REMARK  status: ('A' for Active; 'I' for Inactive)
REMARK    1  A    between atoms: C_1  and  C_2
REMARK    2  A    between atoms: C_2  and  O_3
REMARK    3  A    between atoms: O_3  and  C_4
REMARK    4  A    between atoms: C_4  and  C_6
REMARK    5  A    between atoms: N_9  and  C_10
REMARK    6  A    between atoms: C_10  and  C_11
REMARK    7  A    between atoms: C_14  and  C_15
REMARK                            x       y       z     vdW  Elec       q    Type
REMARK                         _______ _______ _______ _____ _____    ______ ____
ROOT
ATOM      1  C   UNL     1       3.352   7.197  17.533  0.00  0.00    +0.000 C 
ENDROOT
BRANCH   1   5
ATOM      2  C   UNL     1       6.447   4.382  16.533  0.00  0.00    +0.000 C 
ATOM      3  C   UNL     1       5.068   3.877  16.955  0.00  0.00    +0.000 C 
ATOM      4  C   UNL     1       4.019   4.989  16.896  0.00  0.00    +0.000 C 
ATOM      5  N   UNL     1       4.407   6.164  17.697  0.00  0.00    +0.000 NA
ATOM      6  C   UNL     1       5.726   6.682  17.293  0.00  0.00    +0.000 C 
ATOM      7  C   UNL     1       6.821   5.615  17.344  0.00  0.00    +0.000 C 
BRANCH   2   8
ATOM      8  C   UNL     1       6.496   4.639  15.040  0.00  0.00    +0.000 C 
ATOM      9  O   UNL     1       6.658   5.745  14.530  0.00  0.00    +0.000 OA
BRANCH   8  10
ATOM     10  O   UNL     1       6.170   3.513  14.348  0.00  0.00    +0.000 OA
BRANCH  10  12
ATOM     11  C   UNL     1       5.086   3.473  12.233  0.00  0.00    +0.000 C 
ATOM     12  C   UNL     1       6.423   3.603  12.940  0.00  0.00    +0.000 C 
ENDBRANCH  10  12
ENDBRANCH   8  10
ENDBRANCH   2   8
ENDBRANCH   1   5
BRANCH   1  13
ATOM     13  C   UNL     1       2.569   7.397  18.784  0.00  0.00    +0.000 A 
ATOM     14  C   UNL     1       2.423   6.565  19.869  0.00  0.00    +0.000 A 
ATOM     15  O   UNL     1       1.699   7.225  20.812  0.00  0.00    +0.000 OA
ATOM     16  C   UNL     1       1.420   8.441  20.242  0.00  0.00    +0.000 A 
ATOM     17  N   UNL     1       1.898   8.581  19.021  0.00  0.00    +0.000 NA
BRANCH  16  18
ATOM     18  C   UNL     1       0.671   9.389  21.059  0.00  0.00    +0.000 A 
ATOM     19  C   UNL     1       0.141   9.013  22.305  0.00  0.00    +0.000 A 
ATOM     20  C   UNL     1      -0.580   9.924  23.080  0.00  0.00    +0.000 A 
ATOM     21  C   UNL     1      -0.777  11.217  22.608  0.00  0.00    +0.000 A 
ATOM     22  F   UNL     1      -1.475  12.086  23.349  0.00  0.00    +0.000 F 
ATOM     23  C   UNL     1      -0.259  11.618  21.384  0.00  0.00    +0.000 A 
ATOM     24  C   UNL     1       0.469  10.706  20.612  0.00  0.00    +0.000 A 
ENDBRANCH  16  18
ENDBRANCH   1  13
TORSDOF 6
ENDMDL
MODEL 7
REMARK VINA RESULT:      -7.1      5.114      7.126
REMARK  Name = 
REMARK  7 active torsions:
REMARK  status: ('A' for Active; 'I' for Inactive)
REMARK    1  A    between atoms: C_1  and  C_2
REMARK    2  A    between atoms: C_2  and  O_3
REMARK    3  A    between atoms: O_3  and  C_4
REMARK    4  A    between atoms: C_4  and  C_6
REMARK    5  A    between atoms: N_9  and  C_10
REMARK    6  A    between atoms: C_10  and  C_11
REMARK    7  A    between atoms: C_14  and  C_15
REMARK                            x       y       z     vdW  Elec       q    Type
REMARK                         _______ _______ _______ _____ _____    ______ ____
ROOT
ATOM      1  C   UNL     1       6.677   5.870  16.471  0.00  0.00    +0.000 C 
ENDROOT
BRANCH   1   5
ATOM      2  C   UNL     1       3.543   3.515  18.243  0.00  0.00    +0.000 C 
ATOM      3  C   UNL     1       4.550   4.237  19.137  0.00  0.00    +0.000 C 
ATOM      4  C   UNL     1       5.328   5.304  18.364  0.00  0.00    +0.000 C 
ATOM      5  N   UNL     1       5.998   4.751  17.173  0.00  0.00    +0.000 NA
ATOM      6  C   UNL     1       5.041   4.067  16.284  0.00  0.00    +0.000 C 
ATOM      7  C   UNL     1       4.241   2.979  17.001  0.00  0.00    +0.000 C 
BRANCH   2   8
ATOM      8  C   UNL     1       2.377   4.421  17.901  0.00  0.00    +0.000 C 
ATOM      9  O   UNL     1       2.428   5.648  17.895  0.00  0.00    +0.000 OA
BRANCH   8  10
ATOM     10  O   UNL     1       1.231   3.698  17.766  0.00  0.00    +0.000 OA
BRANCH  10  12
ATOM     11  C   UNL     1       0.770   3.437  20.083  0.00  0.00    +0.000 C 
ATOM     12  C   UNL     1       1.049   2.703  18.783  0.00  0.00    +0.000 C 
ENDBRANCH  10  12
ENDBRANCH   8  10
ENDBRANCH   2   8
ENDBRANCH   1   5
BRANCH   1  13
ATOM     13  C   UNL     1       7.382   6.777  17.421  0.00  0.00    +0.000 A 
ATOM     14  C   UNL     1       8.098   6.473  18.555  0.00  0.00    +0.000 A 
ATOM     15  O   UNL     1       8.643   7.624  19.030  0.00  0.00    +0.000 OA
ATOM     16  C   UNL     1       8.215   8.592  18.157  0.00  0.00    +0.000 A 
ATOM     17  N   UNL     1       7.439   8.138  17.193  0.00  0.00    +0.000 NA
BRANCH  16  18
ATOM     18  C   UNL     1       8.688   9.950  18.405  0.00  0.00    +0.000 A 
ATOM     19  C   UNL     1       8.307  11.015  17.570  0.00  0.00    +0.000 A 
ATOM     20  C   UNL     1       8.767  12.311  17.810  0.00  0.00    +0.000 A 
ATOM     21  C   UNL     1       9.615  12.548  18.887  0.00  0.00    +0.000 A 
ATOM     22  F   UNL     1      10.061  13.789  19.109  0.00  0.00    +0.000 F 
ATOM     23  C   UNL     1      10.002  11.516  19.731  0.00  0.00    +0.000 A 
ATOM     24  C   UNL     1       9.535  10.219  19.494  0.00  0.00    +0.000 A 
ENDBRANCH  16  18
ENDBRANCH   1  13
TORSDOF 6
ENDMDL
MODEL 8
REMARK VINA RESULT:      -7.1      5.200      7.506
REMARK  Name = 
REMARK  7 active torsions:
REMARK  status: ('A' for Active; 'I' for Inactive)
REMARK    1  A    between atoms: C_1  and  C_2
REMARK    2  A    between atoms: C_2  and  O_3
REMARK    3  A    between atoms: O_3  and  C_4
REMARK    4  A    between atoms: C_4  and  C_6
REMARK    5  A    between atoms: N_9  and  C_10
REMARK    6  A    between atoms: C_10  and  C_11
REMARK    7  A    between atoms: C_14  and  C_15
REMARK                            x       y       z     vdW  Elec       q    Type
REMARK                         _______ _______ _______ _____ _____    ______ ____
ROOT
ATOM      1  C   UNL     1       7.417   5.917  18.299  0.00  0.00    +0.000 C 
ENDROOT
BRANCH   1   5
ATOM      2  C   UNL     1       3.630   3.893  18.029  0.00  0.00    +0.000 C 
ATOM      3  C   UNL     1       4.640   3.773  16.888  0.00  0.00    +0.000 C 
ATOM      4  C   UNL     1       6.035   4.226  17.320  0.00  0.00    +0.000 C 
ATOM      5  N   UNL     1       6.033   5.595  17.866  0.00  0.00    +0.000 NA
ATOM      6  C   UNL     1       5.080   5.730  18.983  0.00  0.00    +0.000 C 
ATOM      7  C   UNL     1       3.662   5.302  18.605  0.00  0.00    +0.000 C 
BRANCH   2   8
ATOM      8  C   UNL     1       3.878   2.835  19.084  0.00  0.00    +0.000 C 
ATOM      9  O   UNL     1       4.892   2.765  19.775  0.00  0.00    +0.000 OA
BRANCH   8  10
ATOM     10  O   UNL     1       2.906   1.882  19.047  0.00  0.00    +0.000 OA
BRANCH  10  12
ATOM     11  C   UNL     1       1.005   2.880  20.066  0.00  0.00    +0.000 C 
ATOM     12  C   UNL     1       1.600   2.396  18.755  0.00  0.00    +0.000 C 
ENDBRANCH  10  12
ENDBRANCH   8  10
ENDBRANCH   2   8
ENDBRANCH   1   5
BRANCH   1  13
ATOM     13  C   UNL     1       7.740   7.358  18.105  0.00  0.00    +0.000 A 
ATOM     14  C   UNL     1       7.161   8.281  17.267  0.00  0.00    +0.000 A 
ATOM     15  O   UNL     1       7.725   9.492  17.520  0.00  0.00    +0.000 OA
ATOM     16  C   UNL     1       8.646   9.243  18.505  0.00  0.00    +0.000 A 
ATOM     17  N   UNL     1       8.710   7.978  18.870  0.00  0.00    +0.000 NA
BRANCH  16  18
ATOM     18  C   UNL     1       9.391  10.392  19.009  0.00  0.00    +0.000 A 
ATOM     19  C   UNL     1       9.389  10.714  20.377  0.00  0.00    +0.000 A 
ATOM     20  C   UNL     1      10.100  11.818  20.852  0.00  0.00    +0.000 A 
ATOM     21  C   UNL     1      10.814  12.608  19.958  0.00  0.00    +0.000 A 
ATOM     22  F   UNL     1      11.487  13.670  20.415  0.00  0.00    +0.000 F 
ATOM     23  C   UNL     1      10.838  12.309  18.603  0.00  0.00    +0.000 A 
ATOM     24  C   UNL     1      10.132  11.199  18.129  0.00  0.00    +0.000 A 
ENDBRANCH  16  18
ENDBRANCH   1  13
TORSDOF 6
ENDMDL
MODEL 9
REMARK VINA RESULT:      -6.9      5.256      7.418
REMARK  Name = 
REMARK  7 active torsions:
REMARK  status: ('A' for Active; 'I' for Inactive)
REMARK    1  A    between atoms: C_1  and  C_2
REMARK    2  A    between atoms: C_2  and  O_3
REMARK    3  A    between atoms: O_3  and  C_4
REMARK    4  A    between atoms: C_4  and  C_6
REMARK    5  A    between atoms: N_9  and  C_10
REMARK    6  A    between atoms: C_10  and  C_11
REMARK    7  A    between atoms: C_14  and  C_15
REMARK                            x       y       z     vdW  Elec       q    Type
REMARK                         _______ _______ _______ _____ _____    ______ ____
ROOT
ATOM      1  C   UNL     1       7.593   6.102  18.481  0.00  0.00    +0.000 C 
ENDROOT
BRANCH   1   5
ATOM      2  C   UNL     1       3.918   3.950  17.874  0.00  0.00    +0.000 C 
ATOM      3  C   UNL     1       5.030   3.868  16.828  0.00  0.00    +0.000 C 
ATOM      4  C   UNL     1       6.364   4.368  17.383  0.00  0.00    +0.000 C 
ATOM      5  N   UNL     1       6.265   5.735  17.926  0.00  0.00    +0.000 NA
ATOM      6  C   UNL     1       5.213   5.834  18.953  0.00  0.00    +0.000 C 
ATOM      7  C   UNL     1       3.849   5.358  18.450  0.00  0.00    +0.000 C 
BRANCH   2   8
ATOM      8  C   UNL     1       4.107   2.898  18.948  0.00  0.00    +0.000 C 
ATOM      9  O   UNL     1       5.076   2.840  19.702  0.00  0.00    +0.000 OA
BRANCH   8  10
ATOM     10  O   UNL     1       3.148   1.937  18.852  0.00  0.00    +0.000 OA
BRANCH  10  12
ATOM     11  C   UNL     1       0.889   2.550  19.267  0.00  0.00    +0.000 C 
ATOM     12  C   UNL     1       1.951   2.374  18.196  0.00  0.00    +0.000 C 
ENDBRANCH  10  12
ENDBRANCH   8  10
ENDBRANCH   2   8
ENDBRANCH   1   5
BRANCH   1  13
ATOM     13  C   UNL     1       7.912   7.540  18.256  0.00  0.00    +0.000 A 
ATOM     14  C   UNL     1       7.369   8.428  17.357  0.00  0.00    +0.000 A 
ATOM     15  O   UNL     1       7.906   9.653  17.598  0.00  0.00    +0.000 OA
ATOM     16  C   UNL     1       8.775   9.448  18.639  0.00  0.00    +0.000 A 
ATOM     17  N   UNL     1       8.831   8.197  19.051  0.00  0.00    +0.000 NA
BRANCH  16  18
ATOM     18  C   UNL     1       9.479  10.623  19.144  0.00  0.00    +0.000 A 
ATOM     19  C   UNL     1      10.231  11.442  18.285  0.00  0.00    +0.000 A 
ATOM     20  C   UNL     1      10.907  12.561  18.774  0.00  0.00    +0.000 A 
ATOM     21  C   UNL     1      10.835  12.865  20.129  0.00  0.00    +0.000 A 
ATOM     22  F   UNL     1      11.490  13.933  20.598  0.00  0.00    +0.000 F 
ATOM     23  C   UNL     1      10.094  12.077  21.000  0.00  0.00    +0.000 A 
ATOM     24  C   UNL     1       9.412  10.960  20.506  0.00  0.00    +0.000 A 
ENDBRANCH  16  18
ENDBRANCH   1  13
TORSDOF 6
ENDMDL
