MODEL 1
REMARK VINA RESULT:      -7.9      0.000      0.000
REMARK  Name = 
REMARK  11 active torsions:
REMARK  status: ('A' for Active; 'I' for Inactive)
REMARK    1  A    between atoms: C_1  and  C_2
REMARK    2  A    between atoms: C_2  and  O_3
REMARK    3  A    between atoms: O_3  and  C_4
REMARK    4  A    between atoms: N_14  and  C_15
REMARK    5  A    between atoms: C_15  and  C_16
REMARK    6  A    between atoms: C_16  and  C_17
REMARK    7  A    between atoms: C_17  and  C_18
REMARK    8  A    between atoms: C_18  and  N_19
REMARK    9  A    between atoms: N_22  and  C_23
REMARK   10  A    between atoms: C_28  and  O_29
REMARK   11  A    between atoms: O_29  and  C_30
REMARK                            x       y       z     vdW  Elec       q    Type
REMARK                         _______ _______ _______ _____ _____    ______ ____
ROOT
ATOM      1  C   UNL     1       7.660   7.025  17.621  0.00  0.00    +0.000 C 
ENDROOT
BRANCH   1  12
ATOM      2  C   UNL     1       4.051   4.029  19.283  0.00  0.00    +0.000 C 
ATOM      3  C   UNL     1       3.083   3.112  18.461  0.00  0.00    +0.000 C 
ATOM      4  C   UNL     1       2.501   3.838  17.244  0.00  0.00    +0.000 C 
ATOM      5  C   UNL     1       3.318   5.106  16.989  0.00  0.00    +0.000 C 
ATOM      6  C   UNL     1       3.039   5.995  18.190  0.00  0.00    +0.000 C 
ATOM      7  O   UNL     1       2.609   7.139  18.080  0.00  0.00    +0.000 OA
ATOM      8  C   UNL     1       3.319   5.362  19.546  0.00  0.00    +0.000 C 
ATOM      9  C   UNL     1       4.804   4.739  16.984  0.00  0.00    +0.000 C 
ATOM     10  C   UNL     1       5.696   5.894  16.631  0.00  0.00    +0.000 C 
ATOM     11  O   UNL     1       5.686   6.459  15.550  0.00  0.00    +0.000 OA
ATOM     12  N   UNL     1       6.518   6.136  17.688  0.00  0.00    +0.000 N 
ATOM     13  C   UNL     1       6.275   5.337  18.766  0.00  0.00    +0.000 C 
ATOM     14  O   UNL     1       6.848   5.447  19.838  0.00  0.00    +0.000 OA
ATOM     15  C   UNL     1       5.280   4.261  18.374  0.00  0.00    +0.000 C 
BRANCH   2  16
ATOM     16  O   UNL     1       4.292   3.235  20.443  0.00  0.00    +0.000 OA
BRANCH  16  18
ATOM     17  C   UNL     1       2.406   2.796  21.812  0.00  0.00    +0.000 C 
ATOM     18  C   UNL     1       3.374   2.213  20.800  0.00  0.00    +0.000 C 
ENDBRANCH  16  18
ENDBRANCH   2  16
ENDBRANCH   1  12
BRANCH   1  19
ATOM     19  C   UNL     1       7.383   8.454  18.067  0.00  0.00    +0.000 C 
BRANCH  19  20
ATOM     20  C   UNL     1       8.643   9.319  17.874  0.00  0.00    +0.000 C 
BRANCH  20  21
ATOM     21  C   UNL     1       8.976  10.227  19.087  0.00  0.00    +0.000 C 
BRANCH  21  22
ATOM     22  N   UNL     1      10.170  11.045  18.844  0.00  0.00    +0.000 NA
ATOM     23  C   UNL     1      10.033  11.901  17.658  0.00  0.00    +0.000 C 
ATOM     24  C   UNL     1       9.062  13.057  17.906  0.00  0.00    +0.000 C 
ATOM     25  N   UNL     1       9.672  14.011  18.857  0.00  0.00    +0.000 N 
ATOM     26  C   UNL     1      10.062  13.367  20.129  0.00  0.00    +0.000 C 
ATOM     27  C   UNL     1      10.604  11.895  19.984  0.00  0.00    +0.000 C 
BRANCH  25  28
ATOM     28  C   UNL     1      10.185  15.176  18.276  0.00  0.00    +0.000 A 
ATOM     29  C   UNL     1      11.602  15.261  18.212  0.00  0.00    +0.000 A 
ATOM     30  C   UNL     1      12.299  16.423  17.893  0.00  0.00    +0.000 A 
ATOM     31  C   UNL     1      11.593  17.550  17.539  0.00  0.00    +0.000 A 
ATOM     32  C   UNL     1      10.207  17.473  17.442  0.00  0.00    +0.000 A 
ATOM     33  C   UNL     1       9.488  16.296  17.768  0.00  0.00    +0.000 A 
BRANCH  33  34
ATOM     34  O   UNL     1       8.115  16.265  17.641  0.00  0.00    +0.000 OA
ATOM     35  C   UNL     1       7.393  16.805  18.755  0.00  0.00    +0.000 C 
ENDBRANCH  33  34
ENDBRANCH  25  28
ENDBRANCH  21  22
ENDBRANCH  20  21
ENDBRANCH  19  20
ENDBRANCH   1  19
TORSDOF 9
ENDMDL
MODEL 2
REMARK VINA RESULT:      -7.8      2.077     11.653
REMARK  Name = 
REMARK  11 active torsions:
REMARK  status: ('A' for Active; 'I' for Inactive)
REMARK    1  A    between atoms: C_1  and  C_2
REMARK    2  A    between atoms: C_2  and  O_3
REMARK    3  A    between atoms: O_3  and  C_4
REMARK    4  A    between atoms: N_14  and  C_15
REMARK    5  A    between atoms: C_15  and  C_16
REMARK    6  A    between atoms: C_16  and  C_17
REMARK    7  A    between atoms: C_17  and  C_18
REMARK    8  A    between atoms: C_18  and  N_19
REMARK    9  A    between atoms: N_22  and  C_23
REMARK   10  A    between atoms: C_28  and  O_29
REMARK   11  A    between atoms: O_29  and  C_30
REMARK                            x       y       z     vdW  Elec       q    Type
REMARK                         _______ _______ _______ _____ _____    ______ ____
ROOT
ATOM      1  C   UNL     1       8.915  11.054  18.016  0.00  0.00    +0.000 C 
ENDROOT
BRANCH   1  12
ATOM      2  C   UNL     1      11.066  15.348  19.320  0.00  0.00    +0.000 C 
ATOM      3  C   UNL     1      11.629  15.776  20.718  0.00  0.00    +0.000 C 
ATOM      4  C   UNL     1      10.667  15.424  21.856  0.00  0.00    +0.000 C 
ATOM      5  C   UNL     1       9.623  14.437  21.332  0.00  0.00    +0.000 C 
ATOM      6  C   UNL     1       8.814  15.229  20.319  0.00  0.00    +0.000 C 
ATOM      7  O   UNL     1       7.593  15.340  20.389  0.00  0.00    +0.000 OA
ATOM      8  C   UNL     1       9.625  15.889  19.213  0.00  0.00    +0.000 C 
ATOM      9  C   UNL     1      10.346  13.301  20.603  0.00  0.00    +0.000 C 
ATOM     10  C   UNL     1       9.420  12.212  20.142  0.00  0.00    +0.000 C 
ATOM     11  O   UNL     1       8.768  11.506  20.894  0.00  0.00    +0.000 OA
ATOM     12  N   UNL     1       9.494  12.137  18.785  0.00  0.00    +0.000 N 
ATOM     13  C   UNL     1      10.307  13.078  18.227  0.00  0.00    +0.000 C 
ATOM     14  O   UNL     1      10.449  13.229  17.024  0.00  0.00    +0.000 OA
ATOM     15  C   UNL     1      11.059  13.802  19.328  0.00  0.00    +0.000 C 
BRANCH   2  16
ATOM     16  O   UNL     1      12.003  15.949  18.430  0.00  0.00    +0.000 OA
BRANCH  16  18
ATOM     17  C   UNL     1      11.969  18.201  17.686  0.00  0.00    +0.000 C 
ATOM     18  C   UNL     1      11.540  16.779  17.376  0.00  0.00    +0.000 C 
ENDBRANCH  16  18
ENDBRANCH   2  16
ENDBRANCH   1  12
BRANCH   1  19
ATOM     19  C   UNL     1       8.941   9.697  18.704  0.00  0.00    +0.000 C 
BRANCH  19  20
ATOM     20  C   UNL     1       8.031   8.707  17.953  0.00  0.00    +0.000 C 
BRANCH  20  21
ATOM     21  C   UNL     1       8.143   7.243  18.454  0.00  0.00    +0.000 C 
BRANCH  21  22
ATOM     22  N   UNL     1       7.416   6.312  17.582  0.00  0.00    +0.000 NA
ATOM     23  C   UNL     1       7.058   5.063  18.268  0.00  0.00    +0.000 C 
ATOM     24  C   UNL     1       5.936   5.281  19.285  0.00  0.00    +0.000 C 
ATOM     25  N   UNL     1       4.675   5.565  18.567  0.00  0.00    +0.000 N 
ATOM     26  C   UNL     1       4.794   6.723  17.657  0.00  0.00    +0.000 C 
ATOM     27  C   UNL     1       6.191   6.861  16.944  0.00  0.00    +0.000 C 
BRANCH  25  28
ATOM     28  C   UNL     1       3.779   4.492  18.502  0.00  0.00    +0.000 A 
ATOM     29  C   UNL     1       4.332   3.251  18.085  0.00  0.00    +0.000 A 
ATOM     30  C   UNL     1       3.574   2.139  17.731  0.00  0.00    +0.000 A 
ATOM     31  C   UNL     1       2.205   2.196  17.861  0.00  0.00    +0.000 A 
ATOM     32  C   UNL     1       1.627   3.338  18.407  0.00  0.00    +0.000 A 
ATOM     33  C   UNL     1       2.391   4.477  18.767  0.00  0.00    +0.000 A 
BRANCH  33  34
ATOM     34  O   UNL     1       1.773   5.579  19.319  0.00  0.00    +0.000 OA
ATOM     35  C   UNL     1       1.808   5.638  20.750  0.00  0.00    +0.000 C 
ENDBRANCH  33  34
ENDBRANCH  25  28
ENDBRANCH  21  22
ENDBRANCH  20  21
ENDBRANCH  19  20
ENDBRANCH   1  19
TORSDOF 9
ENDMDL
MODEL 3
REMARK VINA RESULT:      -7.8      1.301      1.581
REMARK  Name = 
REMARK  11 active torsions:
REMARK  status: ('A' for Active; 'I' for Inactive)
REMARK    1  A    between atoms: C_1  and  C_2
REMARK    2  A    between atoms: C_2  and  O_3
REMARK    3  A    between atoms: O_3  and  C_4
REMARK    4  A    between atoms: N_14  and  C_15
REMARK    5  A    between atoms: C_15  and  C_16
REMARK    6  A    between atoms: C_16  and  C_17
REMARK    7  A    between atoms: C_17  and  C_18
REMARK    8  A    between atoms: C_18  and  N_19
REMARK    9  A    between atoms: N_22  and  C_23
REMARK   10  A    between atoms: C_28  and  O_29
REMARK   11  A    between atoms: O_29  and  C_30
REMARK                            x       y       z     vdW  Elec       q    Type
REMARK                         _______ _______ _______ _____ _____    ______ ____
ROOT
ATOM      1  C   UNL     1       7.501   6.530  17.947  0.00  0.00    +0.000 C 
ENDROOT
BRANCH   1  12
ATOM      2  C   UNL     1       3.322   4.301  19.476  0.00  0.00    +0.000 C 
ATOM      3  C   UNL     1       2.140   3.740  18.616  0.00  0.00    +0.000 C 
ATOM      4  C   UNL     1       1.718   4.718  17.516  0.00  0.00    +0.000 C 
ATOM      5  C   UNL     1       2.808   5.778  17.352  0.00  0.00    +0.000 C 
ATOM      6  C   UNL     1       2.785   6.563  18.653  0.00  0.00    +0.000 C 
ATOM      7  O   UNL     1       2.640   7.781  18.687  0.00  0.00    +0.000 OA
ATOM      8  C   UNL     1       2.941   5.730  19.917  0.00  0.00    +0.000 C 
ATOM      9  C   UNL     1       4.162   5.073  17.228  0.00  0.00    +0.000 C 
ATOM     10  C   UNL     1       5.296   6.017  16.951  0.00  0.00    +0.000 C 
ATOM     11  O   UNL     1       5.393   6.689  15.937  0.00  0.00    +0.000 OA
ATOM     12  N   UNL     1       6.181   5.934  17.982  0.00  0.00    +0.000 N 
ATOM     13  C   UNL     1       5.781   5.097  18.981  0.00  0.00    +0.000 C 
ATOM     14  O   UNL     1       6.393   4.944  20.026  0.00  0.00    +0.000 OA
ATOM     15  C   UNL     1       4.546   4.339  18.532  0.00  0.00    +0.000 C 
BRANCH   2  16
ATOM     16  O   UNL     1       3.397   3.345  20.531  0.00  0.00    +0.000 OA
BRANCH  16  18
ATOM     17  C   UNL     1       1.510   2.421  21.632  0.00  0.00    +0.000 C 
ATOM     18  C   UNL     1       2.577   3.498  21.680  0.00  0.00    +0.000 C 
ENDBRANCH  16  18
ENDBRANCH   2  16
ENDBRANCH   1  12
BRANCH   1  19
ATOM     19  C   UNL     1       7.519   8.024  17.656  0.00  0.00    +0.000 C 
BRANCH  19  20
ATOM     20  C   UNL     1       8.615   8.710  18.493  0.00  0.00    +0.000 C 
BRANCH  20  21
ATOM     21  C   UNL     1       8.789  10.221  18.186  0.00  0.00    +0.000 C 
BRANCH  21  22
ATOM     22  N   UNL     1       9.774  10.848  19.076  0.00  0.00    +0.000 NA
ATOM     23  C   UNL     1      10.540  11.908  18.409  0.00  0.00    +0.000 C 
ATOM     24  C   UNL     1       9.686  13.154  18.169  0.00  0.00    +0.000 C 
ATOM     25  N   UNL     1       9.398  13.806  19.465  0.00  0.00    +0.000 N 
ATOM     26  C   UNL     1       8.740  12.891  20.421  0.00  0.00    +0.000 C 
ATOM     27  C   UNL     1       9.228  11.395  20.346  0.00  0.00    +0.000 C 
BRANCH  25  28
ATOM     28  C   UNL     1      10.162  14.947  19.734  0.00  0.00    +0.000 A 
ATOM     29  C   UNL     1      10.754  15.003  21.026  0.00  0.00    +0.000 A 
ATOM     30  C   UNL     1      11.343  16.143  21.564  0.00  0.00    +0.000 A 
ATOM     31  C   UNL     1      11.440  17.275  20.787  0.00  0.00    +0.000 A 
ATOM     32  C   UNL     1      11.009  17.223  19.465  0.00  0.00    +0.000 A 
ATOM     33  C   UNL     1      10.405  16.068  18.909  0.00  0.00    +0.000 A 
BRANCH  33  34
ATOM     34  O   UNL     1      10.009  16.061  17.588  0.00  0.00    +0.000 OA
ATOM     35  C   UNL     1      11.074  16.182  16.637  0.00  0.00    +0.000 C 
ENDBRANCH  33  34
ENDBRANCH  25  28
ENDBRANCH  21  22
ENDBRANCH  20  21
ENDBRANCH  19  20
ENDBRANCH   1  19
TORSDOF 9
ENDMDL
MODEL 4
REMARK VINA RESULT:      -7.7      2.028     11.642
REMARK  Name = 
REMARK  11 active torsions:
REMARK  status: ('A' for Active; 'I' for Inactive)
REMARK    1  A    between atoms: C_1  and  C_2
REMARK    2  A    between atoms: C_2  and  O_3
REMARK    3  A    between atoms: O_3  and  C_4
REMARK    4  A    between atoms: N_14  and  C_15
REMARK    5  A    between atoms: C_15  and  C_16
REMARK    6  A    between atoms: C_16  and  C_17
REMARK    7  A    between atoms: C_17  and  C_18
REMARK    8  A    between atoms: C_18  and  N_19
REMARK    9  A    between atoms: N_22  and  C_23
REMARK   10  A    between atoms: C_28  and  O_29
REMARK   11  A    between atoms: O_29  and  C_30
REMARK                            x       y       z     vdW  Elec       q    Type
REMARK                         _______ _______ _______ _____ _____    ______ ____
ROOT
ATOM      1  C   UNL     1       9.263  10.757  18.119  0.00  0.00    +0.000 C 
ENDROOT
BRANCH   1  12
ATOM      2  C   UNL     1      10.438  15.280  19.830  0.00  0.00    +0.000 C 
ATOM      3  C   UNL     1      10.900  15.694  21.268  0.00  0.00    +0.000 C 
ATOM      4  C   UNL     1      10.040  15.042  22.355  0.00  0.00    +0.000 C 
ATOM      5  C   UNL     1       9.233  13.903  21.730  0.00  0.00    +0.000 C 
ATOM      6  C   UNL     1       8.268  14.589  20.777  0.00  0.00    +0.000 C 
ATOM      7  O   UNL     1       7.053  14.427  20.837  0.00  0.00    +0.000 OA
ATOM      8  C   UNL     1       8.913  15.505  19.747  0.00  0.00    +0.000 C 
ATOM      9  C   UNL     1      10.182  13.019  20.916  0.00  0.00    +0.000 C 
ATOM     10  C   UNL     1       9.513  11.802  20.346  0.00  0.00    +0.000 C 
ATOM     11  O   UNL     1       9.032  10.908  21.023  0.00  0.00    +0.000 OA
ATOM     12  N   UNL     1       9.597  11.866  18.990  0.00  0.00    +0.000 N 
ATOM     13  C   UNL     1      10.185  13.006  18.529  0.00  0.00    +0.000 C 
ATOM     14  O   UNL     1      10.286  13.291  17.347  0.00  0.00    +0.000 OA
ATOM     15  C   UNL     1      10.766  13.774  19.702  0.00  0.00    +0.000 C 
BRANCH   2  16
ATOM     16  O   UNL     1      11.220  16.146  19.011  0.00  0.00    +0.000 OA
BRANCH  16  18
ATOM     17  C   UNL     1      10.740  16.611  16.735  0.00  0.00    +0.000 C 
ATOM     18  C   UNL     1      10.576  17.088  18.166  0.00  0.00    +0.000 C 
ENDBRANCH  16  18
ENDBRANCH   2  16
ENDBRANCH   1  12
BRANCH   1  19
ATOM     19  C   UNL     1       8.893   9.468  18.840  0.00  0.00    +0.000 C 
BRANCH  19  20
ATOM     20  C   UNL     1       8.114   8.538  17.891  0.00  0.00    +0.000 C 
BRANCH  20  21
ATOM     21  C   UNL     1       7.984   7.079  18.404  0.00  0.00    +0.000 C 
BRANCH  21  22
ATOM     22  N   UNL     1       7.169   6.256  17.504  0.00  0.00    +0.000 NA
ATOM     23  C   UNL     1       6.844   4.945  18.081  0.00  0.00    +0.000 C 
ATOM     24  C   UNL     1       5.815   5.065  19.208  0.00  0.00    +0.000 C 
ATOM     25  N   UNL     1       4.504   5.439  18.635  0.00  0.00    +0.000 N 
ATOM     26  C   UNL     1       4.571   6.687  17.846  0.00  0.00    +0.000 C 
ATOM     27  C   UNL     1       5.906   6.885  17.035  0.00  0.00    +0.000 C 
BRANCH  25  28
ATOM     28  C   UNL     1       3.585   4.389  18.532  0.00  0.00    +0.000 A 
ATOM     29  C   UNL     1       2.375   4.693  17.851  0.00  0.00    +0.000 A 
ATOM     30  C   UNL     1       1.252   3.870  17.852  0.00  0.00    +0.000 A 
ATOM     31  C   UNL     1       1.322   2.647  18.478  0.00  0.00    +0.000 A 
ATOM     32  C   UNL     1       2.532   2.241  19.031  0.00  0.00    +0.000 A 
ATOM     33  C   UNL     1       3.680   3.073  19.038  0.00  0.00    +0.000 A 
BRANCH  33  34
ATOM     34  O   UNL     1       4.861   2.619  19.585  0.00  0.00    +0.000 OA
ATOM     35  C   UNL     1       4.712   1.809  20.758  0.00  0.00    +0.000 C 
ENDBRANCH  33  34
ENDBRANCH  25  28
ENDBRANCH  21  22
ENDBRANCH  20  21
ENDBRANCH  19  20
ENDBRANCH   1  19
TORSDOF 9
ENDMDL
MODEL 5
REMARK VINA RESULT:      -7.6      2.234     11.398
REMARK  Name = 
REMARK  11 active torsions:
REMARK  status: ('A' for Active; 'I' for Inactive)
REMARK    1  A    between atoms: C_1  and  C_2
REMARK    2  A    between atoms: C_2  and  O_3
REMARK    3  A    between atoms: O_3  and  C_4
REMARK    4  A    between atoms: N_14  and  C_15
REMARK    5  A    between atoms: C_15  and  C_16
REMARK    6  A    between atoms: C_16  and  C_17
REMARK    7  A    between atoms: C_17  and  C_18
REMARK    8  A    between atoms: C_18  and  N_19
REMARK    9  A    between atoms: N_22  and  C_23
REMARK   10  A    between atoms: C_28  and  O_29
REMARK   11  A    between atoms: O_29  and  C_30
REMARK                            x       y       z     vdW  Elec       q    Type
REMARK                         _______ _______ _______ _____ _____    ______ ____
ROOT
ATOM      1  C   UNL     1       9.459  10.917  18.192  0.00  0.00    +0.000 C 
ENDROOT
BRANCH   1  12
ATOM      2  C   UNL     1       8.660  15.489  19.990  0.00  0.00    +0.000 C 
ATOM      3  C   UNL     1       9.558  16.332  20.957  0.00  0.00    +0.000 C 
ATOM      4  C   UNL     1      10.069  15.498  22.136  0.00  0.00    +0.000 C 
ATOM      5  C   UNL     1       9.857  14.016  21.822  0.00  0.00    +0.000 C 
ATOM      6  C   UNL     1       8.348  13.838  21.795  0.00  0.00    +0.000 C 
ATOM      7  O   UNL     1       7.769  13.011  22.493  0.00  0.00    +0.000 OA
ATOM      8  C   UNL     1       7.601  14.765  20.848  0.00  0.00    +0.000 C 
ATOM      9  C   UNL     1      10.412  13.728  20.424  0.00  0.00    +0.000 C 
ATOM     10  C   UNL     1      10.356  12.273  20.056  0.00  0.00    +0.000 C 
ATOM     11  O   UNL     1      10.975  11.398  20.637  0.00  0.00    +0.000 OA
ATOM     12  N   UNL     1       9.559  12.141  18.961  0.00  0.00    +0.000 N 
ATOM     13  C   UNL     1       8.995  13.312  18.548  0.00  0.00    +0.000 C 
ATOM     14  O   UNL     1       8.190  13.396  17.635  0.00  0.00    +0.000 OA
ATOM     15  C   UNL     1       9.607  14.461  19.328  0.00  0.00    +0.000 C 
BRANCH   2  16
ATOM     16  O   UNL     1       8.146  16.493  19.118  0.00  0.00    +0.000 OA
BRANCH  16  18
ATOM     17  C   UNL     1       9.150  18.462  18.260  0.00  0.00    +0.000 C 
ATOM     18  C   UNL     1       8.945  16.974  18.049  0.00  0.00    +0.000 C 
ENDBRANCH  16  18
ENDBRANCH   2  16
ENDBRANCH   1  12
BRANCH   1  19
ATOM     19  C   UNL     1       8.954   9.713  18.974  0.00  0.00    +0.000 C 
BRANCH  19  20
ATOM     20  C   UNL     1       8.260   8.720  18.022  0.00  0.00    +0.000 C 
BRANCH  20  21
ATOM     21  C   UNL     1       8.166   7.274  18.579  0.00  0.00    +0.000 C 
BRANCH  21  22
ATOM     22  N   UNL     1       7.508   6.367  17.631  0.00  0.00    +0.000 NA
ATOM     23  C   UNL     1       6.989   5.156  18.280  0.00  0.00    +0.000 C 
ATOM     24  C   UNL     1       5.757   5.459  19.135  0.00  0.00    +0.000 C 
ATOM     25  N   UNL     1       4.621   5.798  18.251  0.00  0.00    +0.000 N 
ATOM     26  C   UNL     1       4.928   6.928  17.348  0.00  0.00    +0.000 C 
ATOM     27  C   UNL     1       6.414   6.971  16.827  0.00  0.00    +0.000 C 
BRANCH  25  28
ATOM     28  C   UNL     1       3.680   4.776  18.081  0.00  0.00    +0.000 A 
ATOM     29  C   UNL     1       2.414   4.996  18.688  0.00  0.00    +0.000 A 
ATOM     30  C   UNL     1       1.440   4.013  18.835  0.00  0.00    +0.000 A 
ATOM     31  C   UNL     1       1.663   2.766  18.297  0.00  0.00    +0.000 A 
ATOM     32  C   UNL     1       2.824   2.547  17.563  0.00  0.00    +0.000 A 
ATOM     33  C   UNL     1       3.824   3.540  17.411  0.00  0.00    +0.000 A 
BRANCH  33  34
ATOM     34  O   UNL     1       4.951   3.279  16.660  0.00  0.00    +0.000 OA
ATOM     35  C   UNL     1       4.992   3.933  15.385  0.00  0.00    +0.000 C 
ENDBRANCH  33  34
ENDBRANCH  25  28
ENDBRANCH  21  22
ENDBRANCH  20  21
ENDBRANCH  19  20
ENDBRANCH   1  19
TORSDOF 9
ENDMDL
MODEL 6
REMARK VINA RESULT:      -7.6      2.132     11.324
REMARK  Name = 
REMARK  11 active torsions:
REMARK  status: ('A' for Active; 'I' for Inactive)
REMARK    1  A    between atoms: C_1  and  C_2
REMARK    2  A    between atoms: C_2  and  O_3
REMARK    3  A    between atoms: O_3  and  C_4
REMARK    4  A    between atoms: N_14  and  C_15
REMARK    5  A    between atoms: C_15  and  C_16
REMARK    6  A    between atoms: C_16  and  C_17
REMARK    7  A    between atoms: C_17  and  C_18
REMARK    8  A    between atoms: C_18  and  N_19
REMARK    9  A    between atoms: N_22  and  C_23
REMARK   10  A    between atoms: C_28  and  O_29
REMARK   11  A    between atoms: O_29  and  C_30
REMARK                            x       y       z     vdW  Elec       q    Type
REMARK                         _______ _______ _______ _____ _____    ______ ____
ROOT
ATOM      1  C   UNL     1       9.422  10.817  18.027  0.00  0.00    +0.000 C 
ENDROOT
BRANCH   1  12
ATOM      2  C   UNL     1       9.609  15.152  20.464  0.00  0.00    +0.000 C 
ATOM      3  C   UNL     1       8.540  16.296  20.511  0.00  0.00    +0.000 C 
ATOM      4  C   UNL     1       7.984  16.618  19.121  0.00  0.00    +0.000 C 
ATOM      5  C   UNL     1       8.361  15.485  18.164  0.00  0.00    +0.000 C 
ATOM      6  C   UNL     1       9.874  15.564  18.047  0.00  0.00    +0.000 C 
ATOM      7  O   UNL     1      10.448  15.671  16.967  0.00  0.00    +0.000 OA
ATOM      8  C   UNL     1      10.631  15.514  19.366  0.00  0.00    +0.000 C 
ATOM      9  C   UNL     1       7.987  14.150  18.814  0.00  0.00    +0.000 C 
ATOM     10  C   UNL     1       8.213  12.971  17.912  0.00  0.00    +0.000 C 
ATOM     11  O   UNL     1       7.616  12.790  16.863  0.00  0.00    +0.000 OA
ATOM     12  N   UNL     1       9.130  12.155  18.498  0.00  0.00    +0.000 N 
ATOM     13  C   UNL     1       9.627  12.642  19.671  0.00  0.00    +0.000 C 
ATOM     14  O   UNL     1      10.514  12.102  20.312  0.00  0.00    +0.000 OA
ATOM     15  C   UNL     1       8.834  13.871  20.075  0.00  0.00    +0.000 C 
BRANCH   2  16
ATOM     16  O   UNL     1      10.121  15.174  21.794  0.00  0.00    +0.000 OA
BRANCH  16  18
ATOM     17  C   UNL     1       9.137  15.630  23.904  0.00  0.00    +0.000 C 
ATOM     18  C   UNL     1       9.770  16.238  22.666  0.00  0.00    +0.000 C 
ENDBRANCH  16  18
ENDBRANCH   2  16
ENDBRANCH   1  12
BRANCH   1  19
ATOM     19  C   UNL     1       8.804   9.700  18.857  0.00  0.00    +0.000 C 
BRANCH  19  20
ATOM     20  C   UNL     1       8.120   8.674  17.933  0.00  0.00    +0.000 C 
BRANCH  20  21
ATOM     21  C   UNL     1       8.040   7.244  18.530  0.00  0.00    +0.000 C 
BRANCH  21  22
ATOM     22  N   UNL     1       7.324   6.322  17.640  0.00  0.00    +0.000 NA
ATOM     23  C   UNL     1       6.992   5.051  18.297  0.00  0.00    +0.000 C 
ATOM     24  C   UNL     1       5.873   5.224  19.325  0.00  0.00    +0.000 C 
ATOM     25  N   UNL     1       4.602   5.503  18.622  0.00  0.00    +0.000 N 
ATOM     26  C   UNL     1       4.696   6.685  17.740  0.00  0.00    +0.000 C 
ATOM     27  C   UNL     1       6.086   6.865  17.022  0.00  0.00    +0.000 C 
BRANCH  25  28
ATOM     28  C   UNL     1       3.725   4.417  18.536  0.00  0.00    +0.000 A 
ATOM     29  C   UNL     1       3.828   3.634  17.354  0.00  0.00    +0.000 A 
ATOM     30  C   UNL     1       2.898   2.669  16.976  0.00  0.00    +0.000 A 
ATOM     31  C   UNL     1       1.850   2.384  17.820  0.00  0.00    +0.000 A 
ATOM     32  C   UNL     1       1.790   3.019  19.057  0.00  0.00    +0.000 A 
ATOM     33  C   UNL     1       2.729   4.005  19.450  0.00  0.00    +0.000 A 
BRANCH  33  34
ATOM     34  O   UNL     1       2.636   4.594  20.693  0.00  0.00    +0.000 OA
ATOM     35  C   UNL     1       2.323   3.696  21.766  0.00  0.00    +0.000 C 
ENDBRANCH  33  34
ENDBRANCH  25  28
ENDBRANCH  21  22
ENDBRANCH  20  21
ENDBRANCH  19  20
ENDBRANCH   1  19
TORSDOF 9
ENDMDL
MODEL 7
REMARK VINA RESULT:      -7.6      2.009     11.516
REMARK  Name = 
REMARK  11 active torsions:
REMARK  status: ('A' for Active; 'I' for Inactive)
REMARK    1  A    between atoms: C_1  and  C_2
REMARK    2  A    between atoms: C_2  and  O_3
REMARK    3  A    between atoms: O_3  and  C_4
REMARK    4  A    between atoms: N_14  and  C_15
REMARK    5  A    between atoms: C_15  and  C_16
REMARK    6  A    between atoms: C_16  and  C_17
REMARK    7  A    between atoms: C_17  and  C_18
REMARK    8  A    between atoms: C_18  and  N_19
REMARK    9  A    between atoms: N_22  and  C_23
REMARK   10  A    between atoms: C_28  and  O_29
REMARK   11  A    between atoms: O_29  and  C_30
REMARK                            x       y       z     vdW  Elec       q    Type
REMARK                         _______ _______ _______ _____ _____    ______ ____
ROOT
ATOM      1  C   UNL     1       9.990  10.828  18.180  0.00  0.00    +0.000 C 
ENDROOT
BRANCH   1  12
ATOM      2  C   UNL     1       9.270  15.692  18.950  0.00  0.00    +0.000 C 
ATOM      3  C   UNL     1      10.331  16.802  19.260  0.00  0.00    +0.000 C 
ATOM      4  C   UNL     1      11.337  16.351  20.323  0.00  0.00    +0.000 C 
ATOM      5  C   UNL     1      11.232  14.835  20.491  0.00  0.00    +0.000 C 
ATOM      6  C   UNL     1       9.852  14.606  21.086  0.00  0.00    +0.000 C 
ATOM      7  O   UNL     1       9.678  13.991  22.134  0.00  0.00    +0.000 OA
ATOM      8  C   UNL     1       8.697  15.205  20.298  0.00  0.00    +0.000 C 
ATOM      9  C   UNL     1      11.284  14.183  19.107  0.00  0.00    +0.000 C 
ATOM     10  C   UNL     1      11.299  12.683  19.161  0.00  0.00    +0.000 C 
ATOM     11  O   UNL     1      12.198  12.027  19.661  0.00  0.00    +0.000 OA
ATOM     12  N   UNL     1      10.190  12.221  18.522  0.00  0.00    +0.000 N 
ATOM     13  C   UNL     1       9.362  13.210  18.079  0.00  0.00    +0.000 C 
ATOM     14  O   UNL     1       8.280  13.007  17.552  0.00  0.00    +0.000 OA
ATOM     15  C   UNL     1      10.049  14.551  18.255  0.00  0.00    +0.000 C 
BRANCH   2  16
ATOM     16  O   UNL     1       8.346  16.392  18.120  0.00  0.00    +0.000 OA
BRANCH  16  18
ATOM     17  C   UNL     1       6.228  17.085  18.931  0.00  0.00    +0.000 C 
ATOM     18  C   UNL     1       7.652  17.518  18.634  0.00  0.00    +0.000 C 
ENDBRANCH  16  18
ENDBRANCH   2  16
ENDBRANCH   1  12
BRANCH   1  19
ATOM     19  C   UNL     1       8.789  10.173  18.849  0.00  0.00    +0.000 C 
BRANCH  19  20
ATOM     20  C   UNL     1       8.185   9.105  17.917  0.00  0.00    +0.000 C 
BRANCH  20  21
ATOM     21  C   UNL     1       8.343   7.652  18.439  0.00  0.00    +0.000 C 
BRANCH  21  22
ATOM     22  N   UNL     1       7.712   6.679  17.539  0.00  0.00    +0.000 NA
ATOM     23  C   UNL     1       7.528   5.366  18.171  0.00  0.00    +0.000 C 
ATOM     24  C   UNL     1       6.417   5.397  19.222  0.00  0.00    +0.000 C 
ATOM     25  N   UNL     1       5.110   5.556  18.548  0.00  0.00    +0.000 N 
ATOM     26  C   UNL     1       5.062   6.760  17.692  0.00  0.00    +0.000 C 
ATOM     27  C   UNL     1       6.411   7.102  16.956  0.00  0.00    +0.000 C 
BRANCH  25  28
ATOM     28  C   UNL     1       4.351   4.385  18.450  0.00  0.00    +0.000 A 
ATOM     29  C   UNL     1       3.773   3.922  19.663  0.00  0.00    +0.000 A 
ATOM     30  C   UNL     1       3.192   2.667  19.819  0.00  0.00    +0.000 A 
ATOM     31  C   UNL     1       3.088   1.838  18.726  0.00  0.00    +0.000 A 
ATOM     32  C   UNL     1       3.505   2.306  17.484  0.00  0.00    +0.000 A 
ATOM     33  C   UNL     1       4.101   3.581  17.315  0.00  0.00    +0.000 A 
BRANCH  33  34
ATOM     34  O   UNL     1       4.483   4.006  16.060  0.00  0.00    +0.000 OA
ATOM     35  C   UNL     1       5.815   3.639  15.677  0.00  0.00    +0.000 C 
ENDBRANCH  33  34
ENDBRANCH  25  28
ENDBRANCH  21  22
ENDBRANCH  20  21
ENDBRANCH  19  20
ENDBRANCH   1  19
TORSDOF 9
ENDMDL
MODEL 8
REMARK VINA RESULT:      -7.6      5.490      9.885
REMARK  Name = 
REMARK  11 active torsions:
REMARK  status: ('A' for Active; 'I' for Inactive)
REMARK    1  A    between atoms: C_1  and  C_2
REMARK    2  A    between atoms: C_2  and  O_3
REMARK    3  A    between atoms: O_3  and  C_4
REMARK    4  A    between atoms: N_14  and  C_15
REMARK    5  A    between atoms: C_15  and  C_16
REMARK    6  A    between atoms: C_16  and  C_17
REMARK    7  A    between atoms: C_17  and  C_18
REMARK    8  A    between atoms: C_18  and  N_19
REMARK    9  A    between atoms: N_22  and  C_23
REMARK   10  A    between atoms: C_28  and  O_29
REMARK   11  A    between atoms: O_29  and  C_30
REMARK                            x       y       z     vdW  Elec       q    Type
REMARK                         _______ _______ _______ _____ _____    ______ ____
ROOT
ATOM      1  C   UNL     1       1.720   7.823  20.869  0.00  0.00    +0.000 C 
ENDROOT
BRANCH   1  12
ATOM      2  C   UNL     1      -1.138  11.896  20.769  0.00  0.00    +0.000 C 
ATOM      3  C   UNL     1      -1.678  12.684  19.527  0.00  0.00    +0.000 C 
ATOM      4  C   UNL     1      -0.589  12.907  18.473  0.00  0.00    +0.000 C 
ATOM      5  C   UNL     1       0.590  11.981  18.777  0.00  0.00    +0.000 C 
ATOM      6  C   UNL     1       1.157  12.494  20.091  0.00  0.00    +0.000 C 
ATOM      7  O   UNL     1       2.333  12.818  20.221  0.00  0.00    +0.000 OA
ATOM      8  C   UNL     1       0.158  12.592  21.235  0.00  0.00    +0.000 C 
ATOM      9  C   UNL     1       0.056  10.563  18.993  0.00  0.00    +0.000 C 
ATOM     10  C   UNL     1       1.144   9.546  19.191  0.00  0.00    +0.000 C 
ATOM     11  O   UNL     1       1.972   9.258  18.342  0.00  0.00    +0.000 OA
ATOM     12  N   UNL     1       0.994   8.996  20.427  0.00  0.00    +0.000 N 
ATOM     13  C   UNL     1      -0.025   9.542  21.150  0.00  0.00    +0.000 C 
ATOM     14  O   UNL     1      -0.276   9.244  22.307  0.00  0.00    +0.000 OA
ATOM     15  C   UNL     1      -0.827  10.470  20.257  0.00  0.00    +0.000 C 
BRANCH   2  16
ATOM     16  O   UNL     1      -2.234  11.993  21.675  0.00  0.00    +0.000 OA
BRANCH  16  18
ATOM     17  C   UNL     1      -3.337  12.377  23.740  0.00  0.00    +0.000 C 
ATOM     18  C   UNL     1      -1.992  12.283  23.043  0.00  0.00    +0.000 C 
ENDBRANCH  16  18
ENDBRANCH   2  16
ENDBRANCH   1  12
BRANCH   1  19
ATOM     19  C   UNL     1       1.020   6.499  20.597  0.00  0.00    +0.000 C 
BRANCH  19  20
ATOM     20  C   UNL     1       2.050   5.355  20.569  0.00  0.00    +0.000 C 
BRANCH  20  21
ATOM     21  C   UNL     1       1.459   3.985  20.143  0.00  0.00    +0.000 C 
BRANCH  21  22
ATOM     22  N   UNL     1       2.373   3.248  19.262  0.00  0.00    +0.000 NA
ATOM     23  C   UNL     1       2.408   3.799  17.901  0.00  0.00    +0.000 C 
ATOM     24  C   UNL     1       3.144   5.139  17.855  0.00  0.00    +0.000 C 
ATOM     25  N   UNL     1       4.587   4.912  18.091  0.00  0.00    +0.000 N 
ATOM     26  C   UNL     1       4.845   4.211  19.366  0.00  0.00    +0.000 C 
ATOM     27  C   UNL     1       3.770   3.126  19.752  0.00  0.00    +0.000 C 
BRANCH  25  28
ATOM     28  C   UNL     1       5.386   4.960  16.943  0.00  0.00    +0.000 A 
ATOM     29  C   UNL     1       4.808   4.410  15.766  0.00  0.00    +0.000 A 
ATOM     30  C   UNL     1       5.519   4.149  14.598  0.00  0.00    +0.000 A 
ATOM     31  C   UNL     1       6.846   4.510  14.529  0.00  0.00    +0.000 A 
ATOM     32  C   UNL     1       7.416   5.186  15.603  0.00  0.00    +0.000 A 
ATOM     33  C   UNL     1       6.702   5.454  16.797  0.00  0.00    +0.000 A 
BRANCH  33  34
ATOM     34  O   UNL     1       7.308   6.142  17.827  0.00  0.00    +0.000 OA
ATOM     35  C   UNL     1       7.596   7.518  17.548  0.00  0.00    +0.000 C 
ENDBRANCH  33  34
ENDBRANCH  25  28
ENDBRANCH  21  22
ENDBRANCH  20  21
ENDBRANCH  19  20
ENDBRANCH   1  19
TORSDOF 9
ENDMDL
MODEL 9
REMARK VINA RESULT:      -7.5      1.378      2.449
REMARK  Name = 
REMARK  11 active torsions:
REMARK  status: ('A' for Active; 'I' for Inactive)
REMARK    1  A    between atoms: C_1  and  C_2
REMARK    2  A    between atoms: C_2  and  O_3
REMARK    3  A    between atoms: O_3  and  C_4
REMARK    4  A    between atoms: N_14  and  C_15
REMARK    5  A    between atoms: C_15  and  C_16
REMARK    6  A    between atoms: C_16  and  C_17
REMARK    7  A    between atoms: C_17  and  C_18
REMARK    8  A    between atoms: C_18  and  N_19
REMARK    9  A    between atoms: N_22  and  C_23
REMARK   10  A    between atoms: C_28  and  O_29
REMARK   11  A    between atoms: O_29  and  C_30
REMARK                            x       y       z     vdW  Elec       q    Type
REMARK                         _______ _______ _______ _____ _____    ______ ____
ROOT
ATOM      1  C   UNL     1       7.332   7.038  17.237  0.00  0.00    +0.000 C 
ENDROOT
BRANCH   1  12
ATOM      2  C   UNL     1       2.992   5.260  18.901  0.00  0.00    +0.000 C 
ATOM      3  C   UNL     1       2.733   4.217  20.040  0.00  0.00    +0.000 C 
ATOM      4  C   UNL     1       3.671   3.010  19.937  0.00  0.00    +0.000 C 
ATOM      5  C   UNL     1       4.816   3.356  18.983  0.00  0.00    +0.000 C 
ATOM      6  C   UNL     1       4.156   3.501  17.622  0.00  0.00    +0.000 C 
ATOM      7  O   UNL     1       4.518   2.859  16.641  0.00  0.00    +0.000 OA
ATOM      8  C   UNL     1       3.004   4.493  17.561  0.00  0.00    +0.000 C 
ATOM      9  C   UNL     1       5.403   4.709  19.393  0.00  0.00    +0.000 C 
ATOM     10  C   UNL     1       6.610   5.097  18.589  0.00  0.00    +0.000 C 
ATOM     11  O   UNL     1       7.662   4.478  18.596  0.00  0.00    +0.000 OA
ATOM     12  N   UNL     1       6.329   6.251  17.926  0.00  0.00    +0.000 N 
ATOM     13  C   UNL     1       5.053   6.694  18.112  0.00  0.00    +0.000 C 
ATOM     14  O   UNL     1       4.579   7.665  17.546  0.00  0.00    +0.000 OA
ATOM     15  C   UNL     1       4.388   5.857  19.190  0.00  0.00    +0.000 C 
BRANCH   2  16
ATOM     16  O   UNL     1       1.898   6.158  19.071  0.00  0.00    +0.000 OA
BRANCH  16  18
ATOM     17  C   UNL     1       1.734   8.515  19.277  0.00  0.00    +0.000 C 
ATOM     18  C   UNL     1       1.995   7.214  20.014  0.00  0.00    +0.000 C 
ENDBRANCH  16  18
ENDBRANCH   2  16
ENDBRANCH   1  12
BRANCH   1  19
ATOM     19  C   UNL     1       8.299   7.779  18.150  0.00  0.00    +0.000 C 
BRANCH  19  20
ATOM     20  C   UNL     1       8.093   9.300  18.012  0.00  0.00    +0.000 C 
BRANCH  20  21
ATOM     21  C   UNL     1       8.963  10.144  18.982  0.00  0.00    +0.000 C 
BRANCH  21  22
ATOM     22  N   UNL     1       9.914  10.996  18.258  0.00  0.00    +0.000 NA
ATOM     23  C   UNL     1       9.251  12.093  17.540  0.00  0.00    +0.000 C 
ATOM     24  C   UNL     1       8.734  13.165  18.501  0.00  0.00    +0.000 C 
ATOM     25  N   UNL     1       9.883  13.885  19.093  0.00  0.00    +0.000 N 
ATOM     26  C   UNL     1      10.827  12.975  19.774  0.00  0.00    +0.000 C 
ATOM     27  C   UNL     1      11.008  11.572  19.082  0.00  0.00    +0.000 C 
BRANCH  25  28
ATOM     28  C   UNL     1      10.129  15.150  18.548  0.00  0.00    +0.000 A 
ATOM     29  C   UNL     1      11.200  15.223  17.616  0.00  0.00    +0.000 A 
ATOM     30  C   UNL     1      11.749  16.415  17.151  0.00  0.00    +0.000 A 
ATOM     31  C   UNL     1      11.184  17.607  17.543  0.00  0.00    +0.000 A 
ATOM     32  C   UNL     1      10.041  17.583  18.335  0.00  0.00    +0.000 A 
ATOM     33  C   UNL     1       9.477  16.375  18.816  0.00  0.00    +0.000 A 
BRANCH  33  34
ATOM     34  O   UNL     1       8.333  16.403  19.586  0.00  0.00    +0.000 OA
ATOM     35  C   UNL     1       7.134  16.738  18.875  0.00  0.00    +0.000 C 
ENDBRANCH  33  34
ENDBRANCH  25  28
ENDBRANCH  21  22
ENDBRANCH  20  21
ENDBRANCH  19  20
ENDBRANCH   1  19
TORSDOF 9
ENDMDL
