MODEL 1
REMARK VINA RESULT:      -8.5      0.000      0.000
REMARK  Name = 
REMARK  9 active torsions:
REMARK  status: ('A' for Active; 'I' for Inactive)
REMARK    1  A    between atoms: C_1  and  C_2
REMARK    2  A    between atoms: C_2  and  O_3
REMARK    3  A    between atoms: O_3  and  C_4
REMARK    4  A    between atoms: C_4  and  C_6
REMARK    5  A    between atoms: C_11  and  N_12
REMARK    6  A    between atoms: C_13  and  C_15
REMARK    7  A    between atoms: N_17  and  C_18
REMARK    8  A    between atoms: C_21  and  C_22
REMARK    9  A    between atoms: C_23  and  C_24
REMARK                            x       y       z     vdW  Elec       q    Type
REMARK                         _______ _______ _______ _____ _____    ______ ____
ROOT
ATOM      1  C   UNL     1       1.577   8.830  19.135  0.00  0.00    +0.000 A 
ATOM      2  C   UNL     1       1.745  10.107  18.724  0.00  0.00    +0.000 A 
ATOM      3  N   UNL     1       0.893  11.091  19.131  0.00  0.00    +0.000 N 
ATOM      4  C   UNL     1       1.252  11.368  20.450  0.00  0.00    +0.000 A 
ATOM      5  O   UNL     1       1.745  12.408  20.863  0.00  0.00    +0.000 OA
ATOM      6  C   UNL     1       1.120  10.124  21.301  0.00  0.00    +0.000 A 
ATOM      7  C   UNL     1       0.593  10.487  22.550  0.00  0.00    +0.000 A 
ATOM      8  C   UNL     1      -0.498   9.789  22.999  0.00  0.00    +0.000 A 
ATOM      9  C   UNL     1      -0.940   8.702  22.229  0.00  0.00    +0.000 A 
ATOM     10  C   UNL     1      -0.229   8.217  21.061  0.00  0.00    +0.000 A 
ATOM     11  C   UNL     1       0.909   8.882  20.556  0.00  0.00    +0.000 A 
ENDROOT
BRANCH   3  12
ATOM     12  C   UNL     1      -0.512  10.859  18.771  0.00  0.00    +0.000 A 
ATOM     13  C   UNL     1      -0.874  10.089  17.675  0.00  0.00    +0.000 A 
ATOM     14  C   UNL     1      -2.228   9.974  17.325  0.00  0.00    +0.000 A 
ATOM     15  C   UNL     1      -3.239  10.671  18.017  0.00  0.00    +0.000 A 
ATOM     16  C   UNL     1      -4.678  10.457  17.645  0.00  0.00    +0.000 C 
ATOM     17  C   UNL     1      -2.890  11.515  19.075  0.00  0.00    +0.000 A 
ATOM     18  C   UNL     1      -3.842  12.500  19.707  0.00  0.00    +0.000 C 
ATOM     19  C   UNL     1      -1.551  11.522  19.489  0.00  0.00    +0.000 A 
ENDBRANCH   3  12
BRANCH   1  21
ATOM     20  N   UNL     1       3.224   7.084  18.020  0.00  0.00    +0.000 N 
ATOM     21  C   UNL     1       2.482   8.184  18.090  0.00  0.00    +0.000 C 
ATOM     22  O   UNL     1       2.691   8.784  17.006  0.00  0.00    +0.000 OA
ATOM     23  H   UNL     1       3.852   7.234  17.219  0.00  0.00    +0.000 HD
BRANCH  20  29
ATOM     24  C   UNL     1       4.134   4.979  18.692  0.00  0.00    +0.000 A 
ATOM     25  C   UNL     1       3.899   3.701  19.206  0.00  0.00    +0.000 A 
ATOM     26  C   UNL     1       2.635   3.141  19.091  0.00  0.00    +0.000 A 
ATOM     27  C   UNL     1       1.606   3.814  18.438  0.00  0.00    +0.000 A 
ATOM     28  C   UNL     1       1.805   5.123  17.997  0.00  0.00    +0.000 A 
ATOM     29  C   UNL     1       3.032   5.731  18.234  0.00  0.00    +0.000 A 
BRANCH  24  30
ATOM     30  C   UNL     1       5.555   5.492  18.797  0.00  0.00    +0.000 C 
ATOM     31  O   UNL     1       6.262   5.199  19.713  0.00  0.00    +0.000 OA
BRANCH  30  32
ATOM     32  O   UNL     1       5.891   6.273  17.729  0.00  0.00    +0.000 OA
BRANCH  32  34
ATOM     33  C   UNL     1       7.691   7.834  17.613  0.00  0.00    +0.000 C 
ATOM     34  C   UNL     1       7.315   6.367  17.500  0.00  0.00    +0.000 C 
ENDBRANCH  32  34
ENDBRANCH  30  32
ENDBRANCH  24  30
ENDBRANCH  20  29
ENDBRANCH   1  21
TORSDOF 6
ENDMDL
MODEL 2
REMARK VINA RESULT:      -8.2      1.198      1.361
REMARK  Name = 
REMARK  9 active torsions:
REMARK  status: ('A' for Active; 'I' for Inactive)
REMARK    1  A    between atoms: C_1  and  C_2
REMARK    2  A    between atoms: C_2  and  O_3
REMARK    3  A    between atoms: O_3  and  C_4
REMARK    4  A    between atoms: C_4  and  C_6
REMARK    5  A    between atoms: C_11  and  N_12
REMARK    6  A    between atoms: C_13  and  C_15
REMARK    7  A    between atoms: N_17  and  C_18
REMARK    8  A    between atoms: C_21  and  C_22
REMARK    9  A    between atoms: C_23  and  C_24
REMARK                            x       y       z     vdW  Elec       q    Type
REMARK                         _______ _______ _______ _____ _____    ______ ____
ROOT
ATOM      1  C   UNL     1       1.255   9.323  19.234  0.00  0.00    +0.000 A 
ATOM      2  C   UNL     1       1.328  10.395  18.414  0.00  0.00    +0.000 A 
ATOM      3  N   UNL     1       0.453  11.433  18.538  0.00  0.00    +0.000 N 
ATOM      4  C   UNL     1       0.880  12.143  19.660  0.00  0.00    +0.000 A 
ATOM      5  O   UNL     1       1.343  13.276  19.667  0.00  0.00    +0.000 OA
ATOM      6  C   UNL     1       0.869  11.250  20.881  0.00  0.00    +0.000 A 
ATOM      7  C   UNL     1       0.404  11.993  21.977  0.00  0.00    +0.000 A 
ATOM      8  C   UNL     1      -0.618  11.453  22.715  0.00  0.00    +0.000 A 
ATOM      9  C   UNL     1      -1.049  10.160  22.384  0.00  0.00    +0.000 A 
ATOM     10  C   UNL     1      -0.389   9.334  21.389  0.00  0.00    +0.000 A 
ATOM     11  C   UNL     1       0.677   9.826  20.606  0.00  0.00    +0.000 A 
ENDROOT
BRANCH   3  12
ATOM     12  C   UNL     1      -0.958  11.054  18.385  0.00  0.00    +0.000 A 
ATOM     13  C   UNL     1      -1.368  10.098  17.467  0.00  0.00    +0.000 A 
ATOM     14  C   UNL     1      -2.737   9.839  17.301  0.00  0.00    +0.000 A 
ATOM     15  C   UNL     1      -3.724  10.568  17.995  0.00  0.00    +0.000 A 
ATOM     16  C   UNL     1      -5.171  10.202  17.831  0.00  0.00    +0.000 C 
ATOM     17  C   UNL     1      -3.337  11.589  18.867  0.00  0.00    +0.000 A 
ATOM     18  C   UNL     1      -4.296  12.595  19.452  0.00  0.00    +0.000 C 
ATOM     19  C   UNL     1      -1.967  11.751  19.114  0.00  0.00    +0.000 A 
ENDBRANCH   3  12
BRANCH   1  21
ATOM     20  N   UNL     1       2.865   7.314  18.624  0.00  0.00    +0.000 N 
ATOM     21  C   UNL     1       2.125   8.392  18.394  0.00  0.00    +0.000 C 
ATOM     22  O   UNL     1       2.296   8.649  17.176  0.00  0.00    +0.000 OA
ATOM     23  H   UNL     1       3.466   7.219  17.794  0.00  0.00    +0.000 HD
BRANCH  20  29
ATOM     24  C   UNL     1       3.399   4.987  18.708  0.00  0.00    +0.000 A 
ATOM     25  C   UNL     1       3.478   3.820  19.473  0.00  0.00    +0.000 A 
ATOM     26  C   UNL     1       2.714   3.707  20.626  0.00  0.00    +0.000 A 
ATOM     27  C   UNL     1       1.842   4.721  21.013  0.00  0.00    +0.000 A 
ATOM     28  C   UNL     1       1.819   5.923  20.305  0.00  0.00    +0.000 A 
ATOM     29  C   UNL     1       2.683   6.084  19.229  0.00  0.00    +0.000 A 
BRANCH  24  30
ATOM     30  C   UNL     1       4.212   5.004  17.430  0.00  0.00    +0.000 C 
ATOM     31  O   UNL     1       4.075   4.169  16.588  0.00  0.00    +0.000 OA
BRANCH  30  32
ATOM     32  O   UNL     1       5.055   6.076  17.382  0.00  0.00    +0.000 OA
BRANCH  32  34
ATOM     33  C   UNL     1       7.272   6.938  17.568  0.00  0.00    +0.000 C 
ATOM     34  C   UNL     1       6.323   5.850  18.039  0.00  0.00    +0.000 C 
ENDBRANCH  32  34
ENDBRANCH  30  32
ENDBRANCH  24  30
ENDBRANCH  20  29
ENDBRANCH   1  21
TORSDOF 6
ENDMDL
MODEL 3
REMARK VINA RESULT:      -8.1      1.301      1.560
REMARK  Name = 
REMARK  9 active torsions:
REMARK  status: ('A' for Active; 'I' for Inactive)
REMARK    1  A    between atoms: C_1  and  C_2
REMARK    2  A    between atoms: C_2  and  O_3
REMARK    3  A    between atoms: O_3  and  C_4
REMARK    4  A    between atoms: C_4  and  C_6
REMARK    5  A    between atoms: C_11  and  N_12
REMARK    6  A    between atoms: C_13  and  C_15
REMARK    7  A    between atoms: N_17  and  C_18
REMARK    8  A    between atoms: C_21  and  C_22
REMARK    9  A    between atoms: C_23  and  C_24
REMARK                            x       y       z     vdW  Elec       q    Type
REMARK                         _______ _______ _______ _____ _____    ______ ____
ROOT
ATOM      1  C   UNL     1       1.513   8.916  19.143  0.00  0.00    +0.000 A 
ATOM      2  C   UNL     1       1.672  10.195  18.735  0.00  0.00    +0.000 A 
ATOM      3  N   UNL     1       0.824  11.175  19.155  0.00  0.00    +0.000 N 
ATOM      4  C   UNL     1       1.197  11.449  20.471  0.00  0.00    +0.000 A 
ATOM      5  O   UNL     1       1.694  12.488  20.881  0.00  0.00    +0.000 OA
ATOM      6  C   UNL     1       1.080  10.202  21.319  0.00  0.00    +0.000 A 
ATOM      7  C   UNL     1       0.567  10.560  22.576  0.00  0.00    +0.000 A 
ATOM      8  C   UNL     1      -0.517   9.858  23.036  0.00  0.00    +0.000 A 
ATOM      9  C   UNL     1      -0.966   8.772  22.268  0.00  0.00    +0.000 A 
ATOM     10  C   UNL     1      -0.268   8.293  21.089  0.00  0.00    +0.000 A 
ATOM     11  C   UNL     1       0.862   8.962  20.573  0.00  0.00    +0.000 A 
ENDROOT
BRANCH   3  12
ATOM     12  C   UNL     1      -0.586  10.941  18.812  0.00  0.00    +0.000 A 
ATOM     13  C   UNL     1      -0.959  10.172  17.720  0.00  0.00    +0.000 A 
ATOM     14  C   UNL     1      -2.317  10.055  17.386  0.00  0.00    +0.000 A 
ATOM     15  C   UNL     1      -3.321  10.749  18.091  0.00  0.00    +0.000 A 
ATOM     16  C   UNL     1      -4.764  10.533  17.735  0.00  0.00    +0.000 C 
ATOM     17  C   UNL     1      -2.961  11.592  19.146  0.00  0.00    +0.000 A 
ATOM     18  C   UNL     1      -3.907  12.574  19.790  0.00  0.00    +0.000 C 
ATOM     19  C   UNL     1      -1.617  11.601  19.543  0.00  0.00    +0.000 A 
ENDBRANCH   3  12
BRANCH   1  21
ATOM     20  N   UNL     1       3.168   7.189  18.011  0.00  0.00    +0.000 N 
ATOM     21  C   UNL     1       2.406   8.275  18.085  0.00  0.00    +0.000 C 
ATOM     22  O   UNL     1       2.578   8.867  16.990  0.00  0.00    +0.000 OA
ATOM     23  H   UNL     1       3.775   7.343  17.194  0.00  0.00    +0.000 HD
BRANCH  20  29
ATOM     24  C   UNL     1       3.857   4.949  17.551  0.00  0.00    +0.000 A 
ATOM     25  C   UNL     1       3.934   3.624  17.987  0.00  0.00    +0.000 A 
ATOM     26  C   UNL     1       3.056   3.175  18.963  0.00  0.00    +0.000 A 
ATOM     27  C   UNL     1       2.073   4.011  19.488  0.00  0.00    +0.000 A 
ATOM     28  C   UNL     1       2.043   5.357  19.121  0.00  0.00    +0.000 A 
ATOM     29  C   UNL     1       3.009   5.836  18.245  0.00  0.00    +0.000 A 
BRANCH  24  30
ATOM     30  C   UNL     1       4.805   5.342  16.436  0.00  0.00    +0.000 C 
ATOM     31  O   UNL     1       5.033   6.485  16.180  0.00  0.00    +0.000 OA
BRANCH  30  32
ATOM     32  O   UNL     1       5.346   4.248  15.824  0.00  0.00    +0.000 OA
BRANCH  32  34
ATOM     33  C   UNL     1       6.188   3.875  13.624  0.00  0.00    +0.000 C 
ATOM     34  C   UNL     1       6.456   4.558  14.953  0.00  0.00    +0.000 C 
ENDBRANCH  32  34
ENDBRANCH  30  32
ENDBRANCH  24  30
ENDBRANCH  20  29
ENDBRANCH   1  21
TORSDOF 6
ENDMDL
MODEL 4
REMARK VINA RESULT:      -7.9      1.590      1.868
REMARK  Name = 
REMARK  9 active torsions:
REMARK  status: ('A' for Active; 'I' for Inactive)
REMARK    1  A    between atoms: C_1  and  C_2
REMARK    2  A    between atoms: C_2  and  O_3
REMARK    3  A    between atoms: O_3  and  C_4
REMARK    4  A    between atoms: C_4  and  C_6
REMARK    5  A    between atoms: C_11  and  N_12
REMARK    6  A    between atoms: C_13  and  C_15
REMARK    7  A    between atoms: N_17  and  C_18
REMARK    8  A    between atoms: C_21  and  C_22
REMARK    9  A    between atoms: C_23  and  C_24
REMARK                            x       y       z     vdW  Elec       q    Type
REMARK                         _______ _______ _______ _____ _____    ______ ____
ROOT
ATOM      1  C   UNL     1       1.029   9.880  19.266  0.00  0.00    +0.000 A 
ATOM      2  C   UNL     1       0.996  10.946  18.436  0.00  0.00    +0.000 A 
ATOM      3  N   UNL     1       0.056  11.921  18.585  0.00  0.00    +0.000 N 
ATOM      4  C   UNL     1       0.471  12.670  19.686  0.00  0.00    +0.000 A 
ATOM      5  O   UNL     1       0.853  13.832  19.669  0.00  0.00    +0.000 OA
ATOM      6  C   UNL     1       0.568  11.790  20.913  0.00  0.00    +0.000 A 
ATOM      7  C   UNL     1       0.091  12.509  22.020  0.00  0.00    +0.000 A 
ATOM      8  C   UNL     1      -0.862  11.905  22.799  0.00  0.00    +0.000 A 
ATOM      9  C   UNL     1      -1.213  10.582  22.493  0.00  0.00    +0.000 A 
ATOM     10  C   UNL     1      -0.533   9.795  21.480  0.00  0.00    +0.000 A 
ATOM     11  C   UNL     1       0.467  10.353  20.655  0.00  0.00    +0.000 A 
ENDROOT
BRANCH   3  12
ATOM     12  C   UNL     1      -1.330  11.442  18.488  0.00  0.00    +0.000 A 
ATOM     13  C   UNL     1      -1.702  10.441  17.601  0.00  0.00    +0.000 A 
ATOM     14  C   UNL     1      -3.054  10.085  17.486  0.00  0.00    +0.000 A 
ATOM     15  C   UNL     1      -4.067  10.757  18.200  0.00  0.00    +0.000 A 
ATOM     16  C   UNL     1      -5.489  10.289  18.092  0.00  0.00    +0.000 C 
ATOM     17  C   UNL     1      -3.723  11.821  19.039  0.00  0.00    +0.000 A 
ATOM     18  C   UNL     1      -4.731  12.770  19.639  0.00  0.00    +0.000 C 
ATOM     19  C   UNL     1      -2.361  12.082  19.237  0.00  0.00    +0.000 A 
ENDBRANCH   3  12
BRANCH   1  21
ATOM     20  N   UNL     1       2.706   7.943  18.600  0.00  0.00    +0.000 N 
ATOM     21  C   UNL     1       1.931   9.004  18.401  0.00  0.00    +0.000 C 
ATOM     22  O   UNL     1       2.099   9.305  17.193  0.00  0.00    +0.000 OA
ATOM     23  H   UNL     1       3.312   7.894  17.770  0.00  0.00    +0.000 HD
BRANCH  20  29
ATOM     24  C   UNL     1       3.323   5.635  18.621  0.00  0.00    +0.000 A 
ATOM     25  C   UNL     1       3.435   4.449  19.351  0.00  0.00    +0.000 A 
ATOM     26  C   UNL     1       2.663   4.274  20.490  0.00  0.00    +0.000 A 
ATOM     27  C   UNL     1       1.749   5.243  20.897  0.00  0.00    +0.000 A 
ATOM     28  C   UNL     1       1.691   6.464  20.225  0.00  0.00    +0.000 A 
ATOM     29  C   UNL     1       2.561   6.690  19.165  0.00  0.00    +0.000 A 
BRANCH  24  30
ATOM     30  C   UNL     1       4.149   5.721  17.354  0.00  0.00    +0.000 C 
ATOM     31  O   UNL     1       4.623   6.752  16.982  0.00  0.00    +0.000 OA
BRANCH  30  32
ATOM     32  O   UNL     1       4.282   4.503  16.754  0.00  0.00    +0.000 OA
BRANCH  32  34
ATOM     33  C   UNL     1       6.611   4.249  16.303  0.00  0.00    +0.000 C 
ATOM     34  C   UNL     1       5.247   4.485  15.678  0.00  0.00    +0.000 C 
ENDBRANCH  32  34
ENDBRANCH  30  32
ENDBRANCH  24  30
ENDBRANCH  20  29
ENDBRANCH   1  21
TORSDOF 6
ENDMDL
MODEL 5
REMARK VINA RESULT:      -7.9      1.183      1.310
REMARK  Name = 
REMARK  9 active torsions:
REMARK  status: ('A' for Active; 'I' for Inactive)
REMARK    1  A    between atoms: C_1  and  C_2
REMARK    2  A    between atoms: C_2  and  O_3
REMARK    3  A    between atoms: O_3  and  C_4
REMARK    4  A    between atoms: C_4  and  C_6
REMARK    5  A    between atoms: C_11  and  N_12
REMARK    6  A    between atoms: C_13  and  C_15
REMARK    7  A    between atoms: N_17  and  C_18
REMARK    8  A    between atoms: C_21  and  C_22
REMARK    9  A    between atoms: C_23  and  C_24
REMARK                            x       y       z     vdW  Elec       q    Type
REMARK                         _______ _______ _______ _____ _____    ______ ____
ROOT
ATOM      1  C   UNL     1       1.442   8.683  19.452  0.00  0.00    +0.000 A 
ATOM      2  C   UNL     1       1.694   9.807  18.745  0.00  0.00    +0.000 A 
ATOM      3  N   UNL     1       0.898  10.906  18.871  0.00  0.00    +0.000 N 
ATOM      4  C   UNL     1       1.252  11.480  20.092  0.00  0.00    +0.000 A 
ATOM      5  O   UNL     1       1.802  12.562  20.251  0.00  0.00    +0.000 OA
ATOM      6  C   UNL     1       1.033  10.495  21.218  0.00  0.00    +0.000 A 
ATOM      7  C   UNL     1       0.510  11.185  22.323  0.00  0.00    +0.000 A 
ATOM      8  C   UNL     1      -0.629  10.681  22.898  0.00  0.00    +0.000 A 
ATOM      9  C   UNL     1      -1.124   9.464  22.407  0.00  0.00    +0.000 A 
ATOM     10  C   UNL     1      -0.427   8.666  21.415  0.00  0.00    +0.000 A 
ATOM     11  C   UNL     1       0.757   9.121  20.796  0.00  0.00    +0.000 A 
ENDROOT
BRANCH   3  12
ATOM     12  C   UNL     1      -0.513  10.671  18.538  0.00  0.00    +0.000 A 
ATOM     13  C   UNL     1      -0.894   9.848  17.488  0.00  0.00    +0.000 A 
ATOM     14  C   UNL     1      -2.253   9.729  17.158  0.00  0.00    +0.000 A 
ATOM     15  C   UNL     1      -3.250  10.473  17.822  0.00  0.00    +0.000 A 
ATOM     16  C   UNL     1      -4.695  10.255  17.476  0.00  0.00    +0.000 C 
ATOM     17  C   UNL     1      -2.881  11.368  18.830  0.00  0.00    +0.000 A 
ATOM     18  C   UNL     1      -3.817  12.395  19.418  0.00  0.00    +0.000 C 
ATOM     19  C   UNL     1      -1.538  11.382  19.230  0.00  0.00    +0.000 A 
ENDBRANCH   3  12
BRANCH   1  21
ATOM     20  N   UNL     1       2.998   6.627  18.852  0.00  0.00    +0.000 N 
ATOM     21  C   UNL     1       2.321   7.748  18.626  0.00  0.00    +0.000 C 
ATOM     22  O   UNL     1       2.581   8.048  17.434  0.00  0.00    +0.000 OA
ATOM     23  H   UNL     1       3.645   6.540  18.057  0.00  0.00    +0.000 HD
BRANCH  20  29
ATOM     24  C   UNL     1       3.650   4.348  19.147  0.00  0.00    +0.000 A 
ATOM     25  C   UNL     1       3.566   3.186  19.917  0.00  0.00    +0.000 A 
ATOM     26  C   UNL     1       2.481   3.006  20.764  0.00  0.00    +0.000 A 
ATOM     27  C   UNL     1       1.456   3.946  20.830  0.00  0.00    +0.000 A 
ATOM     28  C   UNL     1       1.572   5.147  20.129  0.00  0.00    +0.000 A 
ATOM     29  C   UNL     1       2.723   5.383  19.388  0.00  0.00    +0.000 A 
BRANCH  24  30
ATOM     30  C   UNL     1       4.829   4.438  18.199  0.00  0.00    +0.000 C 
ATOM     31  O   UNL     1       5.938   4.170  18.550  0.00  0.00    +0.000 OA
BRANCH  30  32
ATOM     32  O   UNL     1       4.443   4.824  16.948  0.00  0.00    +0.000 OA
BRANCH  32  34
ATOM     33  C   UNL     1       5.895   4.832  15.055  0.00  0.00    +0.000 C 
ATOM     34  C   UNL     1       5.424   5.630  16.258  0.00  0.00    +0.000 C 
ENDBRANCH  32  34
ENDBRANCH  30  32
ENDBRANCH  24  30
ENDBRANCH  20  29
ENDBRANCH   1  21
TORSDOF 6
ENDMDL
MODEL 6
REMARK VINA RESULT:      -7.6      1.857      8.041
REMARK  Name = 
REMARK  9 active torsions:
REMARK  status: ('A' for Active; 'I' for Inactive)
REMARK    1  A    between atoms: C_1  and  C_2
REMARK    2  A    between atoms: C_2  and  O_3
REMARK    3  A    between atoms: O_3  and  C_4
REMARK    4  A    between atoms: C_4  and  C_6
REMARK    5  A    between atoms: C_11  and  N_12
REMARK    6  A    between atoms: C_13  and  C_15
REMARK    7  A    between atoms: N_17  and  C_18
REMARK    8  A    between atoms: C_21  and  C_22
REMARK    9  A    between atoms: C_23  and  C_24
REMARK                            x       y       z     vdW  Elec       q    Type
REMARK                         _______ _______ _______ _____ _____    ______ ____
ROOT
ATOM      1  C   UNL     1       2.096   7.041  19.182  0.00  0.00    +0.000 A 
ATOM      2  C   UNL     1       1.991   6.710  17.876  0.00  0.00    +0.000 A 
ATOM      3  N   UNL     1       2.440   5.506  17.420  0.00  0.00    +0.000 N 
ATOM      4  C   UNL     1       1.484   4.577  17.830  0.00  0.00    +0.000 A 
ATOM      5  O   UNL     1       0.740   3.934  17.102  0.00  0.00    +0.000 OA
ATOM      6  C   UNL     1       1.350   4.592  19.336  0.00  0.00    +0.000 A 
ATOM      7  C   UNL     1       1.196   3.272  19.788  0.00  0.00    +0.000 A 
ATOM      8  C   UNL     1       2.029   2.850  20.791  0.00  0.00    +0.000 A 
ATOM      9  C   UNL     1       2.897   3.794  21.360  0.00  0.00    +0.000 A 
ATOM     10  C   UNL     1       2.866   5.205  21.021  0.00  0.00    +0.000 A 
ATOM     11  C   UNL     1       2.022   5.706  20.008  0.00  0.00    +0.000 A 
ENDROOT
BRANCH   3  12
ATOM     12  C   UNL     1       3.869   5.265  17.661  0.00  0.00    +0.000 A 
ATOM     13  C   UNL     1       4.325   4.109  18.279  0.00  0.00    +0.000 A 
ATOM     14  C   UNL     1       5.692   3.970  18.564  0.00  0.00    +0.000 A 
ATOM     15  C   UNL     1       6.619   5.000  18.300  0.00  0.00    +0.000 A 
ATOM     16  C   UNL     1       8.079   4.770  18.561  0.00  0.00    +0.000 C 
ATOM     17  C   UNL     1       6.168   6.203  17.750  0.00  0.00    +0.000 A 
ATOM     18  C   UNL     1       7.011   7.452  17.672  0.00  0.00    +0.000 C 
ATOM     19  C   UNL     1       4.825   6.278  17.358  0.00  0.00    +0.000 A 
ENDBRANCH   3  12
BRANCH   1  21
ATOM     20  N   UNL     1       0.985   9.424  19.480  0.00  0.00    +0.000 N 
ATOM     21  C   UNL     1       1.856   8.538  19.010  0.00  0.00    +0.000 C 
ATOM     22  O   UNL     1       2.570   9.183  18.203  0.00  0.00    +0.000 OA
ATOM     23  H   UNL     1       1.072  10.241  18.860  0.00  0.00    +0.000 HD
BRANCH  20  29
ATOM     24  C   UNL     1      -0.315  10.945  20.786  0.00  0.00    +0.000 A 
ATOM     25  C   UNL     1      -1.036  11.175  21.960  0.00  0.00    +0.000 A 
ATOM     26  C   UNL     1      -0.780  10.399  23.082  0.00  0.00    +0.000 A 
ATOM     27  C   UNL     1       0.211   9.421  23.069  0.00  0.00    +0.000 A 
ATOM     28  C   UNL     1       0.877   9.126  21.879  0.00  0.00    +0.000 A 
ATOM     29  C   UNL     1       0.524   9.813  20.724  0.00  0.00    +0.000 A 
BRANCH  24  30
ATOM     30  C   UNL     1      -0.606  11.878  19.629  0.00  0.00    +0.000 C 
ATOM     31  O   UNL     1       0.264  12.471  19.066  0.00  0.00    +0.000 OA
BRANCH  30  32
ATOM     32  O   UNL     1      -1.937  11.912  19.330  0.00  0.00    +0.000 OA
BRANCH  32  34
ATOM     33  C   UNL     1      -2.138  10.148  17.735  0.00  0.00    +0.000 C 
ATOM     34  C   UNL     1      -2.229  11.651  17.938  0.00  0.00    +0.000 C 
ENDBRANCH  32  34
ENDBRANCH  30  32
ENDBRANCH  24  30
ENDBRANCH  20  29
ENDBRANCH   1  21
TORSDOF 6
ENDMDL
MODEL 7
REMARK VINA RESULT:      -7.5      0.915      1.679
REMARK  Name = 
REMARK  9 active torsions:
REMARK  status: ('A' for Active; 'I' for Inactive)
REMARK    1  A    between atoms: C_1  and  C_2
REMARK    2  A    between atoms: C_2  and  O_3
REMARK    3  A    between atoms: O_3  and  C_4
REMARK    4  A    between atoms: C_4  and  C_6
REMARK    5  A    between atoms: C_11  and  N_12
REMARK    6  A    between atoms: C_13  and  C_15
REMARK    7  A    between atoms: N_17  and  C_18
REMARK    8  A    between atoms: C_21  and  C_22
REMARK    9  A    between atoms: C_23  and  C_24
REMARK                            x       y       z     vdW  Elec       q    Type
REMARK                         _______ _______ _______ _____ _____    ______ ____
ROOT
ATOM      1  C   UNL     1       1.465   9.271  19.080  0.00  0.00    +0.000 A 
ATOM      2  C   UNL     1       1.695  10.587  18.876  0.00  0.00    +0.000 A 
ATOM      3  N   UNL     1       0.887  11.533  19.434  0.00  0.00    +0.000 N 
ATOM      4  C   UNL     1       1.248  11.580  20.780  0.00  0.00    +0.000 A 
ATOM      5  O   UNL     1       1.787  12.518  21.353  0.00  0.00    +0.000 OA
ATOM      6  C   UNL     1       1.053  10.225  21.423  0.00  0.00    +0.000 A 
ATOM      7  C   UNL     1       0.535  10.411  22.714  0.00  0.00    +0.000 A 
ATOM      8  C   UNL     1      -0.591   9.703  23.048  0.00  0.00    +0.000 A 
ATOM      9  C   UNL     1      -1.077   8.773  22.116  0.00  0.00    +0.000 A 
ATOM     10  C   UNL     1      -0.381   8.446  20.885  0.00  0.00    +0.000 A 
ATOM     11  C   UNL     1       0.790   9.128  20.491  0.00  0.00    +0.000 A 
ENDROOT
BRANCH   3  12
ATOM     12  C   UNL     1      -0.525  11.427  19.043  0.00  0.00    +0.000 A 
ATOM     13  C   UNL     1      -1.552  11.861  19.869  0.00  0.00    +0.000 A 
ATOM     14  C   UNL     1      -2.885  11.655  19.484  0.00  0.00    +0.000 A 
ATOM     15  C   UNL     1      -3.223  10.959  18.305  0.00  0.00    +0.000 A 
ATOM     16  C   UNL     1      -4.664  10.828  17.906  0.00  0.00    +0.000 C 
ATOM     17  C   UNL     1      -2.205  10.444  17.497  0.00  0.00    +0.000 A 
ATOM     18  C   UNL     1      -2.445   9.470  16.371  0.00  0.00    +0.000 C 
ATOM     19  C   UNL     1      -0.882  10.766  17.831  0.00  0.00    +0.000 A 
ENDBRANCH   3  12
BRANCH   1  21
ATOM     20  N   UNL     1       3.207   7.756  17.785  0.00  0.00    +0.000 N 
ATOM     21  C   UNL     1       2.346   8.756  17.945  0.00  0.00    +0.000 C 
ATOM     22  O   UNL     1       2.386   9.394  16.864  0.00  0.00    +0.000 OA
ATOM     23  H   UNL     1       3.740   7.994  16.937  0.00  0.00    +0.000 HD
BRANCH  20  29
ATOM     24  C   UNL     1       4.251   5.641  17.410  0.00  0.00    +0.000 A 
ATOM     25  C   UNL     1       4.442   4.325  17.840  0.00  0.00    +0.000 A 
ATOM     26  C   UNL     1       3.499   3.735  18.670  0.00  0.00    +0.000 A 
ATOM     27  C   UNL     1       2.347   4.418  19.050  0.00  0.00    +0.000 A 
ATOM     28  C   UNL     1       2.189   5.759  18.697  0.00  0.00    +0.000 A 
ATOM     29  C   UNL     1       3.199   6.388  17.979  0.00  0.00    +0.000 A 
BRANCH  24  30
ATOM     30  C   UNL     1       5.290   6.188  16.453  0.00  0.00    +0.000 C 
ATOM     31  O   UNL     1       4.988   6.875  15.525  0.00  0.00    +0.000 OA
BRANCH  30  32
ATOM     32  O   UNL     1       6.553   5.817  16.812  0.00  0.00    +0.000 OA
BRANCH  32  34
ATOM     33  C   UNL     1       7.777   6.115  18.838  0.00  0.00    +0.000 C 
ATOM     34  C   UNL     1       7.253   6.811  17.594  0.00  0.00    +0.000 C 
ENDBRANCH  32  34
ENDBRANCH  30  32
ENDBRANCH  24  30
ENDBRANCH  20  29
ENDBRANCH   1  21
TORSDOF 6
ENDMDL
MODEL 8
REMARK VINA RESULT:      -7.5      0.535      1.378
REMARK  Name = 
REMARK  9 active torsions:
REMARK  status: ('A' for Active; 'I' for Inactive)
REMARK    1  A    between atoms: C_1  and  C_2
REMARK    2  A    between atoms: C_2  and  O_3
REMARK    3  A    between atoms: O_3  and  C_4
REMARK    4  A    between atoms: C_4  and  C_6
REMARK    5  A    between atoms: C_11  and  N_12
REMARK    6  A    between atoms: C_13  and  C_15
REMARK    7  A    between atoms: N_17  and  C_18
REMARK    8  A    between atoms: C_21  and  C_22
REMARK    9  A    between atoms: C_23  and  C_24
REMARK                            x       y       z     vdW  Elec       q    Type
REMARK                         _______ _______ _______ _____ _____    ______ ____
ROOT
ATOM      1  C   UNL     1       1.474   8.984  19.148  0.00  0.00    +0.000 A 
ATOM      2  C   UNL     1       1.770  10.268  18.850  0.00  0.00    +0.000 A 
ATOM      3  N   UNL     1       1.008  11.292  19.328  0.00  0.00    +0.000 N 
ATOM      4  C   UNL     1       1.365  11.422  20.670  0.00  0.00    +0.000 A 
ATOM      5  O   UNL     1       1.946  12.372  21.177  0.00  0.00    +0.000 OA
ATOM      6  C   UNL     1       1.099  10.130  21.411  0.00  0.00    +0.000 A 
ATOM      7  C   UNL     1       0.584  10.437  22.680  0.00  0.00    +0.000 A 
ATOM      8  C   UNL     1      -0.578   9.812  23.055  0.00  0.00    +0.000 A 
ATOM      9  C   UNL     1      -1.105   8.841  22.191  0.00  0.00    +0.000 A 
ATOM     10  C   UNL     1      -0.420   8.389  20.994  0.00  0.00    +0.000 A 
ATOM     11  C   UNL     1       0.786   8.981  20.561  0.00  0.00    +0.000 A 
ENDROOT
BRANCH   3  12
ATOM     12  C   UNL     1      -0.405  11.227  18.934  0.00  0.00    +0.000 A 
ATOM     13  C   UNL     1      -1.419  11.714  19.747  0.00  0.00    +0.000 A 
ATOM     14  C   UNL     1      -2.758  11.546  19.361  0.00  0.00    +0.000 A 
ATOM     15  C   UNL     1      -3.116  10.838  18.195  0.00  0.00    +0.000 A 
ATOM     16  C   UNL     1      -4.559  10.748  17.793  0.00  0.00    +0.000 C 
ATOM     17  C   UNL     1      -2.114  10.271  17.403  0.00  0.00    +0.000 A 
ATOM     18  C   UNL     1      -2.384   9.282  16.296  0.00  0.00    +0.000 C 
ATOM     19  C   UNL     1      -0.782  10.553  17.735  0.00  0.00    +0.000 A 
ENDBRANCH   3  12
BRANCH   1  21
ATOM     20  N   UNL     1       3.066   7.239  17.954  0.00  0.00    +0.000 N 
ATOM     21  C   UNL     1       2.334   8.343  18.063  0.00  0.00    +0.000 C 
ATOM     22  O   UNL     1       2.505   8.953  16.978  0.00  0.00    +0.000 OA
ATOM     23  H   UNL     1       3.664   7.394  17.131  0.00  0.00    +0.000 HD
BRANCH  20  29
ATOM     24  C   UNL     1       3.986   5.126  18.583  0.00  0.00    +0.000 A 
ATOM     25  C   UNL     1       3.761   3.845  19.093  0.00  0.00    +0.000 A 
ATOM     26  C   UNL     1       2.492   3.290  19.009  0.00  0.00    +0.000 A 
ATOM     27  C   UNL     1       1.448   3.973  18.391  0.00  0.00    +0.000 A 
ATOM     28  C   UNL     1       1.640   5.285  17.955  0.00  0.00    +0.000 A 
ATOM     29  C   UNL     1       2.875   5.886  18.162  0.00  0.00    +0.000 A 
BRANCH  24  30
ATOM     30  C   UNL     1       5.412   5.632  18.652  0.00  0.00    +0.000 C 
ATOM     31  O   UNL     1       6.085   5.484  19.627  0.00  0.00    +0.000 OA
BRANCH  30  32
ATOM     32  O   UNL     1       5.795   6.226  17.484  0.00  0.00    +0.000 OA
BRANCH  32  34
ATOM     33  C   UNL     1       6.980   4.672  16.115  0.00  0.00    +0.000 C 
ATOM     34  C   UNL     1       7.124   5.859  17.052  0.00  0.00    +0.000 C 
ENDBRANCH  32  34
ENDBRANCH  30  32
ENDBRANCH  24  30
ENDBRANCH  20  29
ENDBRANCH   1  21
TORSDOF 6
ENDMDL
MODEL 9
REMARK VINA RESULT:      -7.4      1.734      2.369
REMARK  Name = 
REMARK  9 active torsions:
REMARK  status: ('A' for Active; 'I' for Inactive)
REMARK    1  A    between atoms: C_1  and  C_2
REMARK    2  A    between atoms: C_2  and  O_3
REMARK    3  A    between atoms: O_3  and  C_4
REMARK    4  A    between atoms: C_4  and  C_6
REMARK    5  A    between atoms: C_11  and  N_12
REMARK    6  A    between atoms: C_13  and  C_15
REMARK    7  A    between atoms: N_17  and  C_18
REMARK    8  A    between atoms: C_21  and  C_22
REMARK    9  A    between atoms: C_23  and  C_24
REMARK                            x       y       z     vdW  Elec       q    Type
REMARK                         _______ _______ _______ _____ _____    ______ ____
ROOT
ATOM      1  C   UNL     1       1.026  10.235  19.250  0.00  0.00    +0.000 A 
ATOM      2  C   UNL     1       1.147  11.331  18.468  0.00  0.00    +0.000 A 
ATOM      3  N   UNL     1       0.305  12.393  18.616  0.00  0.00    +0.000 N 
ATOM      4  C   UNL     1       0.738  13.050  19.767  0.00  0.00    +0.000 A 
ATOM      5  O   UNL     1       1.239  14.165  19.820  0.00  0.00    +0.000 OA
ATOM      6  C   UNL     1       0.679  12.117  20.956  0.00  0.00    +0.000 A 
ATOM      7  C   UNL     1       0.223  12.838  22.071  0.00  0.00    +0.000 A 
ATOM      8  C   UNL     1      -0.828  12.309  22.775  0.00  0.00    +0.000 A 
ATOM      9  C   UNL     1      -1.297  11.043  22.394  0.00  0.00    +0.000 A 
ATOM     10  C   UNL     1      -0.650  10.229  21.381  0.00  0.00    +0.000 A 
ATOM     11  C   UNL     1       0.444  10.710  20.631  0.00  0.00    +0.000 A 
ENDROOT
BRANCH   3  12
ATOM     12  C   UNL     1      -1.115  12.067  18.430  0.00  0.00    +0.000 A 
ATOM     13  C   UNL     1      -2.100  12.565  19.272  0.00  0.00    +0.000 A 
ATOM     14  C   UNL     1      -3.430  12.150  19.104  0.00  0.00    +0.000 A 
ATOM     15  C   UNL     1      -3.796  11.188  18.140  0.00  0.00    +0.000 A 
ATOM     16  C   UNL     1      -5.243  10.834  17.956  0.00  0.00    +0.000 C 
ATOM     17  C   UNL     1      -2.808  10.615  17.334  0.00  0.00    +0.000 A 
ATOM     18  C   UNL     1      -3.039   9.403  16.466  0.00  0.00    +0.000 C 
ATOM     19  C   UNL     1      -1.508  11.129  17.431  0.00  0.00    +0.000 A 
ENDBRANCH   3  12
BRANCH   1  21
ATOM     20  N   UNL     1       2.622   8.225  18.605  0.00  0.00    +0.000 N 
ATOM     21  C   UNL     1       1.876   9.304  18.391  0.00  0.00    +0.000 C 
ATOM     22  O   UNL     1       2.020   9.560  17.170  0.00  0.00    +0.000 OA
ATOM     23  H   UNL     1       3.204   8.130  17.761  0.00  0.00    +0.000 HD
BRANCH  20  29
ATOM     24  C   UNL     1       3.211   5.913  18.722  0.00  0.00    +0.000 A 
ATOM     25  C   UNL     1       3.298   4.755  19.498  0.00  0.00    +0.000 A 
ATOM     26  C   UNL     1       2.506   4.631  20.631  0.00  0.00    +0.000 A 
ATOM     27  C   UNL     1       1.598   5.625  20.986  0.00  0.00    +0.000 A 
ATOM     28  C   UNL     1       1.564   6.821  20.267  0.00  0.00    +0.000 A 
ATOM     29  C   UNL     1       2.454   6.996  19.214  0.00  0.00    +0.000 A 
BRANCH  24  30
ATOM     30  C   UNL     1       4.058   5.942  17.466  0.00  0.00    +0.000 C 
ATOM     31  O   UNL     1       4.565   6.949  17.074  0.00  0.00    +0.000 OA
BRANCH  30  32
ATOM     32  O   UNL     1       4.167   4.704  16.902  0.00  0.00    +0.000 OA
BRANCH  32  34
ATOM     33  C   UNL     1       5.500   4.371  14.952  0.00  0.00    +0.000 C 
ATOM     34  C   UNL     1       5.507   4.376  16.471  0.00  0.00    +0.000 C 
ENDBRANCH  32  34
ENDBRANCH  30  32
ENDBRANCH  24  30
ENDBRANCH  20  29
ENDBRANCH   1  21
TORSDOF 6
ENDMDL
