MODEL 1
REMARK VINA RESULT:      -8.6      0.000      0.000
REMARK  Name = 
REMARK  9 active torsions:
REMARK  status: ('A' for Active; 'I' for Inactive)
REMARK    1  A    between atoms: C_1  and  N_2
REMARK    2  A    between atoms: C_5  and  C_6
REMARK    3  A    between atoms: C_13  and  C_14
REMARK    4  A    between atoms: C_14  and  S_15
REMARK    5  A    between atoms: S_15  and  C_16
REMARK    6  A    between atoms: C_16  and  C_17
REMARK    7  A    between atoms: N_19  and  C_20
REMARK    8  A    between atoms: C_20  and  C_21
REMARK    9  A    between atoms: C_21  and  C_22
REMARK                            x       y       z     vdW  Elec       q    Type
REMARK                         _______ _______ _______ _____ _____    ______ ____
ROOT
ATOM      1  C   UNL     1       5.195   5.428  18.734  0.00  0.00    +0.000 C 
ENDROOT
BRANCH   1   7
ATOM      2  C   UNL     1       1.813   2.766  21.246  0.00  0.00    +0.000 C 
ATOM      3  N   UNL     1       2.284   3.116  19.902  0.00  0.00    +0.000 NA
ATOM      4  C   UNL     1       1.172   3.608  19.085  0.00  0.00    +0.000 C 
ATOM      5  C   UNL     1       1.588   4.295  17.784  0.00  0.00    +0.000 C 
ATOM      6  C   UNL     1       2.730   5.314  17.958  0.00  0.00    +0.000 C 
ATOM      7  C   UNL     1       3.907   4.579  18.652  0.00  0.00    +0.000 C 
ATOM      8  C   UNL     1       3.463   3.990  20.003  0.00  0.00    +0.000 C 
BRANCH   6   9
ATOM      9  C   UNL     1       2.274   6.642  18.571  0.00  0.00    +0.000 A 
ATOM     10  C   UNL     1       2.030   6.827  19.941  0.00  0.00    +0.000 A 
ATOM     11  C   UNL     1       1.598   8.050  20.459  0.00  0.00    +0.000 A 
ATOM     12  C   UNL     1       1.395   9.124  19.603  0.00  0.00    +0.000 A 
ATOM     13 CL   UNL     1       0.865  10.630  20.239  0.00  0.00    +0.000 Cl
ATOM     14  C   UNL     1       1.620   8.977  18.240  0.00  0.00    +0.000 A 
ATOM     15  C   UNL     1       2.055   7.746  17.727  0.00  0.00    +0.000 A 
ENDBRANCH   6   9
ENDBRANCH   1   7
BRANCH   1  16
ATOM     16  S   UNL     1       6.487   4.731  17.632  0.00  0.00    +0.000 S 
BRANCH  16  17
ATOM     17  C   UNL     1       7.127   6.248  16.846  0.00  0.00    +0.000 C 
BRANCH  17  18
ATOM     18  C   UNL     1       7.799   7.126  17.898  0.00  0.00    +0.000 C 
ATOM     19  O   UNL     1       8.220   6.669  18.960  0.00  0.00    +0.000 OA
ATOM     20  N   UNL     1       7.854   8.473  17.584  0.00  0.00    +0.000 N 
ATOM     21  H   UNL     1       7.681   8.716  16.613  0.00  0.00    +0.000 HD
BRANCH  20  22
ATOM     22  C   UNL     1       8.609   9.394  18.416  0.00  0.00    +0.000 C 
BRANCH  22  23
ATOM     23  C   UNL     1       8.697  10.797  17.811  0.00  0.00    +0.000 C 
BRANCH  23  24
ATOM     24  C   UNL     1       9.887  11.565  18.338  0.00  0.00    +0.000 A 
ATOM     25  C   UNL     1      10.430  12.634  17.612  0.00  0.00    +0.000 A 
ATOM     26  C   UNL     1      11.543  13.325  18.099  0.00  0.00    +0.000 A 
ATOM     27  C   UNL     1      12.129  12.943  19.304  0.00  0.00    +0.000 A 
ATOM     28  C   UNL     1      11.598  11.880  20.030  0.00  0.00    +0.000 A 
ATOM     29  C   UNL     1      10.482  11.195  19.551  0.00  0.00    +0.000 A 
ENDBRANCH  23  24
ENDBRANCH  22  23
ENDBRANCH  20  22
ENDBRANCH  17  18
ENDBRANCH  16  17
ENDBRANCH   1  16
TORSDOF 8
ENDMDL
MODEL 2
REMARK VINA RESULT:      -8.5      1.051      1.588
REMARK  Name = 
REMARK  9 active torsions:
REMARK  status: ('A' for Active; 'I' for Inactive)
REMARK    1  A    between atoms: C_1  and  N_2
REMARK    2  A    between atoms: C_5  and  C_6
REMARK    3  A    between atoms: C_13  and  C_14
REMARK    4  A    between atoms: C_14  and  S_15
REMARK    5  A    between atoms: S_15  and  C_16
REMARK    6  A    between atoms: C_16  and  C_17
REMARK    7  A    between atoms: N_19  and  C_20
REMARK    8  A    between atoms: C_20  and  C_21
REMARK    9  A    between atoms: C_21  and  C_22
REMARK                            x       y       z     vdW  Elec       q    Type
REMARK                         _______ _______ _______ _____ _____    ______ ____
ROOT
ATOM      1  C   UNL     1       5.322   4.922  19.389  0.00  0.00    +0.000 C 
ENDROOT
BRANCH   1   7
ATOM      2  C   UNL     1       1.334   2.592  21.261  0.00  0.00    +0.000 C 
ATOM      3  N   UNL     1       2.111   2.812  20.037  0.00  0.00    +0.000 NA
ATOM      4  C   UNL     1       1.236   3.270  18.954  0.00  0.00    +0.000 C 
ATOM      5  C   UNL     1       1.966   3.831  17.734  0.00  0.00    +0.000 C 
ATOM      6  C   UNL     1       3.090   4.823  18.086  0.00  0.00    +0.000 C 
ATOM      7  C   UNL     1       4.043   4.111  19.081  0.00  0.00    +0.000 C 
ATOM      8  C   UNL     1       3.280   3.652  20.337  0.00  0.00    +0.000 C 
BRANCH   6   9
ATOM      9  C   UNL     1       2.577   6.212  18.479  0.00  0.00    +0.000 A 
ATOM     10  C   UNL     1       2.391   7.263  17.566  0.00  0.00    +0.000 A 
ATOM     11  C   UNL     1       1.938   8.522  17.967  0.00  0.00    +0.000 A 
ATOM     12  C   UNL     1       1.663   8.758  19.306  0.00  0.00    +0.000 A 
ATOM     13 CL   UNL     1       1.104  10.306  19.800  0.00  0.00    +0.000 Cl
ATOM     14  C   UNL     1       1.841   7.744  20.239  0.00  0.00    +0.000 A 
ATOM     15  C   UNL     1       2.296   6.482  19.830  0.00  0.00    +0.000 A 
ENDBRANCH   6   9
ENDBRANCH   1   7
BRANCH   1  16
ATOM     16  S   UNL     1       6.249   5.258  17.841  0.00  0.00    +0.000 S 
BRANCH  16  17
ATOM     17  C   UNL     1       7.737   6.082  18.500  0.00  0.00    +0.000 C 
BRANCH  17  18
ATOM     18  C   UNL     1       7.826   7.502  17.943  0.00  0.00    +0.000 C 
ATOM     19  O   UNL     1       7.331   7.812  16.862  0.00  0.00    +0.000 OA
ATOM     20  N   UNL     1       8.544   8.390  18.726  0.00  0.00    +0.000 N 
ATOM     21  H   UNL     1       8.724   8.102  19.683  0.00  0.00    +0.000 HD
BRANCH  20  22
ATOM     22  C   UNL     1       8.570   9.805  18.400  0.00  0.00    +0.000 C 
BRANCH  22  23
ATOM     23  C   UNL     1       9.575  10.587  19.249  0.00  0.00    +0.000 C 
BRANCH  23  24
ATOM     24  C   UNL     1      10.134  11.779  18.507  0.00  0.00    +0.000 A 
ATOM     25  C   UNL     1      11.392  11.716  17.892  0.00  0.00    +0.000 A 
ATOM     26  C   UNL     1      11.908  12.830  17.225  0.00  0.00    +0.000 A 
ATOM     27  C   UNL     1      11.180  14.017  17.183  0.00  0.00    +0.000 A 
ATOM     28  C   UNL     1       9.931  14.090  17.795  0.00  0.00    +0.000 A 
ATOM     29  C   UNL     1       9.409  12.976  18.452  0.00  0.00    +0.000 A 
ENDBRANCH  23  24
ENDBRANCH  22  23
ENDBRANCH  20  22
ENDBRANCH  17  18
ENDBRANCH  16  17
ENDBRANCH   1  16
TORSDOF 8
ENDMDL
MODEL 3
REMARK VINA RESULT:      -8.4      1.015      1.545
REMARK  Name = 
REMARK  9 active torsions:
REMARK  status: ('A' for Active; 'I' for Inactive)
REMARK    1  A    between atoms: C_1  and  N_2
REMARK    2  A    between atoms: C_5  and  C_6
REMARK    3  A    between atoms: C_13  and  C_14
REMARK    4  A    between atoms: C_14  and  S_15
REMARK    5  A    between atoms: S_15  and  C_16
REMARK    6  A    between atoms: C_16  and  C_17
REMARK    7  A    between atoms: N_19  and  C_20
REMARK    8  A    between atoms: C_20  and  C_21
REMARK    9  A    between atoms: C_21  and  C_22
REMARK                            x       y       z     vdW  Elec       q    Type
REMARK                         _______ _______ _______ _____ _____    ______ ____
ROOT
ATOM      1  C   UNL     1       5.146   5.788  18.152  0.00  0.00    +0.000 C 
ENDROOT
BRANCH   1   7
ATOM      2  C   UNL     1       2.537   2.821  21.190  0.00  0.00    +0.000 C 
ATOM      3  N   UNL     1       2.720   3.215  19.789  0.00  0.00    +0.000 NA
ATOM      4  C   UNL     1       1.437   3.605  19.198  0.00  0.00    +0.000 C 
ATOM      5  C   UNL     1       1.543   4.330  17.856  0.00  0.00    +0.000 C 
ATOM      6  C   UNL     1       2.601   5.449  17.838  0.00  0.00    +0.000 C 
ATOM      7  C   UNL     1       3.946   4.824  18.291  0.00  0.00    +0.000 C 
ATOM      8  C   UNL     1       3.814   4.194  19.689  0.00  0.00    +0.000 C 
BRANCH   6   9
ATOM      9  C   UNL     1       2.148   6.728  18.548  0.00  0.00    +0.000 A 
ATOM     10  C   UNL     1       1.938   7.952  17.893  0.00  0.00    +0.000 A 
ATOM     11  C   UNL     1       1.542   9.102  18.580  0.00  0.00    +0.000 A 
ATOM     12  C   UNL     1       1.351   9.050  19.954  0.00  0.00    +0.000 A 
ATOM     13 CL   UNL     1       0.862  10.464  20.799  0.00  0.00    +0.000 Cl
ATOM     14  C   UNL     1       1.556   7.858  20.637  0.00  0.00    +0.000 A 
ATOM     15  C   UNL     1       1.953   6.706  19.941  0.00  0.00    +0.000 A 
ENDBRANCH   6   9
ENDBRANCH   1   7
BRANCH   1  16
ATOM     16  S   UNL     1       6.699   4.839  17.913  0.00  0.00    +0.000 S 
BRANCH  16  17
ATOM     17  C   UNL     1       7.886   5.883  18.823  0.00  0.00    +0.000 C 
BRANCH  17  18
ATOM     18  C   UNL     1       8.025   7.232  18.122  0.00  0.00    +0.000 C 
ATOM     19  O   UNL     1       7.698   7.395  16.948  0.00  0.00    +0.000 OA
ATOM     20  N   UNL     1       8.587   8.234  18.894  0.00  0.00    +0.000 N 
ATOM     21  H   UNL     1       8.622   8.066  19.894  0.00  0.00    +0.000 HD
BRANCH  20  22
ATOM     22  C   UNL     1       8.626   9.604  18.409  0.00  0.00    +0.000 C 
BRANCH  22  23
ATOM     23  C   UNL     1       9.403  10.536  19.341  0.00  0.00    +0.000 C 
BRANCH  23  24
ATOM     24  C   UNL     1       9.913  11.761  18.618  0.00  0.00    +0.000 A 
ATOM     25  C   UNL     1       9.192  12.963  18.645  0.00  0.00    +0.000 A 
ATOM     26  C   UNL     1       9.663  14.084  17.957  0.00  0.00    +0.000 A 
ATOM     27  C   UNL     1      10.846  14.007  17.225  0.00  0.00    +0.000 A 
ATOM     28  C   UNL     1      11.566  12.816  17.189  0.00  0.00    +0.000 A 
ATOM     29  C   UNL     1      11.104  11.699  17.883  0.00  0.00    +0.000 A 
ENDBRANCH  23  24
ENDBRANCH  22  23
ENDBRANCH  20  22
ENDBRANCH  17  18
ENDBRANCH  16  17
ENDBRANCH   1  16
TORSDOF 8
ENDMDL
MODEL 4
REMARK VINA RESULT:      -8.3      1.414      1.724
REMARK  Name = 
REMARK  9 active torsions:
REMARK  status: ('A' for Active; 'I' for Inactive)
REMARK    1  A    between atoms: C_1  and  N_2
REMARK    2  A    between atoms: C_5  and  C_6
REMARK    3  A    between atoms: C_13  and  C_14
REMARK    4  A    between atoms: C_14  and  S_15
REMARK    5  A    between atoms: S_15  and  C_16
REMARK    6  A    between atoms: C_16  and  C_17
REMARK    7  A    between atoms: N_19  and  C_20
REMARK    8  A    between atoms: C_20  and  C_21
REMARK    9  A    between atoms: C_21  and  C_22
REMARK                            x       y       z     vdW  Elec       q    Type
REMARK                         _______ _______ _______ _____ _____    ______ ____
ROOT
ATOM      1  C   UNL     1       4.969   5.032  17.004  0.00  0.00    +0.000 C 
ENDROOT
BRANCH   1   7
ATOM      2  C   UNL     1       4.576   1.738  20.723  0.00  0.00    +0.000 C 
ATOM      3  N   UNL     1       4.043   2.109  19.408  0.00  0.00    +0.000 NA
ATOM      4  C   UNL     1       2.584   2.227  19.466  0.00  0.00    +0.000 C 
ATOM      5  C   UNL     1       1.948   2.910  18.255  0.00  0.00    +0.000 C 
ATOM      6  C   UNL     1       2.661   4.207  17.829  0.00  0.00    +0.000 C 
ATOM      7  C   UNL     1       4.157   3.865  17.608  0.00  0.00    +0.000 C 
ATOM      8  C   UNL     1       4.777   3.272  18.887  0.00  0.00    +0.000 C 
BRANCH   6   9
ATOM      9  C   UNL     1       2.341   5.403  18.731  0.00  0.00    +0.000 A 
ATOM     10  C   UNL     1       1.908   5.283  20.062  0.00  0.00    +0.000 A 
ATOM     11  C   UNL     1       1.609   6.399  20.847  0.00  0.00    +0.000 A 
ATOM     12  C   UNL     1       1.735   7.672  20.308  0.00  0.00    +0.000 A 
ATOM     13 CL   UNL     1       1.369   9.045  21.275  0.00  0.00    +0.000 Cl
ATOM     14  C   UNL     1       2.154   7.829  18.993  0.00  0.00    +0.000 A 
ATOM     15  C   UNL     1       2.454   6.705  18.210  0.00  0.00    +0.000 A 
ENDBRANCH   6   9
ENDBRANCH   1   7
BRANCH   1  16
ATOM     16  S   UNL     1       6.768   4.692  17.140  0.00  0.00    +0.000 S 
BRANCH  16  17
ATOM     17  C   UNL     1       7.233   5.820  18.496  0.00  0.00    +0.000 C 
BRANCH  17  18
ATOM     18  C   UNL     1       7.628   7.178  17.920  0.00  0.00    +0.000 C 
ATOM     19  O   UNL     1       7.282   7.538  16.796  0.00  0.00    +0.000 OA
ATOM     20  N   UNL     1       8.440   7.944  18.740  0.00  0.00    +0.000 N 
ATOM     21  H   UNL     1       8.491   7.661  19.713  0.00  0.00    +0.000 HD
BRANCH  20  22
ATOM     22  C   UNL     1       8.755   9.318  18.388  0.00  0.00    +0.000 C 
BRANCH  22  23
ATOM     23  C   UNL     1       9.269  10.127  19.581  0.00  0.00    +0.000 C 
BRANCH  23  24
ATOM     24  C   UNL     1      10.003  11.373  19.144  0.00  0.00    +0.000 A 
ATOM     25  C   UNL     1      10.032  12.513  19.959  0.00  0.00    +0.000 A 
ATOM     26  C   UNL     1      10.698  13.667  19.536  0.00  0.00    +0.000 A 
ATOM     27  C   UNL     1      11.323  13.695  18.291  0.00  0.00    +0.000 A 
ATOM     28  C   UNL     1      11.296  12.569  17.473  0.00  0.00    +0.000 A 
ATOM     29  C   UNL     1      10.641  11.413  17.897  0.00  0.00    +0.000 A 
ENDBRANCH  23  24
ENDBRANCH  22  23
ENDBRANCH  20  22
ENDBRANCH  17  18
ENDBRANCH  16  17
ENDBRANCH   1  16
TORSDOF 8
ENDMDL
MODEL 5
REMARK VINA RESULT:      -8.2      0.949      1.159
REMARK  Name = 
REMARK  9 active torsions:
REMARK  status: ('A' for Active; 'I' for Inactive)
REMARK    1  A    between atoms: C_1  and  N_2
REMARK    2  A    between atoms: C_5  and  C_6
REMARK    3  A    between atoms: C_13  and  C_14
REMARK    4  A    between atoms: C_14  and  S_15
REMARK    5  A    between atoms: S_15  and  C_16
REMARK    6  A    between atoms: C_16  and  C_17
REMARK    7  A    between atoms: N_19  and  C_20
REMARK    8  A    between atoms: C_20  and  C_21
REMARK    9  A    between atoms: C_21  and  C_22
REMARK                            x       y       z     vdW  Elec       q    Type
REMARK                         _______ _______ _______ _____ _____    ______ ____
ROOT
ATOM      1  C   UNL     1       5.031   5.857  18.409  0.00  0.00    +0.000 C 
ENDROOT
BRANCH   1   7
ATOM      2  C   UNL     1       2.293   2.955  21.395  0.00  0.00    +0.000 C 
ATOM      3  N   UNL     1       2.519   3.337  19.997  0.00  0.00    +0.000 NA
ATOM      4  C   UNL     1       1.259   3.746  19.371  0.00  0.00    +0.000 C 
ATOM      5  C   UNL     1       1.412   4.460  18.029  0.00  0.00    +0.000 C 
ATOM      6  C   UNL     1       2.489   5.561  18.032  0.00  0.00    +0.000 C 
ATOM      7  C   UNL     1       3.812   4.915  18.522  0.00  0.00    +0.000 C 
ATOM      8  C   UNL     1       3.632   4.296  19.920  0.00  0.00    +0.000 C 
BRANCH   6   9
ATOM      9  C   UNL     1       2.041   6.852  18.723  0.00  0.00    +0.000 A 
ATOM     10  C   UNL     1       1.767   6.947  20.097  0.00  0.00    +0.000 A 
ATOM     11  C   UNL     1       1.343   8.141  20.687  0.00  0.00    +0.000 A 
ATOM     12  C   UNL     1       1.178   9.273  19.902  0.00  0.00    +0.000 A 
ATOM     13 CL   UNL     1       0.658  10.742  20.628  0.00  0.00    +0.000 Cl
ATOM     14  C   UNL     1       1.433   9.215  18.538  0.00  0.00    +0.000 A 
ATOM     15  C   UNL     1       1.860   8.015  17.952  0.00  0.00    +0.000 A 
ENDBRANCH   6   9
ENDBRANCH   1   7
BRANCH   1  16
ATOM     16  S   UNL     1       6.437   5.198  19.389  0.00  0.00    +0.000 S 
BRANCH  16  17
ATOM     17  C   UNL     1       7.808   5.389  18.202  0.00  0.00    +0.000 C 
BRANCH  17  18
ATOM     18  C   UNL     1       7.852   6.830  17.698  0.00  0.00    +0.000 C 
ATOM     19  O   UNL     1       7.444   7.145  16.581  0.00  0.00    +0.000 OA
ATOM     20  N   UNL     1       8.425   7.736  18.574  0.00  0.00    +0.000 N 
ATOM     21  H   UNL     1       8.531   7.427  19.535  0.00  0.00    +0.000 HD
BRANCH  20  22
ATOM     22  C   UNL     1       8.384   9.161  18.293  0.00  0.00    +0.000 C 
BRANCH  22  23
ATOM     23  C   UNL     1       9.184   9.984  19.304  0.00  0.00    +0.000 C 
BRANCH  23  24
ATOM     24  C   UNL     1       9.820  11.198  18.668  0.00  0.00    +0.000 A 
ATOM     25  C   UNL     1       9.035  12.171  18.034  0.00  0.00    +0.000 A 
ATOM     26  C   UNL     1       9.634  13.280  17.432  0.00  0.00    +0.000 A 
ATOM     27  C   UNL     1      11.021  13.415  17.444  0.00  0.00    +0.000 A 
ATOM     28  C   UNL     1      11.809  12.452  18.067  0.00  0.00    +0.000 A 
ATOM     29  C   UNL     1      11.212  11.349  18.678  0.00  0.00    +0.000 A 
ENDBRANCH  23  24
ENDBRANCH  22  23
ENDBRANCH  20  22
ENDBRANCH  17  18
ENDBRANCH  16  17
ENDBRANCH   1  16
TORSDOF 8
ENDMDL
MODEL 6
REMARK VINA RESULT:      -8.1      1.347      1.456
REMARK  Name = 
REMARK  9 active torsions:
REMARK  status: ('A' for Active; 'I' for Inactive)
REMARK    1  A    between atoms: C_1  and  N_2
REMARK    2  A    between atoms: C_5  and  C_6
REMARK    3  A    between atoms: C_13  and  C_14
REMARK    4  A    between atoms: C_14  and  S_15
REMARK    5  A    between atoms: S_15  and  C_16
REMARK    6  A    between atoms: C_16  and  C_17
REMARK    7  A    between atoms: N_19  and  C_20
REMARK    8  A    between atoms: C_20  and  C_21
REMARK    9  A    between atoms: C_21  and  C_22
REMARK                            x       y       z     vdW  Elec       q    Type
REMARK                         _______ _______ _______ _____ _____    ______ ____
ROOT
ATOM      1  C   UNL     1       5.237   5.406  19.295  0.00  0.00    +0.000 C 
ENDROOT
BRANCH   1   7
ATOM      2  C   UNL     1       1.436   2.710  21.060  0.00  0.00    +0.000 C 
ATOM      3  N   UNL     1       2.140   3.104  19.836  0.00  0.00    +0.000 NA
ATOM      4  C   UNL     1       1.195   3.650  18.858  0.00  0.00    +0.000 C 
ATOM      5  C   UNL     1       1.841   4.380  17.681  0.00  0.00    +0.000 C 
ATOM      6  C   UNL     1       2.946   5.370  18.096  0.00  0.00    +0.000 C 
ATOM      7  C   UNL     1       3.974   4.585  18.953  0.00  0.00    +0.000 C 
ATOM      8  C   UNL     1       3.293   3.951  20.179  0.00  0.00    +0.000 C 
BRANCH   6   9
ATOM      9  C   UNL     1       2.405   6.680  18.676  0.00  0.00    +0.000 A 
ATOM     10  C   UNL     1       2.049   6.850  20.023  0.00  0.00    +0.000 A 
ATOM     11  C   UNL     1       1.542   8.058  20.510  0.00  0.00    +0.000 A 
ATOM     12  C   UNL     1       1.375   9.130  19.645  0.00  0.00    +0.000 A 
ATOM     13 CL   UNL     1       0.753  10.616  20.243  0.00  0.00    +0.000 Cl
ATOM     14  C   UNL     1       1.710   8.997  18.303  0.00  0.00    +0.000 A 
ATOM     15  C   UNL     1       2.220   7.782  17.821  0.00  0.00    +0.000 A 
ENDBRANCH   6   9
ENDBRANCH   1   7
BRANCH   1  16
ATOM     16  S   UNL     1       6.440   5.328  17.911  0.00  0.00    +0.000 S 
BRANCH  16  17
ATOM     17  C   UNL     1       7.860   6.216  18.634  0.00  0.00    +0.000 C 
BRANCH  17  18
ATOM     18  C   UNL     1       7.904   7.642  18.089  0.00  0.00    +0.000 C 
ATOM     19  O   UNL     1       7.277   7.978  17.086  0.00  0.00    +0.000 OA
ATOM     20  N   UNL     1       8.736   8.504  18.781  0.00  0.00    +0.000 N 
ATOM     21  H   UNL     1       9.035   8.199  19.702  0.00  0.00    +0.000 HD
BRANCH  20  22
ATOM     22  C   UNL     1       8.748   9.924  18.473  0.00  0.00    +0.000 C 
BRANCH  22  23
ATOM     23  C   UNL     1       9.995  10.633  19.005  0.00  0.00    +0.000 C 
BRANCH  23  24
ATOM     24  C   UNL     1       9.661  11.959  19.646  0.00  0.00    +0.000 A 
ATOM     25  C   UNL     1       8.927  12.929  18.949  0.00  0.00    +0.000 A 
ATOM     26  C   UNL     1       8.640  14.160  19.544  0.00  0.00    +0.000 A 
ATOM     27  C   UNL     1       9.098  14.437  20.831  0.00  0.00    +0.000 A 
ATOM     28  C   UNL     1       9.832  13.481  21.529  0.00  0.00    +0.000 A 
ATOM     29  C   UNL     1      10.111  12.248  20.941  0.00  0.00    +0.000 A 
ENDBRANCH  23  24
ENDBRANCH  22  23
ENDBRANCH  20  22
ENDBRANCH  17  18
ENDBRANCH  16  17
ENDBRANCH   1  16
TORSDOF 8
ENDMDL
MODEL 7
REMARK VINA RESULT:      -8.0      0.454      1.012
REMARK  Name = 
REMARK  9 active torsions:
REMARK  status: ('A' for Active; 'I' for Inactive)
REMARK    1  A    between atoms: C_1  and  N_2
REMARK    2  A    between atoms: C_5  and  C_6
REMARK    3  A    between atoms: C_13  and  C_14
REMARK    4  A    between atoms: C_14  and  S_15
REMARK    5  A    between atoms: S_15  and  C_16
REMARK    6  A    between atoms: C_16  and  C_17
REMARK    7  A    between atoms: N_19  and  C_20
REMARK    8  A    between atoms: C_20  and  C_21
REMARK    9  A    between atoms: C_21  and  C_22
REMARK                            x       y       z     vdW  Elec       q    Type
REMARK                         _______ _______ _______ _____ _____    ______ ____
ROOT
ATOM      1  C   UNL     1       5.282   5.025  19.089  0.00  0.00    +0.000 C 
ENDROOT
BRANCH   1   7
ATOM      2  C   UNL     1       1.526   2.452  21.115  0.00  0.00    +0.000 C 
ATOM      3  N   UNL     1       2.174   2.800  19.847  0.00  0.00    +0.000 NA
ATOM      4  C   UNL     1       1.191   3.339  18.904  0.00  0.00    +0.000 C 
ATOM      5  C   UNL     1       1.789   4.026  17.676  0.00  0.00    +0.000 C 
ATOM      6  C   UNL     1       2.932   5.003  18.008  0.00  0.00    +0.000 C 
ATOM      7  C   UNL     1       3.988   4.221  18.833  0.00  0.00    +0.000 C 
ATOM      8  C   UNL     1       3.359   3.632  20.108  0.00  0.00    +0.000 C 
BRANCH   6   9
ATOM      9  C   UNL     1       2.447   6.339  18.579  0.00  0.00    +0.000 A 
ATOM     10  C   UNL     1       2.328   7.515  17.820  0.00  0.00    +0.000 A 
ATOM     11  C   UNL     1       1.897   8.719  18.383  0.00  0.00    +0.000 A 
ATOM     12  C   UNL     1       1.579   8.772  19.732  0.00  0.00    +0.000 A 
ATOM     13 CL   UNL     1       1.047  10.253  20.424  0.00  0.00    +0.000 Cl
ATOM     14  C   UNL     1       1.691   7.630  20.516  0.00  0.00    +0.000 A 
ATOM     15  C   UNL     1       2.122   6.423  19.945  0.00  0.00    +0.000 A 
ENDBRANCH   6   9
ENDBRANCH   1   7
BRANCH   1  16
ATOM     16  S   UNL     1       6.413   4.884  17.649  0.00  0.00    +0.000 S 
BRANCH  16  17
ATOM     17  C   UNL     1       6.452   6.613  17.069  0.00  0.00    +0.000 C 
BRANCH  17  18
ATOM     18  C   UNL     1       7.511   7.391  17.848  0.00  0.00    +0.000 C 
ATOM     19  O   UNL     1       8.068   6.924  18.839  0.00  0.00    +0.000 OA
ATOM     20  N   UNL     1       7.754   8.671  17.379  0.00  0.00    +0.000 N 
ATOM     21  H   UNL     1       7.412   8.882  16.448  0.00  0.00    +0.000 HD
BRANCH  20  22
ATOM     22  C   UNL     1       8.848   9.459  17.922  0.00  0.00    +0.000 C 
BRANCH  22  23
ATOM     23  C   UNL     1       8.512  10.949  18.013  0.00  0.00    +0.000 C 
BRANCH  23  24
ATOM     24  C   UNL     1       9.647  11.748  18.610  0.00  0.00    +0.000 A 
ATOM     25  C   UNL     1       9.974  13.016  18.111  0.00  0.00    +0.000 A 
ATOM     26  C   UNL     1      11.037  13.739  18.658  0.00  0.00    +0.000 A 
ATOM     27  C   UNL     1      11.790  13.192  19.696  0.00  0.00    +0.000 A 
ATOM     28  C   UNL     1      11.476  11.932  20.195  0.00  0.00    +0.000 A 
ATOM     29  C   UNL     1      10.408  11.213  19.658  0.00  0.00    +0.000 A 
ENDBRANCH  23  24
ENDBRANCH  22  23
ENDBRANCH  20  22
ENDBRANCH  17  18
ENDBRANCH  16  17
ENDBRANCH   1  16
TORSDOF 8
ENDMDL
MODEL 8
REMARK VINA RESULT:      -7.9      1.557      1.961
REMARK  Name = 
REMARK  9 active torsions:
REMARK  status: ('A' for Active; 'I' for Inactive)
REMARK    1  A    between atoms: C_1  and  N_2
REMARK    2  A    between atoms: C_5  and  C_6
REMARK    3  A    between atoms: C_13  and  C_14
REMARK    4  A    between atoms: C_14  and  S_15
REMARK    5  A    between atoms: S_15  and  C_16
REMARK    6  A    between atoms: C_16  and  C_17
REMARK    7  A    between atoms: N_19  and  C_20
REMARK    8  A    between atoms: C_20  and  C_21
REMARK    9  A    between atoms: C_21  and  C_22
REMARK                            x       y       z     vdW  Elec       q    Type
REMARK                         _______ _______ _______ _____ _____    ______ ____
ROOT
ATOM      1  C   UNL     1       5.340   5.892  17.488  0.00  0.00    +0.000 C 
ENDROOT
BRANCH   1   7
ATOM      2  C   UNL     1       3.829   2.312  20.608  0.00  0.00    +0.000 C 
ATOM      3  N   UNL     1       3.663   2.851  19.255  0.00  0.00    +0.000 NA
ATOM      4  C   UNL     1       2.245   3.095  18.974  0.00  0.00    +0.000 C 
ATOM      5  C   UNL     1       1.974   3.943  17.732  0.00  0.00    +0.000 C 
ATOM      6  C   UNL     1       2.851   5.205  17.639  0.00  0.00    +0.000 C 
ATOM      7  C   UNL     1       4.331   4.751  17.744  0.00  0.00    +0.000 C 
ATOM      8  C   UNL     1       4.576   3.988  19.058  0.00  0.00    +0.000 C 
BRANCH   6   9
ATOM      9  C   UNL     1       2.396   6.334  18.568  0.00  0.00    +0.000 A 
ATOM     10  C   UNL     1       2.139   6.162  19.938  0.00  0.00    +0.000 A 
ATOM     11  C   UNL     1       1.708   7.215  20.749  0.00  0.00    +0.000 A 
ATOM     12  C   UNL     1       1.519   8.474  20.197  0.00  0.00    +0.000 A 
ATOM     13 CL   UNL     1       0.990   9.770  21.194  0.00  0.00    +0.000 Cl
ATOM     14  C   UNL     1       1.757   8.681  18.844  0.00  0.00    +0.000 A 
ATOM     15  C   UNL     1       2.191   7.620  18.035  0.00  0.00    +0.000 A 
ENDBRANCH   6   9
ENDBRANCH   1   7
BRANCH   1  16
ATOM     16  S   UNL     1       7.056   5.240  17.511  0.00  0.00    +0.000 S 
BRANCH  16  17
ATOM     17  C   UNL     1       7.834   6.355  18.727  0.00  0.00    +0.000 C 
BRANCH  17  18
ATOM     18  C   UNL     1       8.069   7.723  18.092  0.00  0.00    +0.000 C 
ATOM     19  O   UNL     1       7.761   7.964  16.926  0.00  0.00    +0.000 OA
ATOM     20  N   UNL     1       8.692   8.647  18.913  0.00  0.00    +0.000 N 
ATOM     21  H   UNL     1       8.709   8.429  19.904  0.00  0.00    +0.000 HD
BRANCH  20  22
ATOM     22  C   UNL     1       8.828  10.032  18.495  0.00  0.00    +0.000 C 
BRANCH  22  23
ATOM     23  C   UNL     1      10.116  10.679  19.009  0.00  0.00    +0.000 C 
BRANCH  23  24
ATOM     24  C   UNL     1       9.839  11.729  20.060  0.00  0.00    +0.000 A 
ATOM     25  C   UNL     1       9.240  11.384  21.280  0.00  0.00    +0.000 A 
ATOM     26  C   UNL     1       8.971  12.366  22.237  0.00  0.00    +0.000 A 
ATOM     27  C   UNL     1       9.283  13.699  21.976  0.00  0.00    +0.000 A 
ATOM     28  C   UNL     1       9.874  14.051  20.766  0.00  0.00    +0.000 A 
ATOM     29  C   UNL     1      10.153  13.072  19.813  0.00  0.00    +0.000 A 
ENDBRANCH  23  24
ENDBRANCH  22  23
ENDBRANCH  20  22
ENDBRANCH  17  18
ENDBRANCH  16  17
ENDBRANCH   1  16
TORSDOF 8
ENDMDL
MODEL 9
REMARK VINA RESULT:      -7.9      3.061     10.032
REMARK  Name = 
REMARK  9 active torsions:
REMARK  status: ('A' for Active; 'I' for Inactive)
REMARK    1  A    between atoms: C_1  and  N_2
REMARK    2  A    between atoms: C_5  and  C_6
REMARK    3  A    between atoms: C_13  and  C_14
REMARK    4  A    between atoms: C_14  and  S_15
REMARK    5  A    between atoms: S_15  and  C_16
REMARK    6  A    between atoms: C_16  and  C_17
REMARK    7  A    between atoms: N_19  and  C_20
REMARK    8  A    between atoms: C_20  and  C_21
REMARK    9  A    between atoms: C_21  and  C_22
REMARK                            x       y       z     vdW  Elec       q    Type
REMARK                         _______ _______ _______ _____ _____    ______ ____
ROOT
ATOM      1  C   UNL     1       8.953  10.014  19.323  0.00  0.00    +0.000 C 
ENDROOT
BRANCH   1   7
ATOM      2  C   UNL     1      11.281  13.399  16.502  0.00  0.00    +0.000 C 
ATOM      3  N   UNL     1      11.483  12.374  17.531  0.00  0.00    +0.000 NA
ATOM      4  C   UNL     1      12.219  12.933  18.668  0.00  0.00    +0.000 C 
ATOM      5  C   UNL     1      12.214  12.062  19.925  0.00  0.00    +0.000 C 
ATOM      6  C   UNL     1      10.823  11.514  20.294  0.00  0.00    +0.000 C 
ATOM      7  C   UNL     1      10.270  10.773  19.048  0.00  0.00    +0.000 C 
ATOM      8  C   UNL     1      10.202  11.718  17.835  0.00  0.00    +0.000 C 
BRANCH   6   9
ATOM      9  C   UNL     1       9.912  12.555  20.952  0.00  0.00    +0.000 A 
ATOM     10  C   UNL     1       9.626  13.809  20.390  0.00  0.00    +0.000 A 
ATOM     11  C   UNL     1       8.803  14.739  21.031  0.00  0.00    +0.000 A 
ATOM     12  C   UNL     1       8.248  14.429  22.265  0.00  0.00    +0.000 A 
ATOM     13 CL   UNL     1       7.235  15.571  23.053  0.00  0.00    +0.000 Cl
ATOM     14  C   UNL     1       8.514  13.199  22.855  0.00  0.00    +0.000 A 
ATOM     15  C   UNL     1       9.340  12.270  22.206  0.00  0.00    +0.000 A 
ENDBRANCH   6   9
ENDBRANCH   1   7
BRANCH   1  16
ATOM     16  S   UNL     1       8.289   9.307  17.764  0.00  0.00    +0.000 S 
BRANCH  16  17
ATOM     17  C   UNL     1       8.037   7.568  18.251  0.00  0.00    +0.000 C 
BRANCH  17  18
ATOM     18  C   UNL     1       7.209   6.852  17.186  0.00  0.00    +0.000 C 
ATOM     19  O   UNL     1       7.701   6.464  16.128  0.00  0.00    +0.000 OA
ATOM     20  N   UNL     1       5.864   6.719  17.486  0.00  0.00    +0.000 N 
ATOM     21  H   UNL     1       5.601   6.873  18.454  0.00  0.00    +0.000 HD
BRANCH  20  22
ATOM     22  C   UNL     1       4.997   5.918  16.640  0.00  0.00    +0.000 C 
BRANCH  22  23
ATOM     23  C   UNL     1       5.081   4.423  16.958  0.00  0.00    +0.000 C 
BRANCH  23  24
ATOM     24  C   UNL     1       3.772   3.883  17.484  0.00  0.00    +0.000 A 
ATOM     25  C   UNL     1       2.674   4.730  17.684  0.00  0.00    +0.000 A 
ATOM     26  C   UNL     1       1.473   4.223  18.189  0.00  0.00    +0.000 A 
ATOM     27  C   UNL     1       1.368   2.872  18.513  0.00  0.00    +0.000 A 
ATOM     28  C   UNL     1       2.456   2.024  18.322  0.00  0.00    +0.000 A 
ATOM     29  C   UNL     1       3.651   2.525  17.808  0.00  0.00    +0.000 A 
ENDBRANCH  23  24
ENDBRANCH  22  23
ENDBRANCH  20  22
ENDBRANCH  17  18
ENDBRANCH  16  17
ENDBRANCH   1  16
TORSDOF 8
ENDMDL
