MODEL 1
REMARK VINA RESULT:      -7.2      0.000      0.000
REMARK  Name = 
REMARK  4 active torsions:
REMARK  status: ('A' for Active; 'I' for Inactive)
REMARK    1  A    between atoms: C_2  and  C_4
REMARK    2  A    between atoms: C_7  and  O_8
REMARK    3  A    between atoms: O_8  and  C_9
REMARK    4  A    between atoms: C_12  and  C_13
REMARK                            x       y       z     vdW  Elec       q    Type
REMARK                         _______ _______ _______ _____ _____    ______ ____
ROOT
ATOM      1  O   UNL     1       5.709   5.761  18.542  0.00  0.00    +0.000 OA
ENDROOT
BRANCH   1   5
ATOM      2  C   UNL     1       6.598   4.801  14.587  0.00  0.00    +0.000 A 
ATOM      3  C   UNL     1       7.413   4.414  15.660  0.00  0.00    +0.000 A 
ATOM      4  C   UNL     1       7.119   4.789  16.967  0.00  0.00    +0.000 A 
ATOM      5  C   UNL     1       5.972   5.521  17.219  0.00  0.00    +0.000 A 
ATOM      6  C   UNL     1       5.128   5.888  16.168  0.00  0.00    +0.000 A 
ATOM      7  C   UNL     1       5.457   5.560  14.852  0.00  0.00    +0.000 A 
BRANCH   2   9
ATOM      8  N   UNL     1       7.673   5.052  12.428  0.00  0.00    +0.000 NA
ATOM      9  C   UNL     1       6.873   4.362  13.183  0.00  0.00    +0.000 C 
ATOM     10  N   UNL     1       6.315   3.234  12.673  0.00  0.00    +0.000 N 
ATOM     11  H   UNL     1       7.724   4.566  11.521  0.00  0.00    +0.000 HD
ATOM     12  H   UNL     1       6.546   2.899  11.747  0.00  0.00    +0.000 HD
ATOM     13  H   UNL     1       5.657   2.673  13.195  0.00  0.00    +0.000 HD
ENDBRANCH   2   9
ENDBRANCH   1   5
BRANCH   1  14
ATOM     14  C   UNL     1       4.733   5.029  19.166  0.00  0.00    +0.000 A 
ATOM     15  C   UNL     1       3.611   5.749  19.572  0.00  0.00    +0.000 A 
ATOM     16  C   UNL     1       2.549   5.086  20.180  0.00  0.00    +0.000 A 
ATOM     17  C   UNL     1       2.617   3.701  20.379  0.00  0.00    +0.000 A 
ATOM     18  C   UNL     1       3.750   2.983  19.983  0.00  0.00    +0.000 A 
ATOM     19  C   UNL     1       4.796   3.644  19.345  0.00  0.00    +0.000 A 
BRANCH  17  20
ATOM     20  C   UNL     1       1.468   2.995  20.995  0.00  0.00    +0.000 C 
ATOM     21  N   UNL     1       1.505   2.521  22.200  0.00  0.00    +0.000 NA
ATOM     22  N   UNL     1       0.314   2.815  20.299  0.00  0.00    +0.000 N 
ATOM     23  H   UNL     1       2.426   2.647  22.626  0.00  0.00    +0.000 HD
ATOM     24  H   UNL     1       0.029   3.582  19.702  0.00  0.00    +0.000 HD
ATOM     25  H   UNL     1      -0.430   2.494  20.912  0.00  0.00    +0.000 HD
ENDBRANCH  17  20
ENDBRANCH   1  14
TORSDOF 4
ENDMDL
MODEL 2
REMARK VINA RESULT:      -7.1      5.006      7.178
REMARK  Name = 
REMARK  4 active torsions:
REMARK  status: ('A' for Active; 'I' for Inactive)
REMARK    1  A    between atoms: C_2  and  C_4
REMARK    2  A    between atoms: C_7  and  O_8
REMARK    3  A    between atoms: O_8  and  C_9
REMARK    4  A    between atoms: C_12  and  C_13
REMARK                            x       y       z     vdW  Elec       q    Type
REMARK                         _______ _______ _______ _____ _____    ______ ____
ROOT
ATOM      1  O   UNL     1       2.299   7.811  20.111  0.00  0.00    +0.000 OA
ENDROOT
BRANCH   1   5
ATOM      2  C   UNL     1       1.823   3.860  18.879  0.00  0.00    +0.000 A 
ATOM      3  C   UNL     1       1.457   4.301  20.158  0.00  0.00    +0.000 A 
ATOM      4  C   UNL     1       1.671   5.616  20.561  0.00  0.00    +0.000 A 
ATOM      5  C   UNL     1       2.215   6.518  19.664  0.00  0.00    +0.000 A 
ATOM      6  C   UNL     1       2.555   6.107  18.373  0.00  0.00    +0.000 A 
ATOM      7  C   UNL     1       2.393   4.774  17.992  0.00  0.00    +0.000 A 
BRANCH   2   9
ATOM      8  N   UNL     1       0.356   1.966  18.504  0.00  0.00    +0.000 NA
ATOM      9  C   UNL     1       1.552   2.464  18.415  0.00  0.00    +0.000 C 
ATOM     10  N   UNL     1       2.533   1.695  17.876  0.00  0.00    +0.000 N 
ATOM     11  H   UNL     1       0.399   1.011  18.120  0.00  0.00    +0.000 HD
ATOM     12  H   UNL     1       2.344   0.774  17.504  0.00  0.00    +0.000 HD
ATOM     13  H   UNL     1       3.492   2.008  17.812  0.00  0.00    +0.000 HD
ENDBRANCH   2   9
ENDBRANCH   1   5
BRANCH   1  14
ATOM     14  C   UNL     1       1.381   8.726  19.666  0.00  0.00    +0.000 A 
ATOM     15  C   UNL     1       0.494   9.202  20.629  0.00  0.00    +0.000 A 
ATOM     16  C   UNL     1      -0.450  10.165  20.282  0.00  0.00    +0.000 A 
ATOM     17  C   UNL     1      -0.501  10.644  18.968  0.00  0.00    +0.000 A 
ATOM     18  C   UNL     1       0.380  10.154  17.999  0.00  0.00    +0.000 A 
ATOM     19  C   UNL     1       1.345   9.217  18.358  0.00  0.00    +0.000 A 
BRANCH  17  20
ATOM     20  C   UNL     1      -1.486  11.695  18.612  0.00  0.00    +0.000 C 
ATOM     21  N   UNL     1      -1.453  12.329  17.484  0.00  0.00    +0.000 NA
ATOM     22  N   UNL     1      -2.474  12.037  19.481  0.00  0.00    +0.000 N 
ATOM     23  H   UNL     1      -0.646  12.053  16.920  0.00  0.00    +0.000 HD
ATOM     24  H   UNL     1      -2.884  11.277  20.011  0.00  0.00    +0.000 HD
ATOM     25  H   UNL     1      -3.170  12.620  19.024  0.00  0.00    +0.000 HD
ENDBRANCH  17  20
ENDBRANCH   1  14
TORSDOF 4
ENDMDL
MODEL 3
REMARK VINA RESULT:      -7.1      0.161      7.255
REMARK  Name = 
REMARK  4 active torsions:
REMARK  status: ('A' for Active; 'I' for Inactive)
REMARK    1  A    between atoms: C_2  and  C_4
REMARK    2  A    between atoms: C_7  and  O_8
REMARK    3  A    between atoms: O_8  and  C_9
REMARK    4  A    between atoms: C_12  and  C_13
REMARK                            x       y       z     vdW  Elec       q    Type
REMARK                         _______ _______ _______ _____ _____    ______ ____
ROOT
ATOM      1  O   UNL     1       5.671   5.814  18.622  0.00  0.00    +0.000 OA
ENDROOT
BRANCH   1   5
ATOM      2  C   UNL     1       2.550   3.698  20.392  0.00  0.00    +0.000 A 
ATOM      3  C   UNL     1       2.511   5.086  20.206  0.00  0.00    +0.000 A 
ATOM      4  C   UNL     1       3.587   5.776  19.656  0.00  0.00    +0.000 A 
ATOM      5  C   UNL     1       4.702   5.069  19.241  0.00  0.00    +0.000 A 
ATOM      6  C   UNL     1       4.748   3.680  19.387  0.00  0.00    +0.000 A 
ATOM      7  C   UNL     1       3.691   3.000  19.992  0.00  0.00    +0.000 A 
BRANCH   2   9
ATOM      8  N   UNL     1       1.394   2.507  22.160  0.00  0.00    +0.000 NA
ATOM      9  C   UNL     1       1.382   2.937  20.935  0.00  0.00    +0.000 C 
ATOM     10  N   UNL     1       0.282   2.695  20.176  0.00  0.00    +0.000 N 
ATOM     11  H   UNL     1       0.496   2.028  22.319  0.00  0.00    +0.000 HD
ATOM     12  H   UNL     1      -0.536   2.237  20.555  0.00  0.00    +0.000 HD
ATOM     13  H   UNL     1       0.223   2.970  19.206  0.00  0.00    +0.000 HD
ENDBRANCH   2   9
ENDBRANCH   1   5
BRANCH   1  14
ATOM     14  C   UNL     1       5.942   5.578  17.299  0.00  0.00    +0.000 A 
ATOM     15  C   UNL     1       7.110   4.861  17.045  0.00  0.00    +0.000 A 
ATOM     16  C   UNL     1       7.450   4.538  15.734  0.00  0.00    +0.000 A 
ATOM     17  C   UNL     1       6.616   4.938  14.683  0.00  0.00    +0.000 A 
ATOM     18  C   UNL     1       5.453   5.670  14.939  0.00  0.00    +0.000 A 
ATOM     19  C   UNL     1       5.099   5.962  16.253  0.00  0.00    +0.000 A 
BRANCH  17  20
ATOM     20  C   UNL     1       6.966   4.562  13.291  0.00  0.00    +0.000 C 
ATOM     21  N   UNL     1       6.501   3.498  12.718  0.00  0.00    +0.000 NA
ATOM     22  N   UNL     1       7.809   5.336  12.558  0.00  0.00    +0.000 N 
ATOM     23  H   UNL     1       5.926   2.945  13.360  0.00  0.00    +0.000 HD
ATOM     24  H   UNL     1       7.717   6.337  12.682  0.00  0.00    +0.000 HD
ATOM     25  H   UNL     1       7.796   5.057  11.581  0.00  0.00    +0.000 HD
ENDBRANCH  17  20
ENDBRANCH   1  14
TORSDOF 4
ENDMDL
MODEL 4
REMARK VINA RESULT:      -7.1      5.009      7.374
REMARK  Name = 
REMARK  4 active torsions:
REMARK  status: ('A' for Active; 'I' for Inactive)
REMARK    1  A    between atoms: C_2  and  C_4
REMARK    2  A    between atoms: C_7  and  O_8
REMARK    3  A    between atoms: O_8  and  C_9
REMARK    4  A    between atoms: C_12  and  C_13
REMARK                            x       y       z     vdW  Elec       q    Type
REMARK                         _______ _______ _______ _____ _____    ______ ____
ROOT
ATOM      1  O   UNL     1       2.315   7.753  20.151  0.00  0.00    +0.000 OA
ENDROOT
BRANCH   1   5
ATOM      2  C   UNL     1      -0.422  10.707  19.086  0.00  0.00    +0.000 A 
ATOM      3  C   UNL     1      -0.375  10.149  20.371  0.00  0.00    +0.000 A 
ATOM      4  C   UNL     1       0.516   9.129  20.687  0.00  0.00    +0.000 A 
ATOM      5  C   UNL     1       1.409   8.688  19.726  0.00  0.00    +0.000 A 
ATOM      6  C   UNL     1       1.402   9.255  18.448  0.00  0.00    +0.000 A 
ATOM      7  C   UNL     1       0.467  10.237  18.119  0.00  0.00    +0.000 A 
BRANCH   2   9
ATOM      8  N   UNL     1      -2.101  12.361  19.660  0.00  0.00    +0.000 NA
ATOM      9  C   UNL     1      -1.340  11.839  18.746  0.00  0.00    +0.000 C 
ATOM     10  N   UNL     1      -1.388  12.358  17.492  0.00  0.00    +0.000 N 
ATOM     11  H   UNL     1      -2.631  13.121  19.212  0.00  0.00    +0.000 HD
ATOM     12  H   UNL     1      -1.960  13.162  17.271  0.00  0.00    +0.000 HD
ATOM     13  H   UNL     1      -0.850  11.975  16.728  0.00  0.00    +0.000 HD
ENDBRANCH   2   9
ENDBRANCH   1   5
BRANCH   1  14
ATOM     14  C   UNL     1       2.199   6.465  19.697  0.00  0.00    +0.000 A 
ATOM     15  C   UNL     1       1.648   5.559  20.601  0.00  0.00    +0.000 A 
ATOM     16  C   UNL     1       1.454   4.234  20.217  0.00  0.00    +0.000 A 
ATOM     17  C   UNL     1       1.815   3.825  18.928  0.00  0.00    +0.000 A 
ATOM     18  C   UNL     1       2.381   4.733  18.028  0.00  0.00    +0.000 A 
ATOM     19  C   UNL     1       2.542   6.064  18.403  0.00  0.00    +0.000 A 
BRANCH  17  20
ATOM     20  C   UNL     1       1.574   2.422  18.514  0.00  0.00    +0.000 C 
ATOM     21  N   UNL     1       0.390   1.899  18.475  0.00  0.00    +0.000 NA
ATOM     22  N   UNL     1       2.612   1.619  18.158  0.00  0.00    +0.000 N 
ATOM     23  H   UNL     1      -0.321   2.551  18.815  0.00  0.00    +0.000 HD
ATOM     24  H   UNL     1       3.358   2.060  17.633  0.00  0.00    +0.000 HD
ATOM     25  H   UNL     1       2.274   0.765  17.722  0.00  0.00    +0.000 HD
ENDBRANCH  17  20
ENDBRANCH   1  14
TORSDOF 4
ENDMDL
MODEL 5
REMARK VINA RESULT:      -7.1      4.168      7.356
REMARK  Name = 
REMARK  4 active torsions:
REMARK  status: ('A' for Active; 'I' for Inactive)
REMARK    1  A    between atoms: C_2  and  C_4
REMARK    2  A    between atoms: C_7  and  O_8
REMARK    3  A    between atoms: O_8  and  C_9
REMARK    4  A    between atoms: C_12  and  C_13
REMARK                            x       y       z     vdW  Elec       q    Type
REMARK                         _______ _______ _______ _____ _____    ______ ____
ROOT
ATOM      1  O   UNL     1       2.549   7.278  18.055  0.00  0.00    +0.000 OA
ENDROOT
BRANCH   1   5
ATOM      2  C   UNL     1       0.709   9.473  21.080  0.00  0.00    +0.000 A 
ATOM      3  C   UNL     1       0.814   9.942  19.764  0.00  0.00    +0.000 A 
ATOM      4  C   UNL     1       1.477   9.211  18.783  0.00  0.00    +0.000 A 
ATOM      5  C   UNL     1       2.002   7.971  19.102  0.00  0.00    +0.000 A 
ATOM      6  C   UNL     1       1.878   7.470  20.401  0.00  0.00    +0.000 A 
ATOM      7  C   UNL     1       1.265   8.232  21.395  0.00  0.00    +0.000 A 
BRANCH   2   9
ATOM      8  N   UNL     1      -0.074  11.522  22.113  0.00  0.00    +0.000 NA
ATOM      9  C   UNL     1      -0.044  10.224  22.132  0.00  0.00    +0.000 C 
ATOM     10  N   UNL     1      -0.724   9.577  23.113  0.00  0.00    +0.000 N 
ATOM     11  H   UNL     1      -0.652  11.821  22.912  0.00  0.00    +0.000 HD
ATOM     12  H   UNL     1      -1.286  10.076  23.789  0.00  0.00    +0.000 HD
ATOM     13  H   UNL     1      -0.712   8.571  23.206  0.00  0.00    +0.000 HD
ENDBRANCH   2   9
ENDBRANCH   1   5
BRANCH   1  14
ATOM     14  C   UNL     1       2.892   5.964  18.238  0.00  0.00    +0.000 A 
ATOM     15  C   UNL     1       4.188   5.742  18.699  0.00  0.00    +0.000 A 
ATOM     16  C   UNL     1       4.616   4.441  18.953  0.00  0.00    +0.000 A 
ATOM     17  C   UNL     1       3.741   3.369  18.741  0.00  0.00    +0.000 A 
ATOM     18  C   UNL     1       2.446   3.594  18.265  0.00  0.00    +0.000 A 
ATOM     19  C   UNL     1       2.010   4.897  18.045  0.00  0.00    +0.000 A 
BRANCH  17  20
ATOM     20  C   UNL     1       4.191   1.989  19.046  0.00  0.00    +0.000 C 
ATOM     21  N   UNL     1       3.836   0.966  18.336  0.00  0.00    +0.000 NA
ATOM     22  N   UNL     1       5.006   1.748  20.108  0.00  0.00    +0.000 N 
ATOM     23  H   UNL     1       3.178   1.230  17.599  0.00  0.00    +0.000 HD
ATOM     24  H   UNL     1       5.720   2.443  20.289  0.00  0.00    +0.000 HD
ATOM     25  H   UNL     1       5.376   0.802  20.070  0.00  0.00    +0.000 HD
ENDBRANCH  17  20
ENDBRANCH   1  14
TORSDOF 4
ENDMDL
MODEL 6
REMARK VINA RESULT:      -7.1      4.947      7.158
REMARK  Name = 
REMARK  4 active torsions:
REMARK  status: ('A' for Active; 'I' for Inactive)
REMARK    1  A    between atoms: C_2  and  C_4
REMARK    2  A    between atoms: C_7  and  O_8
REMARK    3  A    between atoms: O_8  and  C_9
REMARK    4  A    between atoms: C_12  and  C_13
REMARK                            x       y       z     vdW  Elec       q    Type
REMARK                         _______ _______ _______ _____ _____    ______ ____
ROOT
ATOM      1  O   UNL     1       2.299   7.819  20.188  0.00  0.00    +0.000 OA
ENDROOT
BRANCH   1   5
ATOM      2  C   UNL     1       1.820   3.889  18.892  0.00  0.00    +0.000 A 
ATOM      3  C   UNL     1       1.380   4.329  20.147  0.00  0.00    +0.000 A 
ATOM      4  C   UNL     1       1.595   5.635  20.575  0.00  0.00    +0.000 A 
ATOM      5  C   UNL     1       2.217   6.532  19.725  0.00  0.00    +0.000 A 
ATOM      6  C   UNL     1       2.633   6.123  18.455  0.00  0.00    +0.000 A 
ATOM      7  C   UNL     1       2.467   4.798  18.053  0.00  0.00    +0.000 A 
BRANCH   2   9
ATOM      8  N   UNL     1       0.371   1.977  18.538  0.00  0.00    +0.000 NA
ATOM      9  C   UNL     1       1.550   2.503  18.397  0.00  0.00    +0.000 C 
ATOM     10  N   UNL     1       2.513   1.773  17.779  0.00  0.00    +0.000 N 
ATOM     11  H   UNL     1       0.410   1.036  18.121  0.00  0.00    +0.000 HD
ATOM     12  H   UNL     1       2.321   0.861  17.388  0.00  0.00    +0.000 HD
ATOM     13  H   UNL     1       3.460   2.108  17.670  0.00  0.00    +0.000 HD
ENDBRANCH   2   9
ENDBRANCH   1   5
BRANCH   1  14
ATOM     14  C   UNL     1       1.349   8.725  19.796  0.00  0.00    +0.000 A 
ATOM     15  C   UNL     1       1.399   9.104  18.455  0.00  0.00    +0.000 A 
ATOM     16  C   UNL     1       0.450   9.991  17.953  0.00  0.00    +0.000 A 
ATOM     17  C   UNL     1      -0.545  10.495  18.800  0.00  0.00    +0.000 A 
ATOM     18  C   UNL     1      -0.584  10.125  20.147  0.00  0.00    +0.000 A 
ATOM     19  C   UNL     1       0.345   9.212  20.638  0.00  0.00    +0.000 A 
BRANCH  17  20
ATOM     20  C   UNL     1      -1.573  11.413  18.251  0.00  0.00    +0.000 C 
ATOM     21  N   UNL     1      -2.839  11.247  18.462  0.00  0.00    +0.000 NA
ATOM     22  N   UNL     1      -1.211  12.478  17.488  0.00  0.00    +0.000 N 
ATOM     23  H   UNL     1      -3.025  10.392  18.992  0.00  0.00    +0.000 HD
ATOM     24  H   UNL     1      -0.364  12.959  17.766  0.00  0.00    +0.000 HD
ATOM     25  H   UNL     1      -1.996  13.108  17.352  0.00  0.00    +0.000 HD
ENDBRANCH  17  20
ENDBRANCH   1  14
TORSDOF 4
ENDMDL
MODEL 7
REMARK VINA RESULT:      -7.1      4.990      7.337
REMARK  Name = 
REMARK  4 active torsions:
REMARK  status: ('A' for Active; 'I' for Inactive)
REMARK    1  A    between atoms: C_2  and  C_4
REMARK    2  A    between atoms: C_7  and  O_8
REMARK    3  A    between atoms: O_8  and  C_9
REMARK    4  A    between atoms: C_12  and  C_13
REMARK                            x       y       z     vdW  Elec       q    Type
REMARK                         _______ _______ _______ _____ _____    ______ ____
ROOT
ATOM      1  O   UNL     1       2.433   7.728  19.941  0.00  0.00    +0.000 OA
ENDROOT
BRANCH   1   5
ATOM      2  C   UNL     1      -0.321  10.730  19.072  0.00  0.00    +0.000 A 
ATOM      3  C   UNL     1      -0.196  10.167  20.349  0.00  0.00    +0.000 A 
ATOM      4  C   UNL     1       0.698   9.132  20.601  0.00  0.00    +0.000 A 
ATOM      5  C   UNL     1       1.515   8.679  19.580  0.00  0.00    +0.000 A 
ATOM      6  C   UNL     1       1.430   9.250  18.307  0.00  0.00    +0.000 A 
ATOM      7  C   UNL     1       0.491  10.248  18.044  0.00  0.00    +0.000 A 
BRANCH   2   9
ATOM      8  N   UNL     1      -1.946  12.395  19.758  0.00  0.00    +0.000 NA
ATOM      9  C   UNL     1      -1.241  11.878  18.798  0.00  0.00    +0.000 C 
ATOM     10  N   UNL     1      -1.348  12.417  17.556  0.00  0.00    +0.000 N 
ATOM     11  H   UNL     1      -2.489  13.168  19.350  0.00  0.00    +0.000 HD
ATOM     12  H   UNL     1      -1.920  13.231  17.377  0.00  0.00    +0.000 HD
ATOM     13  H   UNL     1      -0.856  12.040  16.758  0.00  0.00    +0.000 HD
ENDBRANCH   2   9
ENDBRANCH   1   5
BRANCH   1  14
ATOM     14  C   UNL     1       2.166   6.413  19.664  0.00  0.00    +0.000 A 
ATOM     15  C   UNL     1       2.449   6.005  18.362  0.00  0.00    +0.000 A 
ATOM     16  C   UNL     1       2.248   4.676  17.996  0.00  0.00    +0.000 A 
ATOM     17  C   UNL     1       1.762   3.763  18.939  0.00  0.00    +0.000 A 
ATOM     18  C   UNL     1       1.465   4.177  20.241  0.00  0.00    +0.000 A 
ATOM     19  C   UNL     1       1.700   5.498  20.613  0.00  0.00    +0.000 A 
BRANCH  17  20
ATOM     20  C   UNL     1       1.583   2.342  18.553  0.00  0.00    +0.000 C 
ATOM     21  N   UNL     1       0.416   1.797  18.419  0.00  0.00    +0.000 NA
ATOM     22  N   UNL     1       2.662   1.547  18.326  0.00  0.00    +0.000 N 
ATOM     23  H   UNL     1      -0.334   2.447  18.667  0.00  0.00    +0.000 HD
ATOM     24  H   UNL     1       3.449   1.984  17.860  0.00  0.00    +0.000 HD
ATOM     25  H   UNL     1       2.381   0.673  17.890  0.00  0.00    +0.000 HD
ENDBRANCH  17  20
ENDBRANCH   1  14
TORSDOF 4
ENDMDL
MODEL 8
REMARK VINA RESULT:      -7.1      4.256      7.385
REMARK  Name = 
REMARK  4 active torsions:
REMARK  status: ('A' for Active; 'I' for Inactive)
REMARK    1  A    between atoms: C_2  and  C_4
REMARK    2  A    between atoms: C_7  and  O_8
REMARK    3  A    between atoms: O_8  and  C_9
REMARK    4  A    between atoms: C_12  and  C_13
REMARK                            x       y       z     vdW  Elec       q    Type
REMARK                         _______ _______ _______ _____ _____    ______ ____
ROOT
ATOM      1  O   UNL     1       2.514   7.430  17.991  0.00  0.00    +0.000 OA
ENDROOT
BRANCH   1   5
ATOM      2  C   UNL     1       0.609   9.641  20.963  0.00  0.00    +0.000 A 
ATOM      3  C   UNL     1       0.693  10.078  19.634  0.00  0.00    +0.000 A 
ATOM      4  C   UNL     1       1.377   9.343  18.671  0.00  0.00    +0.000 A 
ATOM      5  C   UNL     1       1.947   8.132  19.022  0.00  0.00    +0.000 A 
ATOM      6  C   UNL     1       1.846   7.662  20.334  0.00  0.00    +0.000 A 
ATOM      7  C   UNL     1       1.209   8.430  21.310  0.00  0.00    +0.000 A 
BRANCH   2   9
ATOM      8  N   UNL     1      -0.023  10.111  23.257  0.00  0.00    +0.000 NA
ATOM      9  C   UNL     1      -0.166  10.394  21.998  0.00  0.00    +0.000 C 
ATOM     10  N   UNL     1      -1.017  11.395  21.654  0.00  0.00    +0.000 N 
ATOM     11  H   UNL     1      -0.634  10.753  23.781  0.00  0.00    +0.000 HD
ATOM     12  H   UNL     1      -1.496  11.949  22.351  0.00  0.00    +0.000 HD
ATOM     13  H   UNL     1      -1.201  11.642  20.692  0.00  0.00    +0.000 HD
ENDBRANCH   2   9
ENDBRANCH   1   5
BRANCH   1  14
ATOM     14  C   UNL     1       2.855   6.118  18.193  0.00  0.00    +0.000 A 
ATOM     15  C   UNL     1       4.153   5.900  18.649  0.00  0.00    +0.000 A 
ATOM     16  C   UNL     1       4.580   4.602  18.920  0.00  0.00    +0.000 A 
ATOM     17  C   UNL     1       3.700   3.529  18.732  0.00  0.00    +0.000 A 
ATOM     18  C   UNL     1       2.403   3.750  18.261  0.00  0.00    +0.000 A 
ATOM     19  C   UNL     1       1.969   5.050  18.023  0.00  0.00    +0.000 A 
BRANCH  17  20
ATOM     20  C   UNL     1       4.149   2.153  19.056  0.00  0.00    +0.000 C 
ATOM     21  N   UNL     1       4.937   1.892  20.050  0.00  0.00    +0.000 NA
ATOM     22  N   UNL     1       3.743   1.098  18.300  0.00  0.00    +0.000 N 
ATOM     23  H   UNL     1       5.240   2.746  20.525  0.00  0.00    +0.000 HD
ATOM     24  H   UNL     1       2.788   1.131  17.965  0.00  0.00    +0.000 HD
ATOM     25  H   UNL     1       3.973   0.220  18.755  0.00  0.00    +0.000 HD
ENDBRANCH  17  20
ENDBRANCH   1  14
TORSDOF 4
ENDMDL
MODEL 9
REMARK VINA RESULT:      -7.1      0.661      7.273
REMARK  Name = 
REMARK  4 active torsions:
REMARK  status: ('A' for Active; 'I' for Inactive)
REMARK    1  A    between atoms: C_2  and  C_4
REMARK    2  A    between atoms: C_7  and  O_8
REMARK    3  A    between atoms: O_8  and  C_9
REMARK    4  A    between atoms: C_12  and  C_13
REMARK                            x       y       z     vdW  Elec       q    Type
REMARK                         _______ _______ _______ _____ _____    ______ ____
ROOT
ATOM      1  O   UNL     1       5.696   5.611  17.998  0.00  0.00    +0.000 OA
ENDROOT
BRANCH   1   5
ATOM      2  C   UNL     1       2.698   3.798  20.251  0.00  0.00    +0.000 A 
ATOM      3  C   UNL     1       2.638   5.141  19.856  0.00  0.00    +0.000 A 
ATOM      4  C   UNL     1       3.675   5.736  19.145  0.00  0.00    +0.000 A 
ATOM      5  C   UNL     1       4.770   4.972  18.779  0.00  0.00    +0.000 A 
ATOM      6  C   UNL     1       4.834   3.622  19.134  0.00  0.00    +0.000 A 
ATOM      7  C   UNL     1       3.818   3.045  19.897  0.00  0.00    +0.000 A 
BRANCH   2   9
ATOM      8  N   UNL     1       0.395   3.054  20.417  0.00  0.00    +0.000 NA
ATOM      9  C   UNL     1       1.568   3.132  20.970  0.00  0.00    +0.000 C 
ATOM     10  N   UNL     1       1.739   2.580  22.199  0.00  0.00    +0.000 N 
ATOM     11  H   UNL     1      -0.216   2.552  21.077  0.00  0.00    +0.000 HD
ATOM     12  H   UNL     1       0.997   2.075  22.664  0.00  0.00    +0.000 HD
ATOM     13  H   UNL     1       2.615   2.638  22.700  0.00  0.00    +0.000 HD
ENDBRANCH   2   9
ENDBRANCH   1   5
BRANCH   1  14
ATOM     14  C   UNL     1       5.855   5.209  16.698  0.00  0.00    +0.000 A 
ATOM     15  C   UNL     1       7.158   5.270  16.207  0.00  0.00    +0.000 A 
ATOM     16  C   UNL     1       7.426   4.845  14.908  0.00  0.00    +0.000 A 
ATOM     17  C   UNL     1       6.384   4.360  14.108  0.00  0.00    +0.000 A 
ATOM     18  C   UNL     1       5.076   4.313  14.598  0.00  0.00    +0.000 A 
ATOM     19  C   UNL     1       4.817   4.707  15.907  0.00  0.00    +0.000 A 
BRANCH  17  20
ATOM     20  C   UNL     1       6.683   3.877  12.737  0.00  0.00    +0.000 C 
ATOM     21  N   UNL     1       7.400   4.554  11.899  0.00  0.00    +0.000 NA
ATOM     22  N   UNL     1       6.198   2.682  12.306  0.00  0.00    +0.000 N 
ATOM     23  H   UNL     1       7.671   5.462  12.283  0.00  0.00    +0.000 HD
ATOM     24  H   UNL     1       6.178   1.935  12.991  0.00  0.00    +0.000 HD
ATOM     25  H   UNL     1       6.641   2.407  11.434  0.00  0.00    +0.000 HD
ENDBRANCH  17  20
ENDBRANCH   1  14
TORSDOF 4
ENDMDL
