MODEL 1
REMARK VINA RESULT:      -8.0      0.000      0.000
REMARK  Name = 
REMARK  3 active torsions:
REMARK  status: ('A' for Active; 'I' for Inactive)
REMARK    1  A    between atoms: C_1  and  C_2
REMARK    2  A    between atoms: C_5  and  C_6
REMARK    3  A    between atoms: N_8  and  C_9
REMARK                            x       y       z     vdW  Elec       q    Type
REMARK                         _______ _______ _______ _____ _____    ______ ____
ROOT
ATOM      1  C   UNL     1       1.580   8.728  19.040  0.00  0.00    +0.000 C 
ATOM      2  O   UNL     1       1.603   9.160  17.889  0.00  0.00    +0.000 OA
ATOM      3  N   UNL     1       2.148   7.537  19.469  0.00  0.00    +0.000 N 
ATOM      4  H   UNL     1       1.878   7.193  20.381  0.00  0.00    +0.000 HD
ENDROOT
BRANCH   3   5
ATOM      5  C   UNL     1       2.868   6.645  18.632  0.00  0.00    +0.000 A 
ATOM      6  C   UNL     1       2.362   5.393  18.250  0.00  0.00    +0.000 A 
ATOM      7  C   UNL     1       3.121   4.501  17.489  0.00  0.00    +0.000 A 
ATOM      8  C   UNL     1       4.398   4.864  17.087  0.00  0.00    +0.000 A 
ATOM      9  C   UNL     1       4.907   6.125  17.426  0.00  0.00    +0.000 A 
ATOM     10  C   UNL     1       4.143   7.022  18.186  0.00  0.00    +0.000 A 
ATOM     11  C   UNL     1       6.302   6.409  16.961  0.00  0.00    +0.000 C 
ATOM     12  S   UNL     1       6.651   5.041  15.859  0.00  0.00    +0.000 S 
ATOM     13  O   UNL     1       6.445   5.487  14.494  0.00  0.00    +0.000 OA
ATOM     14  O   UNL     1       7.900   4.424  16.264  0.00  0.00    +0.000 OA
ATOM     15  C   UNL     1       5.303   3.959  16.314  0.00  0.00    +0.000 C 
ENDBRANCH   3   5
BRANCH   1  20
ATOM     16  C   UNL     1      -1.495  11.536  23.080  0.00  0.00    +0.000 C 
ATOM     17  C   UNL     1      -0.695  10.828  22.025  0.00  0.00    +0.000 A 
ATOM     18  C   UNL     1       0.133   9.755  22.361  0.00  0.00    +0.000 A 
ATOM     19  C   UNL     1       0.868   9.101  21.372  0.00  0.00    +0.000 A 
ATOM     20  C   UNL     1       0.796   9.512  20.032  0.00  0.00    +0.000 A 
ATOM     21  C   UNL     1      -0.037  10.579  19.686  0.00  0.00    +0.000 A 
ATOM     22  C   UNL     1      -0.776  11.233  20.683  0.00  0.00    +0.000 A 
ENDBRANCH   1  20
TORSDOF 2
ENDMDL
MODEL 2
REMARK VINA RESULT:      -8.0      1.023      1.050
REMARK  Name = 
REMARK  3 active torsions:
REMARK  status: ('A' for Active; 'I' for Inactive)
REMARK    1  A    between atoms: C_1  and  C_2
REMARK    2  A    between atoms: C_5  and  C_6
REMARK    3  A    between atoms: N_8  and  C_9
REMARK                            x       y       z     vdW  Elec       q    Type
REMARK                         _______ _______ _______ _____ _____    ______ ____
ROOT
ATOM      1  C   UNL     1       1.554   7.768  20.326  0.00  0.00    +0.000 C 
ATOM      2  O   UNL     1       1.756   6.803  21.061  0.00  0.00    +0.000 OA
ATOM      3  N   UNL     1       2.014   7.905  19.025  0.00  0.00    +0.000 N 
ATOM      4  H   UNL     1       1.965   8.825  18.607  0.00  0.00    +0.000 HD
ENDROOT
BRANCH   3   5
ATOM      5  C   UNL     1       2.777   6.925  18.337  0.00  0.00    +0.000 A 
ATOM      6  C   UNL     1       2.295   5.631  18.086  0.00  0.00    +0.000 A 
ATOM      7  C   UNL     1       3.093   4.662  17.475  0.00  0.00    +0.000 A 
ATOM      8  C   UNL     1       4.386   4.986  17.094  0.00  0.00    +0.000 A 
ATOM      9  C   UNL     1       4.873   6.283  17.301  0.00  0.00    +0.000 A 
ATOM     10  C   UNL     1       4.070   7.257  17.909  0.00  0.00    +0.000 A 
ATOM     11  C   UNL     1       6.288   6.522  16.872  0.00  0.00    +0.000 C 
ATOM     12  S   UNL     1       6.695   5.034  15.962  0.00  0.00    +0.000 S 
ATOM     13  O   UNL     1       6.553   5.309  14.544  0.00  0.00    +0.000 OA
ATOM     14  O   UNL     1       7.926   4.483  16.497  0.00  0.00    +0.000 OA
ATOM     15  C   UNL     1       5.330   4.002  16.480  0.00  0.00    +0.000 C 
ENDBRANCH   3   5
BRANCH   1  20
ATOM     16  C   UNL     1      -1.384  12.074  22.874  0.00  0.00    +0.000 C 
ATOM     17  C   UNL     1      -0.614  10.973  22.203  0.00  0.00    +0.000 A 
ATOM     18  C   UNL     1      -0.148   9.881  22.937  0.00  0.00    +0.000 A 
ATOM     19  C   UNL     1       0.562   8.862  22.302  0.00  0.00    +0.000 A 
ATOM     20  C   UNL     1       0.828   8.921  20.925  0.00  0.00    +0.000 A 
ATOM     21  C   UNL     1       0.358  10.007  20.181  0.00  0.00    +0.000 A 
ATOM     22  C   UNL     1      -0.357  11.028  20.823  0.00  0.00    +0.000 A 
ENDBRANCH   1  20
TORSDOF 2
ENDMDL
MODEL 3
REMARK VINA RESULT:      -8.0      0.230      1.069
REMARK  Name = 
REMARK  3 active torsions:
REMARK  status: ('A' for Active; 'I' for Inactive)
REMARK    1  A    between atoms: C_1  and  C_2
REMARK    2  A    between atoms: C_5  and  C_6
REMARK    3  A    between atoms: N_8  and  C_9
REMARK                            x       y       z     vdW  Elec       q    Type
REMARK                         _______ _______ _______ _____ _____    ______ ____
ROOT
ATOM      1  C   UNL     1       1.605   8.531  19.264  0.00  0.00    +0.000 C 
ATOM      2  O   UNL     1       1.678   9.058  18.155  0.00  0.00    +0.000 OA
ATOM      3  N   UNL     1       2.131   7.296  19.610  0.00  0.00    +0.000 N 
ATOM      4  H   UNL     1       1.822   6.883  20.480  0.00  0.00    +0.000 HD
ENDROOT
BRANCH   3   5
ATOM      5  C   UNL     1       2.861   6.458  18.725  0.00  0.00    +0.000 A 
ATOM      6  C   UNL     1       2.356   5.238  18.251  0.00  0.00    +0.000 A 
ATOM      7  C   UNL     1       3.123   4.397  17.442  0.00  0.00    +0.000 A 
ATOM      8  C   UNL     1       4.407   4.780  17.086  0.00  0.00    +0.000 A 
ATOM      9  C   UNL     1       4.916   6.012  17.518  0.00  0.00    +0.000 A 
ATOM     10  C   UNL     1       4.143   6.859  18.325  0.00  0.00    +0.000 A 
ATOM     11  C   UNL     1       6.319   6.320  17.095  0.00  0.00    +0.000 C 
ATOM     12  S   UNL     1       6.679   5.028  15.908  0.00  0.00    +0.000 S 
ATOM     13  O   UNL     1       6.497   5.567  14.573  0.00  0.00    +0.000 OA
ATOM     14  O   UNL     1       7.920   4.379  16.289  0.00  0.00    +0.000 OA
ATOM     15  C   UNL     1       5.320   3.925  16.267  0.00  0.00    +0.000 C 
ENDBRANCH   3   5
BRANCH   1  20
ATOM     16  C   UNL     1      -1.454  11.596  23.126  0.00  0.00    +0.000 C 
ATOM     17  C   UNL     1      -0.671  10.785  22.135  0.00  0.00    +0.000 A 
ATOM     18  C   UNL     1      -0.520  11.223  20.818  0.00  0.00    +0.000 A 
ATOM     19  C   UNL     1       0.214  10.464  19.906  0.00  0.00    +0.000 A 
ATOM     20  C   UNL     1       0.803   9.250  20.292  0.00  0.00    +0.000 A 
ATOM     21  C   UNL     1       0.665   8.809  21.610  0.00  0.00    +0.000 A 
ATOM     22  C   UNL     1      -0.073   9.575  22.523  0.00  0.00    +0.000 A 
ENDBRANCH   1  20
TORSDOF 2
ENDMDL
MODEL 4
REMARK VINA RESULT:      -7.9      1.075      1.477
REMARK  Name = 
REMARK  3 active torsions:
REMARK  status: ('A' for Active; 'I' for Inactive)
REMARK    1  A    between atoms: C_1  and  C_2
REMARK    2  A    between atoms: C_5  and  C_6
REMARK    3  A    between atoms: N_8  and  C_9
REMARK                            x       y       z     vdW  Elec       q    Type
REMARK                         _______ _______ _______ _____ _____    ______ ____
ROOT
ATOM      1  C   UNL     1       1.511   7.706  20.399  0.00  0.00    +0.000 C 
ATOM      2  O   UNL     1       1.655   6.699  21.090  0.00  0.00    +0.000 OA
ATOM      3  N   UNL     1       2.022   7.892  19.123  0.00  0.00    +0.000 N 
ATOM      4  H   UNL     1       2.018   8.833  18.751  0.00  0.00    +0.000 HD
ENDROOT
BRANCH   3   5
ATOM      5  C   UNL     1       2.778   6.922  18.412  0.00  0.00    +0.000 A 
ATOM      6  C   UNL     1       2.287   5.637  18.135  0.00  0.00    +0.000 A 
ATOM      7  C   UNL     1       3.077   4.676  17.501  0.00  0.00    +0.000 A 
ATOM      8  C   UNL     1       4.372   5.000  17.124  0.00  0.00    +0.000 A 
ATOM      9  C   UNL     1       4.867   6.290  17.357  0.00  0.00    +0.000 A 
ATOM     10  C   UNL     1       4.072   7.256  17.989  0.00  0.00    +0.000 A 
ATOM     11  C   UNL     1       6.283   6.529  16.930  0.00  0.00    +0.000 C 
ATOM     12  S   UNL     1       6.678   5.059  15.987  0.00  0.00    +0.000 S 
ATOM     13  O   UNL     1       6.535   5.365  14.576  0.00  0.00    +0.000 OA
ATOM     14  O   UNL     1       7.907   4.488  16.507  0.00  0.00    +0.000 OA
ATOM     15  C   UNL     1       5.308   4.024  16.486  0.00  0.00    +0.000 C 
ENDBRANCH   3   5
BRANCH   1  20
ATOM     16  C   UNL     1      -1.080  12.362  22.695  0.00  0.00    +0.000 C 
ATOM     17  C   UNL     1      -0.424  11.144  22.109  0.00  0.00    +0.000 A 
ATOM     18  C   UNL     1       0.113  11.176  20.821  0.00  0.00    +0.000 A 
ATOM     19  C   UNL     1       0.725  10.040  20.289  0.00  0.00    +0.000 A 
ATOM     20  C   UNL     1       0.802   8.851  21.030  0.00  0.00    +0.000 A 
ATOM     21  C   UNL     1       0.275   8.814  22.323  0.00  0.00    +0.000 A 
ATOM     22  C   UNL     1      -0.338   9.958  22.855  0.00  0.00    +0.000 A 
ENDBRANCH   1  20
TORSDOF 2
ENDMDL
MODEL 5
REMARK VINA RESULT:      -7.6      0.958      1.384
REMARK  Name = 
REMARK  3 active torsions:
REMARK  status: ('A' for Active; 'I' for Inactive)
REMARK    1  A    between atoms: C_1  and  C_2
REMARK    2  A    between atoms: C_5  and  C_6
REMARK    3  A    between atoms: N_8  and  C_9
REMARK                            x       y       z     vdW  Elec       q    Type
REMARK                         _______ _______ _______ _____ _____    ______ ____
ROOT
ATOM      1  C   UNL     1       1.655   9.117  18.438  0.00  0.00    +0.000 C 
ATOM      2  O   UNL     1       2.083   9.565  17.376  0.00  0.00    +0.000 OA
ATOM      3  N   UNL     1       1.903   7.848  18.940  0.00  0.00    +0.000 N 
ATOM      4  H   UNL     1       1.326   7.529  19.707  0.00  0.00    +0.000 HD
ENDROOT
BRANCH   3   5
ATOM      5  C   UNL     1       2.717   6.877  18.299  0.00  0.00    +0.000 A 
ATOM      6  C   UNL     1       2.297   5.553  18.098  0.00  0.00    +0.000 A 
ATOM      7  C   UNL     1       3.144   4.597  17.534  0.00  0.00    +0.000 A 
ATOM      8  C   UNL     1       4.425   4.965  17.150  0.00  0.00    +0.000 A 
ATOM      9  C   UNL     1       4.850   6.291  17.308  0.00  0.00    +0.000 A 
ATOM     10  C   UNL     1       3.998   7.251  17.869  0.00  0.00    +0.000 A 
ATOM     11  C   UNL     1       6.258   6.577  16.882  0.00  0.00    +0.000 C 
ATOM     12  S   UNL     1       6.740   5.073  16.036  0.00  0.00    +0.000 S 
ATOM     13  O   UNL     1       6.601   5.284  14.607  0.00  0.00    +0.000 OA
ATOM     14  O   UNL     1       7.990   4.601  16.604  0.00  0.00    +0.000 OA
ATOM     15  C   UNL     1       5.419   4.002  16.585  0.00  0.00    +0.000 C 
ENDBRANCH   3   5
BRANCH   1  20
ATOM     16  C   UNL     1      -2.104  12.614  21.141  0.00  0.00    +0.000 C 
ATOM     17  C   UNL     1      -1.126  11.699  20.460  0.00  0.00    +0.000 A 
ATOM     18  C   UNL     1      -1.412  11.162  19.204  0.00  0.00    +0.000 A 
ATOM     19  C   UNL     1      -0.494  10.318  18.578  0.00  0.00    +0.000 A 
ATOM     20  C   UNL     1       0.720   9.988  19.200  0.00  0.00    +0.000 A 
ATOM     21  C   UNL     1       1.018  10.529  20.453  0.00  0.00    +0.000 A 
ATOM     22  C   UNL     1       0.093  11.379  21.078  0.00  0.00    +0.000 A 
ENDBRANCH   1  20
TORSDOF 2
ENDMDL
MODEL 6
REMARK VINA RESULT:      -7.5      1.003      1.502
REMARK  Name = 
REMARK  3 active torsions:
REMARK  status: ('A' for Active; 'I' for Inactive)
REMARK    1  A    between atoms: C_1  and  C_2
REMARK    2  A    between atoms: C_5  and  C_6
REMARK    3  A    between atoms: N_8  and  C_9
REMARK                            x       y       z     vdW  Elec       q    Type
REMARK                         _______ _______ _______ _____ _____    ______ ____
ROOT
ATOM      1  C   UNL     1       1.905   8.141  19.420  0.00  0.00    +0.000 C 
ATOM      2  O   UNL     1       1.852   8.535  18.256  0.00  0.00    +0.000 OA
ATOM      3  N   UNL     1       2.615   7.038  19.870  0.00  0.00    +0.000 N 
ATOM      4  H   UNL     1       2.406   6.696  20.799  0.00  0.00    +0.000 HD
ENDROOT
BRANCH   3   5
ATOM      5  C   UNL     1       3.414   6.206  19.042  0.00  0.00    +0.000 A 
ATOM      6  C   UNL     1       3.793   4.908  19.417  0.00  0.00    +0.000 A 
ATOM      7  C   UNL     1       4.643   4.138  18.620  0.00  0.00    +0.000 A 
ATOM      8  C   UNL     1       5.112   4.659  17.424  0.00  0.00    +0.000 A 
ATOM      9  C   UNL     1       4.714   5.939  17.013  0.00  0.00    +0.000 A 
ATOM     10  C   UNL     1       3.857   6.709  17.811  0.00  0.00    +0.000 A 
ATOM     11  C   UNL     1       5.294   6.415  15.717  0.00  0.00    +0.000 C 
ATOM     12  S   UNL     1       6.079   4.946  15.058  0.00  0.00    +0.000 S 
ATOM     13  O   UNL     1       5.190   4.351  14.077  0.00  0.00    +0.000 OA
ATOM     14  O   UNL     1       7.455   5.263  14.725  0.00  0.00    +0.000 OA
ATOM     15  C   UNL     1       6.063   3.931  16.529  0.00  0.00    +0.000 C 
ENDBRANCH   3   5
BRANCH   1  20
ATOM     16  C   UNL     1      -1.388  11.206  23.084  0.00  0.00    +0.000 C 
ATOM     17  C   UNL     1      -0.540  10.395  22.147  0.00  0.00    +0.000 A 
ATOM     18  C   UNL     1      -0.551  10.653  20.775  0.00  0.00    +0.000 A 
ATOM     19  C   UNL     1       0.245   9.897  19.913  0.00  0.00    +0.000 A 
ATOM     20  C   UNL     1       1.058   8.864  20.406  0.00  0.00    +0.000 A 
ATOM     21  C   UNL     1       1.081   8.606  21.779  0.00  0.00    +0.000 A 
ATOM     22  C   UNL     1       0.281   9.370  22.642  0.00  0.00    +0.000 A 
ENDBRANCH   1  20
TORSDOF 2
ENDMDL
MODEL 7
REMARK VINA RESULT:      -7.3      2.550      3.160
REMARK  Name = 
REMARK  3 active torsions:
REMARK  status: ('A' for Active; 'I' for Inactive)
REMARK    1  A    between atoms: C_1  and  C_2
REMARK    2  A    between atoms: C_5  and  C_6
REMARK    3  A    between atoms: N_8  and  C_9
REMARK                            x       y       z     vdW  Elec       q    Type
REMARK                         _______ _______ _______ _____ _____    ______ ____
ROOT
ATOM      1  C   UNL     1       0.943   9.042  20.188  0.00  0.00    +0.000 C 
ATOM      2  O   UNL     1       1.119   9.335  19.008  0.00  0.00    +0.000 OA
ATOM      3  N   UNL     1       1.392   7.886  20.811  0.00  0.00    +0.000 N 
ATOM      4  H   UNL     1       1.002   7.662  21.717  0.00  0.00    +0.000 HD
ENDROOT
BRANCH   3   5
ATOM      5  C   UNL     1       2.151   6.872  20.168  0.00  0.00    +0.000 A 
ATOM      6  C   UNL     1       2.991   7.136  19.075  0.00  0.00    +0.000 A 
ATOM      7  C   UNL     1       3.668   6.110  18.413  0.00  0.00    +0.000 A 
ATOM      8  C   UNL     1       3.520   4.803  18.851  0.00  0.00    +0.000 A 
ATOM      9  C   UNL     1       2.717   4.523  19.964  0.00  0.00    +0.000 A 
ATOM     10  C   UNL     1       2.041   5.554  20.632  0.00  0.00    +0.000 A 
ATOM     11  C   UNL     1       2.609   3.078  20.342  0.00  0.00    +0.000 C 
ATOM     12  S   UNL     1       3.854   2.296  19.320  0.00  0.00    +0.000 S 
ATOM     13  O   UNL     1       5.045   2.089  20.123  0.00  0.00    +0.000 OA
ATOM     14  O   UNL     1       3.240   1.198  18.596  0.00  0.00    +0.000 OA
ATOM     15  C   UNL     1       4.165   3.634  18.176  0.00  0.00    +0.000 C 
ENDBRANCH   3   5
BRANCH   1  20
ATOM     16  C   UNL     1      -2.437  12.421  23.478  0.00  0.00    +0.000 C 
ATOM     17  C   UNL     1      -1.554  11.564  22.617  0.00  0.00    +0.000 A 
ATOM     18  C   UNL     1      -0.944  10.422  23.140  0.00  0.00    +0.000 A 
ATOM     19  C   UNL     1      -0.129   9.630  22.330  0.00  0.00    +0.000 A 
ATOM     20  C   UNL     1       0.097   9.969  20.987  0.00  0.00    +0.000 A 
ATOM     21  C   UNL     1      -0.517  11.105  20.454  0.00  0.00    +0.000 A 
ATOM     22  C   UNL     1      -1.336  11.898  21.271  0.00  0.00    +0.000 A 
ENDBRANCH   1  20
TORSDOF 2
ENDMDL
MODEL 8
REMARK VINA RESULT:      -7.3      1.065      1.580
REMARK  Name = 
REMARK  3 active torsions:
REMARK  status: ('A' for Active; 'I' for Inactive)
REMARK    1  A    between atoms: C_1  and  C_2
REMARK    2  A    between atoms: C_5  and  C_6
REMARK    3  A    between atoms: N_8  and  C_9
REMARK                            x       y       z     vdW  Elec       q    Type
REMARK                         _______ _______ _______ _____ _____    ______ ____
ROOT
ATOM      1  C   UNL     1       1.540   8.310  19.808  0.00  0.00    +0.000 C 
ATOM      2  O   UNL     1       1.849   7.594  20.758  0.00  0.00    +0.000 OA
ATOM      3  N   UNL     1       1.928   8.119  18.490  0.00  0.00    +0.000 N 
ATOM      4  H   UNL     1       1.790   8.886  17.846  0.00  0.00    +0.000 HD
ENDROOT
BRANCH   3   5
ATOM      5  C   UNL     1       2.731   7.037  18.039  0.00  0.00    +0.000 A 
ATOM      6  C   UNL     1       2.275   5.710  18.031  0.00  0.00    +0.000 A 
ATOM      7  C   UNL     1       3.110   4.656  17.655  0.00  0.00    +0.000 A 
ATOM      8  C   UNL     1       4.414   4.924  17.268  0.00  0.00    +0.000 A 
ATOM      9  C   UNL     1       4.877   6.246  17.233  0.00  0.00    +0.000 A 
ATOM     10  C   UNL     1       4.037   7.305  17.605  0.00  0.00    +0.000 A 
ATOM     11  C   UNL     1       6.306   6.424  16.821  0.00  0.00    +0.000 C 
ATOM     12  S   UNL     1       6.767   4.794  16.240  0.00  0.00    +0.000 S 
ATOM     13  O   UNL     1       6.683   4.782  14.791  0.00  0.00    +0.000 OA
ATOM     14  O   UNL     1       7.981   4.383  16.921  0.00  0.00    +0.000 OA
ATOM     15  C   UNL     1       5.395   3.858  16.898  0.00  0.00    +0.000 C 
ENDBRANCH   3   5
BRANCH   1  20
ATOM     16  C   UNL     1      -1.415  13.208  20.775  0.00  0.00    +0.000 C 
ATOM     17  C   UNL     1      -0.660  11.931  20.541  0.00  0.00    +0.000 A 
ATOM     18  C   UNL     1      -0.406  11.483  19.243  0.00  0.00    +0.000 A 
ATOM     19  C   UNL     1       0.301  10.298  19.037  0.00  0.00    +0.000 A 
ATOM     20  C   UNL     1       0.757   9.535  20.124  0.00  0.00    +0.000 A 
ATOM     21  C   UNL     1       0.514   9.981  21.425  0.00  0.00    +0.000 A 
ATOM     22  C   UNL     1      -0.195  11.174  21.628  0.00  0.00    +0.000 A 
ENDBRANCH   1  20
TORSDOF 2
ENDMDL
MODEL 9
REMARK VINA RESULT:      -7.2      2.462      3.307
REMARK  Name = 
REMARK  3 active torsions:
REMARK  status: ('A' for Active; 'I' for Inactive)
REMARK    1  A    between atoms: C_1  and  C_2
REMARK    2  A    between atoms: C_5  and  C_6
REMARK    3  A    between atoms: N_8  and  C_9
REMARK                            x       y       z     vdW  Elec       q    Type
REMARK                         _______ _______ _______ _____ _____    ______ ____
ROOT
ATOM      1  C   UNL     1       0.686   9.249  20.215  0.00  0.00    +0.000 C 
ATOM      2  O   UNL     1       0.751   9.532  19.020  0.00  0.00    +0.000 OA
ATOM      3  N   UNL     1       1.228   8.119  20.810  0.00  0.00    +0.000 N 
ATOM      4  H   UNL     1       0.925   7.894  21.748  0.00  0.00    +0.000 HD
ENDROOT
BRANCH   3   5
ATOM      5  C   UNL     1       1.966   7.123  20.116  0.00  0.00    +0.000 A 
ATOM      6  C   UNL     1       2.684   7.396  18.942  0.00  0.00    +0.000 A 
ATOM      7  C   UNL     1       3.339   6.385  18.237  0.00  0.00    +0.000 A 
ATOM      8  C   UNL     1       3.293   5.083  18.713  0.00  0.00    +0.000 A 
ATOM      9  C   UNL     1       2.613   4.797  19.904  0.00  0.00    +0.000 A 
ATOM     10  C   UNL     1       1.960   5.813  20.614  0.00  0.00    +0.000 A 
ATOM     11  C   UNL     1       2.607   3.357  20.318  0.00  0.00    +0.000 C 
ATOM     12  S   UNL     1       3.782   2.605  19.195  0.00  0.00    +0.000 S 
ATOM     13  O   UNL     1       5.052   2.468  19.883  0.00  0.00    +0.000 OA
ATOM     14  O   UNL     1       3.151   1.465  18.556  0.00  0.00    +0.000 OA
ATOM     15  C   UNL     1       3.921   3.928  18.001  0.00  0.00    +0.000 C 
ENDBRANCH   3   5
BRANCH   1  20
ATOM     16  C   UNL     1      -2.357  13.029  23.396  0.00  0.00    +0.000 C 
ATOM     17  C   UNL     1      -1.580  12.034  22.581  0.00  0.00    +0.000 A 
ATOM     18  C   UNL     1      -1.256  12.303  21.250  0.00  0.00    +0.000 A 
ATOM     19  C   UNL     1      -0.530  11.375  20.504  0.00  0.00    +0.000 A 
ATOM     20  C   UNL     1      -0.122  10.158  21.072  0.00  0.00    +0.000 A 
ATOM     21  C   UNL     1      -0.434   9.885  22.406  0.00  0.00    +0.000 A 
ATOM     22  C   UNL     1      -1.163  10.822  23.153  0.00  0.00    +0.000 A 
ENDBRANCH   1  20
TORSDOF 2
ENDMDL
