MODEL 1
REMARK VINA RESULT:      -7.7      0.000      0.000
REMARK  Name = 
REMARK  10 active torsions:
REMARK  status: ('A' for Active; 'I' for Inactive)
REMARK    1  A    between atoms: C_1  and  C_2
REMARK    2  A    between atoms: C_2  and  C_3
REMARK    3  A    between atoms: C_3  and  N_4
REMARK    4  A    between atoms: N_4  and  C_5
REMARK    5  A    between atoms: N_4  and  C_25
REMARK    6  A    between atoms: C_5  and  C_6
REMARK    7  A    between atoms: C_6  and  N_7
REMARK    8  A    between atoms: N_10  and  C_11
REMARK    9  A    between atoms: C_14  and  C_15
REMARK   10  A    between atoms: C_29  and  O_30
REMARK                            x       y       z     vdW  Elec       q    Type
REMARK                         _______ _______ _______ _____ _____    ______ ____
ROOT
ATOM      1  C   UNL     1       4.065   6.274  19.168  0.00  0.00    +0.000 C 
ENDROOT
BRANCH   1   2
ATOM      2  N   UNL     1       2.637   6.207  18.723  0.00  0.00    +0.000 NA
ATOM      3  C   UNL     1       1.693   6.661  19.773  0.00  0.00    +0.000 C 
ATOM      4  C   UNL     1       1.987   8.110  20.186  0.00  0.00    +0.000 C 
ATOM      5  N   UNL     1       1.742   8.984  19.037  0.00  0.00    +0.000 N 
ATOM      6  C   UNL     1       2.365   8.593  17.755  0.00  0.00    +0.000 C 
ATOM      7  C   UNL     1       2.368   7.049  17.531  0.00  0.00    +0.000 C 
BRANCH   5   8
ATOM      8  C   UNL     1       0.610   9.792  19.085  0.00  0.00    +0.000 A 
ATOM      9  C   UNL     1       0.347  10.526  20.241  0.00  0.00    +0.000 A 
ATOM     10  C   UNL     1      -0.857  11.230  20.377  0.00  0.00    +0.000 A 
ATOM     11  C   UNL     1      -1.813  11.264  19.346  0.00  0.00    +0.000 A 
ATOM     12  C   UNL     1      -1.506  10.582  18.168  0.00  0.00    +0.000 A 
ATOM     13  C   UNL     1      -0.310   9.877  18.039  0.00  0.00    +0.000 A 
BRANCH  11  14
ATOM     14  C   UNL     1      -3.077  11.995  19.503  0.00  0.00    +0.000 A 
ATOM     15  C   UNL     1      -3.236  12.941  20.530  0.00  0.00    +0.000 A 
ATOM     16  C   UNL     1      -4.438  13.620  20.710  0.00  0.00    +0.000 A 
ATOM     17  C   UNL     1      -5.508  13.382  19.852  0.00  0.00    +0.000 A 
ATOM     18  C   UNL     1      -5.376  12.462  18.815  0.00  0.00    +0.000 A 
ATOM     19  C   UNL     1      -4.171  11.769  18.647  0.00  0.00    +0.000 A 
ENDBRANCH  11  14
ENDBRANCH   5   8
ENDBRANCH   1   2
BRANCH   1  20
ATOM     20  C   UNL     1       4.989   5.838  18.000  0.00  0.00    +0.000 C 
BRANCH  20  21
ATOM     21  N   UNL     1       5.880   4.672  18.058  0.00  0.00    +0.000 NA
BRANCH  21  22
ATOM     22  C   UNL     1       5.218   3.373  18.440  0.00  0.00    +0.000 C 
ATOM     23  C   UNL     1       4.127   3.093  17.369  0.00  0.00    +0.000 C 
ATOM     24  C   UNL     1       3.116   2.084  17.820  0.00  0.00    +0.000 C 
ATOM     25  C   UNL     1       2.483   2.639  19.057  0.00  0.00    +0.000 A 
ATOM     26  C   UNL     1       1.147   3.002  19.151  0.00  0.00    +0.000 A 
ATOM     27  C   UNL     1       0.520   3.041  20.382  0.00  0.00    +0.000 A 
ATOM     28  C   UNL     1       1.267   2.730  21.518  0.00  0.00    +0.000 A 
ATOM     29  C   UNL     1       2.667   2.639  21.427  0.00  0.00    +0.000 A 
ATOM     30  C   UNL     1       3.294   2.749  20.178  0.00  0.00    +0.000 A 
ATOM     31  C   UNL     1       4.774   3.017  19.950  0.00  0.00    +0.000 C 
BRANCH  26  32
ATOM     32  O   UNL     1       0.470   3.421  18.045  0.00  0.00    +0.000 OA
ATOM     33  H   UNL     1      -0.416   3.683  18.363  0.00  0.00    +0.000 HD
ENDBRANCH  26  32
ENDBRANCH  21  22
BRANCH  21  34
ATOM     34  C   UNL     1       6.636   4.604  16.775  0.00  0.00    +0.000 C 
BRANCH  34  36
ATOM     35  C   UNL     1       5.795   4.379  14.342  0.00  0.00    +0.000 C 
ATOM     36  C   UNL     1       5.998   5.295  15.544  0.00  0.00    +0.000 C 
ENDBRANCH  34  36
ENDBRANCH  21  34
ENDBRANCH  20  21
ENDBRANCH   1  20
TORSDOF 9
ENDMDL
MODEL 2
REMARK VINA RESULT:      -7.6      2.975      5.266
REMARK  Name = 
REMARK  10 active torsions:
REMARK  status: ('A' for Active; 'I' for Inactive)
REMARK    1  A    between atoms: C_1  and  C_2
REMARK    2  A    between atoms: C_2  and  C_3
REMARK    3  A    between atoms: C_3  and  N_4
REMARK    4  A    between atoms: N_4  and  C_5
REMARK    5  A    between atoms: N_4  and  C_25
REMARK    6  A    between atoms: C_5  and  C_6
REMARK    7  A    between atoms: C_6  and  N_7
REMARK    8  A    between atoms: N_10  and  C_11
REMARK    9  A    between atoms: C_14  and  C_15
REMARK   10  A    between atoms: C_29  and  O_30
REMARK                            x       y       z     vdW  Elec       q    Type
REMARK                         _______ _______ _______ _____ _____    ______ ____
ROOT
ATOM      1  C   UNL     1       2.382   7.865  19.590  0.00  0.00    +0.000 C 
ENDROOT
BRANCH   1   2
ATOM      2  N   UNL     1       0.937   8.253  19.539  0.00  0.00    +0.000 NA
ATOM      3  C   UNL     1       0.346   8.421  20.890  0.00  0.00    +0.000 C 
ATOM      4  C   UNL     1       1.094   9.501  21.685  0.00  0.00    +0.000 C 
ATOM      5  N   UNL     1       0.907  10.790  21.015  0.00  0.00    +0.000 N 
ATOM      6  C   UNL     1       1.172  10.832  19.560  0.00  0.00    +0.000 C 
ATOM      7  C   UNL     1       0.712   9.534  18.826  0.00  0.00    +0.000 C 
BRANCH   5   8
ATOM      8  C   UNL     1       0.068  11.710  21.633  0.00  0.00    +0.000 A 
ATOM      9  C   UNL     1       0.234  13.069  21.367  0.00  0.00    +0.000 A 
ATOM     10  C   UNL     1      -0.494  14.028  22.084  0.00  0.00    +0.000 A 
ATOM     11  C   UNL     1      -1.445  13.660  23.053  0.00  0.00    +0.000 A 
ATOM     12  C   UNL     1      -1.651  12.296  23.259  0.00  0.00    +0.000 A 
ATOM     13  C   UNL     1      -0.920  11.345  22.549  0.00  0.00    +0.000 A 
BRANCH  11  14
ATOM     14  C   UNL     1      -2.194  14.674  23.807  0.00  0.00    +0.000 A 
ATOM     15  C   UNL     1      -3.588  14.786  23.669  0.00  0.00    +0.000 A 
ATOM     16  C   UNL     1      -4.308  15.762  24.354  0.00  0.00    +0.000 A 
ATOM     17  C   UNL     1      -3.650  16.638  25.213  0.00  0.00    +0.000 A 
ATOM     18  C   UNL     1      -2.272  16.540  25.383  0.00  0.00    +0.000 A 
ATOM     19  C   UNL     1      -1.549  15.570  24.680  0.00  0.00    +0.000 A 
ENDBRANCH  11  14
ENDBRANCH   5   8
ENDBRANCH   1   2
BRANCH   1  20
ATOM     20  C   UNL     1       2.496   6.326  19.751  0.00  0.00    +0.000 C 
BRANCH  20  21
ATOM     21  N   UNL     1       2.297   5.375  18.650  0.00  0.00    +0.000 NA
BRANCH  21  22
ATOM     22  C   UNL     1       3.527   5.066  17.835  0.00  0.00    +0.000 C 
ATOM     23  C   UNL     1       4.427   4.150  18.711  0.00  0.00    +0.000 C 
ATOM     24  C   UNL     1       5.844   4.096  18.227  0.00  0.00    +0.000 C 
ATOM     25  C   UNL     1       6.360   5.500  18.264  0.00  0.00    +0.000 A 
ATOM     26  C   UNL     1       7.384   5.931  19.095  0.00  0.00    +0.000 A 
ATOM     27  C   UNL     1       8.126   7.050  18.766  0.00  0.00    +0.000 A 
ATOM     28  C   UNL     1       7.805   7.739  17.597  0.00  0.00    +0.000 A 
ATOM     29  C   UNL     1       6.602   7.451  16.927  0.00  0.00    +0.000 A 
ATOM     30  C   UNL     1       5.791   6.398  17.372  0.00  0.00    +0.000 A 
ATOM     31  C   UNL     1       4.333   6.181  16.993  0.00  0.00    +0.000 C 
BRANCH  26  32
ATOM     32  O   UNL     1       7.602   5.317  20.292  0.00  0.00    +0.000 OA
ATOM     33  H   UNL     1       7.777   4.380  20.079  0.00  0.00    +0.000 HD
ENDBRANCH  26  32
ENDBRANCH  21  22
BRANCH  21  34
ATOM     34  C   UNL     1       1.625   4.164  19.201  0.00  0.00    +0.000 C 
BRANCH  34  36
ATOM     35  C   UNL     1       1.876   3.056  21.522  0.00  0.00    +0.000 C 
ATOM     36  C   UNL     1       1.258   4.185  20.706  0.00  0.00    +0.000 C 
ENDBRANCH  34  36
ENDBRANCH  21  34
ENDBRANCH  20  21
ENDBRANCH   1  20
TORSDOF 9
ENDMDL
MODEL 3
REMARK VINA RESULT:      -7.5      2.363      4.939
REMARK  Name = 
REMARK  10 active torsions:
REMARK  status: ('A' for Active; 'I' for Inactive)
REMARK    1  A    between atoms: C_1  and  C_2
REMARK    2  A    between atoms: C_2  and  C_3
REMARK    3  A    between atoms: C_3  and  N_4
REMARK    4  A    between atoms: N_4  and  C_5
REMARK    5  A    between atoms: N_4  and  C_25
REMARK    6  A    between atoms: C_5  and  C_6
REMARK    7  A    between atoms: C_6  and  N_7
REMARK    8  A    between atoms: N_10  and  C_11
REMARK    9  A    between atoms: C_14  and  C_15
REMARK   10  A    between atoms: C_29  and  O_30
REMARK                            x       y       z     vdW  Elec       q    Type
REMARK                         _______ _______ _______ _____ _____    ______ ____
ROOT
ATOM      1  C   UNL     1       1.611   7.998  18.365  0.00  0.00    +0.000 C 
ENDROOT
BRANCH   1   2
ATOM      2  N   UNL     1       2.016   9.147  19.234  0.00  0.00    +0.000 NA
ATOM      3  C   UNL     1       1.409  10.430  18.800  0.00  0.00    +0.000 C 
ATOM      4  C   UNL     1      -0.124  10.345  18.820  0.00  0.00    +0.000 C 
ATOM      5  N   UNL     1      -0.564  10.153  20.203  0.00  0.00    +0.000 N 
ATOM      6  C   UNL     1       0.100   9.080  20.974  0.00  0.00    +0.000 C 
ATOM      7  C   UNL     1       1.622   8.960  20.652  0.00  0.00    +0.000 C 
BRANCH   5   8
ATOM      8  C   UNL     1      -1.176  11.234  20.830  0.00  0.00    +0.000 A 
ATOM      9  C   UNL     1      -1.089  11.354  22.216  0.00  0.00    +0.000 A 
ATOM     10  C   UNL     1      -1.816  12.345  22.890  0.00  0.00    +0.000 A 
ATOM     11  C   UNL     1      -2.612  13.275  22.198  0.00  0.00    +0.000 A 
ATOM     12  C   UNL     1      -2.635  13.186  20.806  0.00  0.00    +0.000 A 
ATOM     13  C   UNL     1      -1.916  12.195  20.140  0.00  0.00    +0.000 A 
BRANCH  11  14
ATOM     14  C   UNL     1      -3.380  14.303  22.915  0.00  0.00    +0.000 A 
ATOM     15  C   UNL     1      -2.752  15.465  23.391  0.00  0.00    +0.000 A 
ATOM     16  C   UNL     1      -3.460  16.434  24.099  0.00  0.00    +0.000 A 
ATOM     17  C   UNL     1      -4.823  16.270  24.330  0.00  0.00    +0.000 A 
ATOM     18  C   UNL     1      -5.477  15.135  23.856  0.00  0.00    +0.000 A 
ATOM     19  C   UNL     1      -4.758  14.156  23.160  0.00  0.00    +0.000 A 
ENDBRANCH  11  14
ENDBRANCH   5   8
ENDBRANCH   1   2
BRANCH   1  20
ATOM     20  C   UNL     1       2.715   6.907  18.406  0.00  0.00    +0.000 C 
BRANCH  20  21
ATOM     21  N   UNL     1       2.458   5.500  18.737  0.00  0.00    +0.000 NA
BRANCH  21  22
ATOM     22  C   UNL     1       3.614   4.561  18.506  0.00  0.00    +0.000 C 
ATOM     23  C   UNL     1       4.894   5.298  18.992  0.00  0.00    +0.000 C 
ATOM     24  C   UNL     1       6.152   4.687  18.457  0.00  0.00    +0.000 C 
ATOM     25  C   UNL     1       6.061   4.758  16.966  0.00  0.00    +0.000 A 
ATOM     26  C   UNL     1       6.906   5.517  16.169  0.00  0.00    +0.000 A 
ATOM     27  C   UNL     1       7.095   5.188  14.840  0.00  0.00    +0.000 A 
ATOM     28  C   UNL     1       6.402   4.095  14.322  0.00  0.00    +0.000 A 
ATOM     29  C   UNL     1       5.353   3.520  15.063  0.00  0.00    +0.000 A 
ATOM     30  C   UNL     1       5.087   3.974  16.362  0.00  0.00    +0.000 A 
ATOM     31  C   UNL     1       3.809   3.716  17.146  0.00  0.00    +0.000 C 
BRANCH  26  32
ATOM     32  O   UNL     1       7.478   6.652  16.661  0.00  0.00    +0.000 OA
ATOM     33  H   UNL     1       8.259   6.818  16.099  0.00  0.00    +0.000 HD
ENDBRANCH  26  32
ENDBRANCH  21  22
BRANCH  21  34
ATOM     34  C   UNL     1       1.909   5.444  20.122  0.00  0.00    +0.000 C 
BRANCH  34  36
ATOM     35  C   UNL     1       1.945   3.303  21.568  0.00  0.00    +0.000 C 
ATOM     36  C   UNL     1       1.188   4.139  20.543  0.00  0.00    +0.000 C 
ENDBRANCH  34  36
ENDBRANCH  21  34
ENDBRANCH  20  21
ENDBRANCH   1  20
TORSDOF 9
ENDMDL
MODEL 4
REMARK VINA RESULT:      -7.5      2.800      5.375
REMARK  Name = 
REMARK  10 active torsions:
REMARK  status: ('A' for Active; 'I' for Inactive)
REMARK    1  A    between atoms: C_1  and  C_2
REMARK    2  A    between atoms: C_2  and  C_3
REMARK    3  A    between atoms: C_3  and  N_4
REMARK    4  A    between atoms: N_4  and  C_5
REMARK    5  A    between atoms: N_4  and  C_25
REMARK    6  A    between atoms: C_5  and  C_6
REMARK    7  A    between atoms: C_6  and  N_7
REMARK    8  A    between atoms: N_10  and  C_11
REMARK    9  A    between atoms: C_14  and  C_15
REMARK   10  A    between atoms: C_29  and  O_30
REMARK                            x       y       z     vdW  Elec       q    Type
REMARK                         _______ _______ _______ _____ _____    ______ ____
ROOT
ATOM      1  C   UNL     1       1.495   8.467  19.126  0.00  0.00    +0.000 C 
ENDROOT
BRANCH   1   2
ATOM      2  N   UNL     1       1.758   9.736  19.877  0.00  0.00    +0.000 NA
ATOM      3  C   UNL     1       0.893  10.854  19.425  0.00  0.00    +0.000 C 
ATOM      4  C   UNL     1      -0.592  10.503  19.603  0.00  0.00    +0.000 C 
ATOM      5  N   UNL     1      -0.869  10.348  21.032  0.00  0.00    +0.000 N 
ATOM      6  C   UNL     1       0.044   9.474  21.800  0.00  0.00    +0.000 C 
ATOM      7  C   UNL     1       1.529   9.597  21.335  0.00  0.00    +0.000 C 
BRANCH   5   8
ATOM      8  C   UNL     1      -1.610  11.352  21.647  0.00  0.00    +0.000 A 
ATOM      9  C   UNL     1      -2.182  12.353  20.862  0.00  0.00    +0.000 A 
ATOM     10  C   UNL     1      -2.805  13.456  21.461  0.00  0.00    +0.000 A 
ATOM     11  C   UNL     1      -2.921  13.570  22.858  0.00  0.00    +0.000 A 
ATOM     12  C   UNL     1      -2.406  12.527  23.629  0.00  0.00    +0.000 A 
ATOM     13  C   UNL     1      -1.780  11.435  23.030  0.00  0.00    +0.000 A 
BRANCH  11  14
ATOM     14  C   UNL     1      -3.567  14.736  23.476  0.00  0.00    +0.000 A 
ATOM     15  C   UNL     1      -2.920  15.459  24.492  0.00  0.00    +0.000 A 
ATOM     16  C   UNL     1      -3.531  16.548  25.108  0.00  0.00    +0.000 A 
ATOM     17  C   UNL     1      -4.802  16.953  24.706  0.00  0.00    +0.000 A 
ATOM     18  C   UNL     1      -5.461  16.266  23.691  0.00  0.00    +0.000 A 
ATOM     19  C   UNL     1      -4.850  15.161  23.086  0.00  0.00    +0.000 A 
ENDBRANCH  11  14
ENDBRANCH   5   8
ENDBRANCH   1   2
BRANCH   1  20
ATOM     20  C   UNL     1       2.314   7.313  19.764  0.00  0.00    +0.000 C 
BRANCH  20  21
ATOM     21  N   UNL     1       2.194   5.907  19.355  0.00  0.00    +0.000 NA
BRANCH  21  22
ATOM     22  C   UNL     1       3.269   5.414  18.421  0.00  0.00    +0.000 C 
ATOM     23  C   UNL     1       4.169   4.449  19.242  0.00  0.00    +0.000 C 
ATOM     24  C   UNL     1       5.499   4.206  18.595  0.00  0.00    +0.000 C 
ATOM     25  C   UNL     1       6.164   5.540  18.472  0.00  0.00    +0.000 A 
ATOM     26  C   UNL     1       7.327   5.894  19.141  0.00  0.00    +0.000 A 
ATOM     27  C   UNL     1       8.137   6.900  18.648  0.00  0.00    +0.000 A 
ATOM     28  C   UNL     1       7.744   7.557  17.483  0.00  0.00    +0.000 A 
ATOM     29  C   UNL     1       6.441   7.374  16.985  0.00  0.00    +0.000 A 
ATOM     30  C   UNL     1       5.585   6.448  17.596  0.00  0.00    +0.000 A 
ATOM     31  C   UNL     1       4.076   6.381  17.412  0.00  0.00    +0.000 C 
BRANCH  26  32
ATOM     32  O   UNL     1       7.629   5.325  20.342  0.00  0.00    +0.000 OA
ATOM     33  H   UNL     1       7.116   4.495  20.377  0.00  0.00    +0.000 HD
ENDBRANCH  26  32
ENDBRANCH  21  22
BRANCH  21  34
ATOM     34  C   UNL     1       2.046   5.080  20.586  0.00  0.00    +0.000 C 
BRANCH  34  36
ATOM     35  C   UNL     1       1.384   2.716  21.392  0.00  0.00    +0.000 C 
ATOM     36  C   UNL     1       1.014   3.926  20.540  0.00  0.00    +0.000 C 
ENDBRANCH  34  36
ENDBRANCH  21  34
ENDBRANCH  20  21
ENDBRANCH   1  20
TORSDOF 9
ENDMDL
MODEL 5
REMARK VINA RESULT:      -7.4      1.678      2.222
REMARK  Name = 
REMARK  10 active torsions:
REMARK  status: ('A' for Active; 'I' for Inactive)
REMARK    1  A    between atoms: C_1  and  C_2
REMARK    2  A    between atoms: C_2  and  C_3
REMARK    3  A    between atoms: C_3  and  N_4
REMARK    4  A    between atoms: N_4  and  C_5
REMARK    5  A    between atoms: N_4  and  C_25
REMARK    6  A    between atoms: C_5  and  C_6
REMARK    7  A    between atoms: C_6  and  N_7
REMARK    8  A    between atoms: N_10  and  C_11
REMARK    9  A    between atoms: C_14  and  C_15
REMARK   10  A    between atoms: C_29  and  O_30
REMARK                            x       y       z     vdW  Elec       q    Type
REMARK                         _______ _______ _______ _____ _____    ______ ____
ROOT
ATOM      1  C   UNL     1       3.543   6.507  18.931  0.00  0.00    +0.000 C 
ENDROOT
BRANCH   1   2
ATOM      2  N   UNL     1       2.053   6.620  18.834  0.00  0.00    +0.000 NA
ATOM      3  C   UNL     1       1.399   6.659  20.165  0.00  0.00    +0.000 C 
ATOM      4  C   UNL     1       1.906   7.850  20.990  0.00  0.00    +0.000 C 
ATOM      5  N   UNL     1       1.504   9.089  20.321  0.00  0.00    +0.000 N 
ATOM      6  C   UNL     1       1.802   9.196  18.877  0.00  0.00    +0.000 C 
ATOM      7  C   UNL     1       1.616   7.844  18.120  0.00  0.00    +0.000 C 
BRANCH   5   8
ATOM      8  C   UNL     1       0.488   9.830  20.916  0.00  0.00    +0.000 A 
ATOM      9  C   UNL     1      -0.275  10.692  20.129  0.00  0.00    +0.000 A 
ATOM     10  C   UNL     1      -1.203  11.560  20.720  0.00  0.00    +0.000 A 
ATOM     11  C   UNL     1      -1.433  11.559  22.108  0.00  0.00    +0.000 A 
ATOM     12  C   UNL     1      -0.713  10.644  22.875  0.00  0.00    +0.000 A 
ATOM     13  C   UNL     1       0.214   9.787  22.284  0.00  0.00    +0.000 A 
BRANCH  11  14
ATOM     14  C   UNL     1      -2.400  12.481  22.720  0.00  0.00    +0.000 A 
ATOM     15  C   UNL     1      -3.271  12.041  23.730  0.00  0.00    +0.000 A 
ATOM     16  C   UNL     1      -4.213  12.895  24.298  0.00  0.00    +0.000 A 
ATOM     17  C   UNL     1      -4.293  14.221  23.880  0.00  0.00    +0.000 A 
ATOM     18  C   UNL     1      -3.432  14.690  22.891  0.00  0.00    +0.000 A 
ATOM     19  C   UNL     1      -2.498  13.824  22.311  0.00  0.00    +0.000 A 
ENDBRANCH  11  14
ENDBRANCH   5   8
ENDBRANCH   1   2
BRANCH   1  20
ATOM     20  C   UNL     1       4.133   6.263  17.516  0.00  0.00    +0.000 C 
BRANCH  20  21
ATOM     21  N   UNL     1       5.130   5.227  17.217  0.00  0.00    +0.000 NA
BRANCH  21  22
ATOM     22  C   UNL     1       4.807   3.851  17.743  0.00  0.00    +0.000 C 
ATOM     23  C   UNL     1       3.578   3.340  16.940  0.00  0.00    +0.000 C 
ATOM     24  C   UNL     1       2.885   2.194  17.609  0.00  0.00    +0.000 C 
ATOM     25  C   UNL     1       2.446   2.685  18.951  0.00  0.00    +0.000 A 
ATOM     26  C   UNL     1       1.119   2.817  19.336  0.00  0.00    +0.000 A 
ATOM     27  C   UNL     1       0.776   2.802  20.675  0.00  0.00    +0.000 A 
ATOM     28  C   UNL     1       1.793   2.675  21.620  0.00  0.00    +0.000 A 
ATOM     29  C   UNL     1       3.135   2.822  21.223  0.00  0.00    +0.000 A 
ATOM     30  C   UNL     1       3.447   2.983  19.866  0.00  0.00    +0.000 A 
ATOM     31  C   UNL     1       4.771   3.492  19.315  0.00  0.00    +0.000 C 
BRANCH  26  32
ATOM     32  O   UNL     1       0.155   3.063  18.405  0.00  0.00    +0.000 OA
ATOM     33  H   UNL     1       0.143   4.032  18.288  0.00  0.00    +0.000 HD
ENDBRANCH  26  32
ENDBRANCH  21  22
BRANCH  21  34
ATOM     34  C   UNL     1       5.403   5.258  15.752  0.00  0.00    +0.000 C 
BRANCH  34  36
ATOM     35  C   UNL     1       7.194   4.818  13.942  0.00  0.00    +0.000 C 
ATOM     36  C   UNL     1       6.528   4.333  15.225  0.00  0.00    +0.000 C 
ENDBRANCH  34  36
ENDBRANCH  21  34
ENDBRANCH  20  21
ENDBRANCH   1  20
TORSDOF 9
ENDMDL
MODEL 6
REMARK VINA RESULT:      -7.4      1.367      1.899
REMARK  Name = 
REMARK  10 active torsions:
REMARK  status: ('A' for Active; 'I' for Inactive)
REMARK    1  A    between atoms: C_1  and  C_2
REMARK    2  A    between atoms: C_2  and  C_3
REMARK    3  A    between atoms: C_3  and  N_4
REMARK    4  A    between atoms: N_4  and  C_5
REMARK    5  A    between atoms: N_4  and  C_25
REMARK    6  A    between atoms: C_5  and  C_6
REMARK    7  A    between atoms: C_6  and  N_7
REMARK    8  A    between atoms: N_10  and  C_11
REMARK    9  A    between atoms: C_14  and  C_15
REMARK   10  A    between atoms: C_29  and  O_30
REMARK                            x       y       z     vdW  Elec       q    Type
REMARK                         _______ _______ _______ _____ _____    ______ ____
ROOT
ATOM      1  C   UNL     1       3.560   6.561  18.966  0.00  0.00    +0.000 C 
ENDROOT
BRANCH   1   2
ATOM      2  N   UNL     1       2.076   6.699  18.831  0.00  0.00    +0.000 NA
ATOM      3  C   UNL     1       1.397   6.855  20.142  0.00  0.00    +0.000 C 
ATOM      4  C   UNL     1       1.918   8.094  20.884  0.00  0.00    +0.000 C 
ATOM      5  N   UNL     1       1.558   9.287  20.114  0.00  0.00    +0.000 N 
ATOM      6  C   UNL     1       1.886   9.276  18.673  0.00  0.00    +0.000 C 
ATOM      7  C   UNL     1       1.681   7.875  18.017  0.00  0.00    +0.000 C 
BRANCH   5   8
ATOM      8  C   UNL     1       0.549  10.094  20.630  0.00  0.00    +0.000 A 
ATOM      9  C   UNL     1       0.343  10.128  22.009  0.00  0.00    +0.000 A 
ATOM     10  C   UNL     1      -0.756  10.812  22.547  0.00  0.00    +0.000 A 
ATOM     11  C   UNL     1      -1.654  11.522  21.730  0.00  0.00    +0.000 A 
ATOM     12  C   UNL     1      -1.397  11.536  20.359  0.00  0.00    +0.000 A 
ATOM     13  C   UNL     1      -0.307  10.850  19.828  0.00  0.00    +0.000 A 
BRANCH  11  14
ATOM     14  C   UNL     1      -2.810  12.225  22.303  0.00  0.00    +0.000 A 
ATOM     15  C   UNL     1      -3.643  13.015  21.493  0.00  0.00    +0.000 A 
ATOM     16  C   UNL     1      -4.724  13.711  22.026  0.00  0.00    +0.000 A 
ATOM     17  C   UNL     1      -5.010  13.619  23.386  0.00  0.00    +0.000 A 
ATOM     18  C   UNL     1      -4.212  12.831  24.211  0.00  0.00    +0.000 A 
ATOM     19  C   UNL     1      -3.116  12.146  23.675  0.00  0.00    +0.000 A 
ENDBRANCH  11  14
ENDBRANCH   5   8
ENDBRANCH   1   2
BRANCH   1  20
ATOM     20  C   UNL     1       4.199   6.469  17.555  0.00  0.00    +0.000 C 
BRANCH  20  21
ATOM     21  N   UNL     1       5.183   5.448  17.171  0.00  0.00    +0.000 NA
BRANCH  21  22
ATOM     22  C   UNL     1       4.877   4.049  17.642  0.00  0.00    +0.000 C 
ATOM     23  C   UNL     1       3.630   3.570  16.847  0.00  0.00    +0.000 C 
ATOM     24  C   UNL     1       2.957   2.391  17.480  0.00  0.00    +0.000 C 
ATOM     25  C   UNL     1       2.548   2.820  18.853  0.00  0.00    +0.000 A 
ATOM     26  C   UNL     1       1.230   2.930  19.274  0.00  0.00    +0.000 A 
ATOM     27  C   UNL     1       0.919   2.853  20.619  0.00  0.00    +0.000 A 
ATOM     28  C   UNL     1       1.959   2.688  21.533  0.00  0.00    +0.000 A 
ATOM     29  C   UNL     1       3.291   2.859  21.111  0.00  0.00    +0.000 A 
ATOM     30  C   UNL     1       3.570   3.081  19.756  0.00  0.00    +0.000 A 
ATOM     31  C   UNL     1       4.879   3.620  19.197  0.00  0.00    +0.000 C 
BRANCH  26  32
ATOM     32  O   UNL     1       0.244   3.213  18.378  0.00  0.00    +0.000 OA
ATOM     33  H   UNL     1      -0.124   4.074  18.656  0.00  0.00    +0.000 HD
ENDBRANCH  26  32
ENDBRANCH  21  22
BRANCH  21  34
ATOM     34  C   UNL     1       5.403   5.549  15.701  0.00  0.00    +0.000 C 
BRANCH  34  36
ATOM     35  C   UNL     1       6.259   3.857  13.945  0.00  0.00    +0.000 C 
ATOM     36  C   UNL     1       6.608   4.772  15.113  0.00  0.00    +0.000 C 
ENDBRANCH  34  36
ENDBRANCH  21  34
ENDBRANCH  20  21
ENDBRANCH   1  20
TORSDOF 9
ENDMDL
MODEL 7
REMARK VINA RESULT:      -7.3      3.491     11.064
REMARK  Name = 
REMARK  10 active torsions:
REMARK  status: ('A' for Active; 'I' for Inactive)
REMARK    1  A    between atoms: C_1  and  C_2
REMARK    2  A    between atoms: C_2  and  C_3
REMARK    3  A    between atoms: C_3  and  N_4
REMARK    4  A    between atoms: N_4  and  C_5
REMARK    5  A    between atoms: N_4  and  C_25
REMARK    6  A    between atoms: C_5  and  C_6
REMARK    7  A    between atoms: C_6  and  N_7
REMARK    8  A    between atoms: N_10  and  C_11
REMARK    9  A    between atoms: C_14  and  C_15
REMARK   10  A    between atoms: C_29  and  O_30
REMARK                            x       y       z     vdW  Elec       q    Type
REMARK                         _______ _______ _______ _____ _____    ______ ____
ROOT
ATOM      1  C   UNL     1      -0.775  12.863  20.113  0.00  0.00    +0.000 C 
ENDROOT
BRANCH   1   2
ATOM      2  N   UNL     1      -1.278  11.474  20.354  0.00  0.00    +0.000 NA
ATOM      3  C   UNL     1      -1.069  10.583  19.185  0.00  0.00    +0.000 C 
ATOM      4  C   UNL     1       0.421  10.487  18.830  0.00  0.00    +0.000 C 
ATOM      5  N   UNL     1       1.127   9.845  19.941  0.00  0.00    +0.000 N 
ATOM      6  C   UNL     1       0.872  10.382  21.295  0.00  0.00    +0.000 C 
ATOM      7  C   UNL     1      -0.613  10.813  21.503  0.00  0.00    +0.000 C 
BRANCH   5   8
ATOM      8  C   UNL     1       1.571   8.541  19.742  0.00  0.00    +0.000 A 
ATOM      9  C   UNL     1       2.159   8.201  18.525  0.00  0.00    +0.000 A 
ATOM     10  C   UNL     1       2.479   6.867  18.238  0.00  0.00    +0.000 A 
ATOM     11  C   UNL     1       2.268   5.840  19.175  0.00  0.00    +0.000 A 
ATOM     12  C   UNL     1       1.743   6.205  20.415  0.00  0.00    +0.000 A 
ATOM     13  C   UNL     1       1.420   7.532  20.694  0.00  0.00    +0.000 A 
BRANCH  11  14
ATOM     14  C   UNL     1       2.596   4.443  18.861  0.00  0.00    +0.000 A 
ATOM     15  C   UNL     1       3.684   4.132  18.028  0.00  0.00    +0.000 A 
ATOM     16  C   UNL     1       3.990   2.815  17.696  0.00  0.00    +0.000 A 
ATOM     17  C   UNL     1       3.222   1.772  18.207  0.00  0.00    +0.000 A 
ATOM     18  C   UNL     1       2.147   2.048  19.049  0.00  0.00    +0.000 A 
ATOM     19  C   UNL     1       1.833   3.374  19.366  0.00  0.00    +0.000 A 
ENDBRANCH  11  14
ENDBRANCH   5   8
ENDBRANCH   1   2
BRANCH   1  20
ATOM     20  C   UNL     1      -1.716  13.879  20.814  0.00  0.00    +0.000 C 
BRANCH  20  21
ATOM     21  N   UNL     1      -1.246  14.926  21.731  0.00  0.00    +0.000 NA
BRANCH  21  22
ATOM     22  C   UNL     1      -2.243  15.366  22.772  0.00  0.00    +0.000 C 
ATOM     23  C   UNL     1      -2.071  14.414  23.989  0.00  0.00    +0.000 C 
ATOM     24  C   UNL     1      -3.245  14.446  24.920  0.00  0.00    +0.000 C 
ATOM     25  C   UNL     1      -4.437  14.032  24.117  0.00  0.00    +0.000 A 
ATOM     26  C   UNL     1      -5.163  12.872  24.343  0.00  0.00    +0.000 A 
ATOM     27  C   UNL     1      -6.478  12.778  23.925  0.00  0.00    +0.000 A 
ATOM     28  C   UNL     1      -7.041  13.865  23.256  0.00  0.00    +0.000 A 
ATOM     29  C   UNL     1      -6.213  14.906  22.799  0.00  0.00    +0.000 A 
ATOM     30  C   UNL     1      -4.847  14.901  23.115  0.00  0.00    +0.000 A 
ATOM     31  C   UNL     1      -3.776  15.735  22.428  0.00  0.00    +0.000 C 
BRANCH  26  32
ATOM     32  O   UNL     1      -4.559  11.778  24.887  0.00  0.00    +0.000 OA
ATOM     33  H   UNL     1      -5.009  11.626  25.740  0.00  0.00    +0.000 HD
ENDBRANCH  26  32
ENDBRANCH  21  22
BRANCH  21  34
ATOM     34  C   UNL     1       0.059  14.488  22.301  0.00  0.00    +0.000 C 
BRANCH  34  36
ATOM     35  C   UNL     1       2.456  14.898  21.425  0.00  0.00    +0.000 C 
ATOM     36  C   UNL     1       1.252  15.468  22.167  0.00  0.00    +0.000 C 
ENDBRANCH  34  36
ENDBRANCH  21  34
ENDBRANCH  20  21
ENDBRANCH   1  20
TORSDOF 9
ENDMDL
MODEL 8
REMARK VINA RESULT:      -7.3      3.719     11.559
REMARK  Name = 
REMARK  10 active torsions:
REMARK  status: ('A' for Active; 'I' for Inactive)
REMARK    1  A    between atoms: C_1  and  C_2
REMARK    2  A    between atoms: C_2  and  C_3
REMARK    3  A    between atoms: C_3  and  N_4
REMARK    4  A    between atoms: N_4  and  C_5
REMARK    5  A    between atoms: N_4  and  C_25
REMARK    6  A    between atoms: C_5  and  C_6
REMARK    7  A    between atoms: C_6  and  N_7
REMARK    8  A    between atoms: N_10  and  C_11
REMARK    9  A    between atoms: C_14  and  C_15
REMARK   10  A    between atoms: C_29  and  O_30
REMARK                            x       y       z     vdW  Elec       q    Type
REMARK                         _______ _______ _______ _____ _____    ______ ____
ROOT
ATOM      1  C   UNL     1      -0.735  10.492  22.599  0.00  0.00    +0.000 C 
ENDROOT
BRANCH   1   2
ATOM      2  N   UNL     1       0.719  10.582  22.254  0.00  0.00    +0.000 NA
ATOM      3  C   UNL     1       1.411   9.273  22.362  0.00  0.00    +0.000 C 
ATOM      4  C   UNL     1       0.771   8.237  21.428  0.00  0.00    +0.000 C 
ATOM      5  N   UNL     1       0.969   8.669  20.043  0.00  0.00    +0.000 N 
ATOM      6  C   UNL     1       0.605  10.065  19.720  0.00  0.00    +0.000 C 
ATOM      7  C   UNL     1       0.952  11.061  20.870  0.00  0.00    +0.000 C 
BRANCH   5   8
ATOM      8  C   UNL     1       1.891   7.958  19.282  0.00  0.00    +0.000 A 
ATOM      9  C   UNL     1       2.388   6.750  19.770  0.00  0.00    +0.000 A 
ATOM     10  C   UNL     1       3.426   6.086  19.101  0.00  0.00    +0.000 A 
ATOM     11  C   UNL     1       3.964   6.582  17.899  0.00  0.00    +0.000 A 
ATOM     12  C   UNL     1       3.410   7.754  17.386  0.00  0.00    +0.000 A 
ATOM     13  C   UNL     1       2.383   8.415  18.059  0.00  0.00    +0.000 A 
BRANCH  11  14
ATOM     14  C   UNL     1       5.060   5.885  17.212  0.00  0.00    +0.000 A 
ATOM     15  C   UNL     1       6.112   5.307  17.942  0.00  0.00    +0.000 A 
ATOM     16  C   UNL     1       7.173   4.669  17.303  0.00  0.00    +0.000 A 
ATOM     17  C   UNL     1       7.195   4.577  15.914  0.00  0.00    +0.000 A 
ATOM     18  C   UNL     1       6.158   5.126  15.165  0.00  0.00    +0.000 A 
ATOM     19  C   UNL     1       5.102   5.781  15.809  0.00  0.00    +0.000 A 
ENDBRANCH  11  14
ENDBRANCH   5   8
ENDBRANCH   1   2
BRANCH   1  20
ATOM     20  C   UNL     1      -1.253  11.895  23.012  0.00  0.00    +0.000 C 
BRANCH  20  21
ATOM     21  N   UNL     1      -2.382  12.571  22.360  0.00  0.00    +0.000 NA
BRANCH  21  22
ATOM     22  C   UNL     1      -3.536  12.919  23.266  0.00  0.00    +0.000 C 
ATOM     23  C   UNL     1      -4.821  12.877  22.393  0.00  0.00    +0.000 C 
ATOM     24  C   UNL     1      -5.975  13.593  23.025  0.00  0.00    +0.000 C 
ATOM     25  C   UNL     1      -5.541  15.011  23.222  0.00  0.00    +0.000 A 
ATOM     26  C   UNL     1      -6.112  16.097  22.574  0.00  0.00    +0.000 A 
ATOM     27  C   UNL     1      -6.023  17.363  23.122  0.00  0.00    +0.000 A 
ATOM     28  C   UNL     1      -5.330  17.520  24.322  0.00  0.00    +0.000 A 
ATOM     29  C   UNL     1      -4.534  16.468  24.809  0.00  0.00    +0.000 A 
ATOM     30  C   UNL     1      -4.529  15.232  24.147  0.00  0.00    +0.000 A 
ATOM     31  C   UNL     1      -3.491  14.134  24.327  0.00  0.00    +0.000 C 
BRANCH  26  32
ATOM     32  O   UNL     1      -6.676  15.943  21.343  0.00  0.00    +0.000 OA
ATOM     33  H   UNL     1      -7.161  15.096  21.380  0.00  0.00    +0.000 HD
ENDBRANCH  26  32
ENDBRANCH  21  22
BRANCH  21  34
ATOM     34  C   UNL     1      -1.847  13.736  21.599  0.00  0.00    +0.000 C 
BRANCH  34  36
ATOM     35  C   UNL     1      -0.539  14.396  19.471  0.00  0.00    +0.000 C 
ATOM     36  C   UNL     1      -1.659  13.554  20.072  0.00  0.00    +0.000 C 
ENDBRANCH  34  36
ENDBRANCH  21  34
ENDBRANCH  20  21
ENDBRANCH   1  20
TORSDOF 9
ENDMDL
MODEL 9
REMARK VINA RESULT:      -7.2      3.216     11.410
REMARK  Name = 
REMARK  10 active torsions:
REMARK  status: ('A' for Active; 'I' for Inactive)
REMARK    1  A    between atoms: C_1  and  C_2
REMARK    2  A    between atoms: C_2  and  C_3
REMARK    3  A    between atoms: C_3  and  N_4
REMARK    4  A    between atoms: N_4  and  C_5
REMARK    5  A    between atoms: N_4  and  C_25
REMARK    6  A    between atoms: C_5  and  C_6
REMARK    7  A    between atoms: C_6  and  N_7
REMARK    8  A    between atoms: N_10  and  C_11
REMARK    9  A    between atoms: C_14  and  C_15
REMARK   10  A    between atoms: C_29  and  O_30
REMARK                            x       y       z     vdW  Elec       q    Type
REMARK                         _______ _______ _______ _____ _____    ______ ____
ROOT
ATOM      1  C   UNL     1      -2.558  12.886  20.451  0.00  0.00    +0.000 C 
ENDROOT
BRANCH   1   2
ATOM      2  N   UNL     1      -1.329  12.945  19.599  0.00  0.00    +0.000 NA
ATOM      3  C   UNL     1      -0.117  12.476  20.316  0.00  0.00    +0.000 C 
ATOM      4  C   UNL     1      -0.289  11.026  20.792  0.00  0.00    +0.000 C 
ATOM      5  N   UNL     1      -0.408  10.159  19.618  0.00  0.00    +0.000 N 
ATOM      6  C   UNL     1      -1.383  10.564  18.583  0.00  0.00    +0.000 C 
ATOM      7  C   UNL     1      -1.437  12.110  18.378  0.00  0.00    +0.000 C 
BRANCH   5   8
ATOM      8  C   UNL     1       0.678   9.341  19.321  0.00  0.00    +0.000 A 
ATOM      9  C   UNL     1       1.269   9.426  18.061  0.00  0.00    +0.000 A 
ATOM     10  C   UNL     1       2.264   8.516  17.680  0.00  0.00    +0.000 A 
ATOM     11  C   UNL     1       2.735   7.526  18.561  0.00  0.00    +0.000 A 
ATOM     12  C   UNL     1       2.184   7.497  19.842  0.00  0.00    +0.000 A 
ATOM     13  C   UNL     1       1.189   8.400  20.215  0.00  0.00    +0.000 A 
BRANCH  11  14
ATOM     14  C   UNL     1       3.770   6.569  18.148  0.00  0.00    +0.000 A 
ATOM     15  C   UNL     1       4.407   6.694  16.902  0.00  0.00    +0.000 A 
ATOM     16  C   UNL     1       5.368   5.778  16.484  0.00  0.00    +0.000 A 
ATOM     17  C   UNL     1       5.731   4.721  17.315  0.00  0.00    +0.000 A 
ATOM     18  C   UNL     1       5.129   4.580  18.562  0.00  0.00    +0.000 A 
ATOM     19  C   UNL     1       4.151   5.493  18.972  0.00  0.00    +0.000 A 
ENDBRANCH  11  14
ENDBRANCH   5   8
ENDBRANCH   1   2
BRANCH   1  20
ATOM     20  C   UNL     1      -2.787  14.268  21.120  0.00  0.00    +0.000 C 
BRANCH  20  21
ATOM     21  N   UNL     1      -3.764  14.503  22.191  0.00  0.00    +0.000 NA
BRANCH  21  22
ATOM     22  C   UNL     1      -5.206  14.539  21.751  0.00  0.00    +0.000 C 
ATOM     23  C   UNL     1      -5.837  13.182  22.170  0.00  0.00    +0.000 C 
ATOM     24  C   UNL     1      -7.118  12.892  21.450  0.00  0.00    +0.000 C 
ATOM     25  C   UNL     1      -6.792  12.871  19.990  0.00  0.00    +0.000 A 
ATOM     26  C   UNL     1      -6.887  11.743  19.187  0.00  0.00    +0.000 A 
ATOM     27  C   UNL     1      -7.046  11.871  17.820  0.00  0.00    +0.000 A 
ATOM     28  C   UNL     1      -7.085  13.153  17.273  0.00  0.00    +0.000 A 
ATOM     29  C   UNL     1      -6.712  14.258  18.060  0.00  0.00    +0.000 A 
ATOM     30  C   UNL     1      -6.413  14.078  19.417  0.00  0.00    +0.000 A 
ATOM     31  C   UNL     1      -5.674  15.072  20.302  0.00  0.00    +0.000 C 
BRANCH  26  32
ATOM     32  O   UNL     1      -6.724  10.502  19.725  0.00  0.00    +0.000 OA
ATOM     33  H   UNL     1      -5.829  10.500  20.115  0.00  0.00    +0.000 HD
ENDBRANCH  26  32
ENDBRANCH  21  22
BRANCH  21  34
ATOM     34  C   UNL     1      -3.497  13.524  23.283  0.00  0.00    +0.000 C 
BRANCH  34  36
ATOM     35  C   UNL     1      -3.582  15.568  24.862  0.00  0.00    +0.000 C 
ATOM     36  C   UNL     1      -3.202  14.101  24.690  0.00  0.00    +0.000 C 
ENDBRANCH  34  36
ENDBRANCH  21  34
ENDBRANCH  20  21
ENDBRANCH   1  20
TORSDOF 9
ENDMDL
