MODEL 1
REMARK VINA RESULT:      -8.1      0.000      0.000
REMARK  Name = 
REMARK  11 active torsions:
REMARK  status: ('A' for Active; 'I' for Inactive)
REMARK    1  A    between atoms: C_1  and  C_2
REMARK    2  A    between atoms: C_2  and  C_3
REMARK    3  A    between atoms: C_3  and  C_4
REMARK    4  A    between atoms: C_4  and  C_5
REMARK    5  A    between atoms: C_5  and  O_6
REMARK    6  A    between atoms: O_6  and  C_7
REMARK    7  A    between atoms: C_10  and  C_11
REMARK    8  A    between atoms: C_12  and  C_13
REMARK    9  A    between atoms: C_17  and  O_18
REMARK   10  A    between atoms: C_19  and  C_20
REMARK   11  A    between atoms: C_20  and  O_22
REMARK                            x       y       z     vdW  Elec       q    Type
REMARK                         _______ _______ _______ _____ _____    ______ ____
ROOT
ATOM      1  C   UNL     1       4.543   4.199  16.493  0.00  0.00    +0.000 C 
ATOM      2  C   UNL     1       3.443   3.706  17.085  0.00  0.00    +0.000 C 
ENDROOT
BRANCH   1   6
ATOM      3  C   UNL     1       7.543   6.747  18.166  0.00  0.00    +0.000 A 
ATOM      4  C   UNL     1       7.514   5.379  18.462  0.00  0.00    +0.000 A 
ATOM      5  C   UNL     1       6.519   4.553  17.936  0.00  0.00    +0.000 A 
ATOM      6  C   UNL     1       5.531   5.086  17.111  0.00  0.00    +0.000 A 
ATOM      7  C   UNL     1       5.527   6.460  16.845  0.00  0.00    +0.000 A 
ATOM      8  C   UNL     1       6.533   7.285  17.367  0.00  0.00    +0.000 A 
BRANCH   3   9
ATOM      9  O   UNL     1       8.514   7.624  18.596  0.00  0.00    +0.000 OA
BRANCH   9  10
ATOM     10  C   UNL     1       8.349   8.959  18.112  0.00  0.00    +0.000 C 
BRANCH  10  11
ATOM     11  C   UNL     1       9.056   9.986  18.986  0.00  0.00    +0.000 C 
BRANCH  11  12
ATOM     12  C   UNL     1       9.274  11.258  18.160  0.00  0.00    +0.000 C 
BRANCH  12  14
ATOM     13  C   UNL     1      11.647  11.996  17.809  0.00  0.00    +0.000 C 
ATOM     14  C   UNL     1      10.413  12.117  18.695  0.00  0.00    +0.000 C 
ENDBRANCH  12  14
ENDBRANCH  11  12
ENDBRANCH  10  11
ENDBRANCH   9  10
ENDBRANCH   3   9
ENDBRANCH   1   6
BRANCH   2  15
ATOM     15  C   UNL     1       3.051   3.976  18.474  0.00  0.00    +0.000 A 
ATOM     16  C   UNL     1       2.402   5.208  18.684  0.00  0.00    +0.000 A 
ATOM     17  C   UNL     1       1.903   5.554  19.937  0.00  0.00    +0.000 A 
ATOM     18  C   UNL     1       2.035   4.667  20.996  0.00  0.00    +0.000 A 
ATOM     19  C   UNL     1       2.695   3.448  20.805  0.00  0.00    +0.000 A 
ATOM     20  C   UNL     1       3.241   3.085  19.555  0.00  0.00    +0.000 A 
BRANCH  19  21
ATOM     21  O   UNL     1       2.794   2.597  21.883  0.00  0.00    +0.000 OA
ATOM     22  H   UNL     1       3.659   2.147  21.844  0.00  0.00    +0.000 HD
ENDBRANCH  19  21
BRANCH  20  23
ATOM     23  C   UNL     1       4.027   1.812  19.363  0.00  0.00    +0.000 C 
ATOM     24  O   UNL     1       3.736   0.919  18.576  0.00  0.00    +0.000 OA
BRANCH  23  25
ATOM     25  O   UNL     1       5.157   1.717  20.109  0.00  0.00    +0.000 OA
ATOM     26  H   UNL     1       5.387   0.788  20.324  0.00  0.00    +0.000 HD
ENDBRANCH  23  25
ENDBRANCH  20  23
ENDBRANCH   2  15
TORSDOF 10
ENDMDL
MODEL 2
REMARK VINA RESULT:      -7.7      0.560      1.138
REMARK  Name = 
REMARK  11 active torsions:
REMARK  status: ('A' for Active; 'I' for Inactive)
REMARK    1  A    between atoms: C_1  and  C_2
REMARK    2  A    between atoms: C_2  and  C_3
REMARK    3  A    between atoms: C_3  and  C_4
REMARK    4  A    between atoms: C_4  and  C_5
REMARK    5  A    between atoms: C_5  and  O_6
REMARK    6  A    between atoms: O_6  and  C_7
REMARK    7  A    between atoms: C_10  and  C_11
REMARK    8  A    between atoms: C_12  and  C_13
REMARK    9  A    between atoms: C_17  and  O_18
REMARK   10  A    between atoms: C_19  and  C_20
REMARK   11  A    between atoms: C_20  and  O_22
REMARK                            x       y       z     vdW  Elec       q    Type
REMARK                         _______ _______ _______ _____ _____    ______ ____
ROOT
ATOM      1  C   UNL     1       5.113   4.168  16.274  0.00  0.00    +0.000 C 
ATOM      2  C   UNL     1       3.934   3.797  16.800  0.00  0.00    +0.000 C 
ENDROOT
BRANCH   1   6
ATOM      3  C   UNL     1       7.774   6.951  18.136  0.00  0.00    +0.000 A 
ATOM      4  C   UNL     1       6.919   7.353  17.104  0.00  0.00    +0.000 A 
ATOM      5  C   UNL     1       6.069   6.438  16.479  0.00  0.00    +0.000 A 
ATOM      6  C   UNL     1       6.069   5.102  16.873  0.00  0.00    +0.000 A 
ATOM      7  C   UNL     1       6.951   4.682  17.874  0.00  0.00    +0.000 A 
ATOM      8  C   UNL     1       7.796   5.605  18.505  0.00  0.00    +0.000 A 
BRANCH   3   9
ATOM      9  O   UNL     1       8.606   7.792  18.842  0.00  0.00    +0.000 OA
BRANCH   9  10
ATOM     10  C   UNL     1       8.561   9.154  18.409  0.00  0.00    +0.000 C 
BRANCH  10  11
ATOM     11  C   UNL     1       9.208  10.102  19.409  0.00  0.00    +0.000 C 
BRANCH  11  12
ATOM     12  C   UNL     1       9.352  11.478  18.749  0.00  0.00    +0.000 C 
BRANCH  12  14
ATOM     13  C   UNL     1      11.617  11.999  17.803  0.00  0.00    +0.000 C 
ATOM     14  C   UNL     1      10.708  12.119  19.019  0.00  0.00    +0.000 C 
ENDBRANCH  12  14
ENDBRANCH  11  12
ENDBRANCH  10  11
ENDBRANCH   9  10
ENDBRANCH   3   9
ENDBRANCH   1   6
BRANCH   2  15
ATOM     15  C   UNL     1       3.408   4.273  18.086  0.00  0.00    +0.000 A 
ATOM     16  C   UNL     1       2.907   5.589  18.078  0.00  0.00    +0.000 A 
ATOM     17  C   UNL     1       2.304   6.136  19.207  0.00  0.00    +0.000 A 
ATOM     18  C   UNL     1       2.182   5.370  20.358  0.00  0.00    +0.000 A 
ATOM     19  C   UNL     1       2.693   4.068  20.386  0.00  0.00    +0.000 A 
ATOM     20  C   UNL     1       3.340   3.499  19.267  0.00  0.00    +0.000 A 
BRANCH  19  21
ATOM     21  O   UNL     1       2.540   3.344  21.546  0.00  0.00    +0.000 OA
ATOM     22  H   UNL     1       1.596   3.125  21.653  0.00  0.00    +0.000 HD
ENDBRANCH  19  21
BRANCH  20  23
ATOM     23  C   UNL     1       3.968   2.129  19.317  0.00  0.00    +0.000 C 
ATOM     24  O   UNL     1       3.590   1.159  18.670  0.00  0.00    +0.000 OA
BRANCH  23  25
ATOM     25  O   UNL     1       5.058   2.024  20.120  0.00  0.00    +0.000 OA
ATOM     26  H   UNL     1       5.870   1.795  19.620  0.00  0.00    +0.000 HD
ENDBRANCH  23  25
ENDBRANCH  20  23
ENDBRANCH   2  15
TORSDOF 10
ENDMDL
MODEL 3
REMARK VINA RESULT:      -7.5      0.844      1.078
REMARK  Name = 
REMARK  11 active torsions:
REMARK  status: ('A' for Active; 'I' for Inactive)
REMARK    1  A    between atoms: C_1  and  C_2
REMARK    2  A    between atoms: C_2  and  C_3
REMARK    3  A    between atoms: C_3  and  C_4
REMARK    4  A    between atoms: C_4  and  C_5
REMARK    5  A    between atoms: C_5  and  O_6
REMARK    6  A    between atoms: O_6  and  C_7
REMARK    7  A    between atoms: C_10  and  C_11
REMARK    8  A    between atoms: C_12  and  C_13
REMARK    9  A    between atoms: C_17  and  O_18
REMARK   10  A    between atoms: C_19  and  C_20
REMARK   11  A    between atoms: C_20  and  O_22
REMARK                            x       y       z     vdW  Elec       q    Type
REMARK                         _______ _______ _______ _____ _____    ______ ____
ROOT
ATOM      1  C   UNL     1       4.722   4.360  16.376  0.00  0.00    +0.000 C 
ATOM      2  C   UNL     1       3.529   3.985  16.866  0.00  0.00    +0.000 C 
ENDROOT
BRANCH   1   6
ATOM      3  C   UNL     1       7.641   6.929  18.157  0.00  0.00    +0.000 A 
ATOM      4  C   UNL     1       7.579   5.571  18.489  0.00  0.00    +0.000 A 
ATOM      5  C   UNL     1       6.610   4.739  17.927  0.00  0.00    +0.000 A 
ATOM      6  C   UNL     1       5.679   5.256  17.029  0.00  0.00    +0.000 A 
ATOM      7  C   UNL     1       5.706   6.621  16.724  0.00  0.00    +0.000 A 
ATOM      8  C   UNL     1       6.686   7.452  17.283  0.00  0.00    +0.000 A 
BRANCH   3   9
ATOM      9  O   UNL     1       8.592   7.811  18.621  0.00  0.00    +0.000 OA
BRANCH   9  10
ATOM     10  C   UNL     1       8.377   9.165  18.217  0.00  0.00    +0.000 C 
BRANCH  10  11
ATOM     11  C   UNL     1       9.243  10.147  18.995  0.00  0.00    +0.000 C 
BRANCH  11  12
ATOM     12  C   UNL     1       9.327  11.455  18.200  0.00  0.00    +0.000 C 
BRANCH  12  14
ATOM     13  C   UNL     1      10.845  13.160  17.158  0.00  0.00    +0.000 C 
ATOM     14  C   UNL     1      10.730  11.731  17.672  0.00  0.00    +0.000 C 
ENDBRANCH  12  14
ENDBRANCH  11  12
ENDBRANCH  10  11
ENDBRANCH   9  10
ENDBRANCH   3   9
ENDBRANCH   1   6
BRANCH   2  15
ATOM     15  C   UNL     1       2.986   4.417  18.160  0.00  0.00    +0.000 A 
ATOM     16  C   UNL     1       2.849   5.810  18.317  0.00  0.00    +0.000 A 
ATOM     17  C   UNL     1       2.270   6.351  19.462  0.00  0.00    +0.000 A 
ATOM     18  C   UNL     1       1.808   5.506  20.462  0.00  0.00    +0.000 A 
ATOM     19  C   UNL     1       1.956   4.121  20.326  0.00  0.00    +0.000 A 
ATOM     20  C   UNL     1       2.570   3.546  19.192  0.00  0.00    +0.000 A 
BRANCH  19  21
ATOM     21  O   UNL     1       1.475   3.324  21.339  0.00  0.00    +0.000 OA
ATOM     22  H   UNL     1       1.639   3.772  22.191  0.00  0.00    +0.000 HD
ENDBRANCH  19  21
BRANCH  20  23
ATOM     23  C   UNL     1       2.809   2.061  19.079  0.00  0.00    +0.000 C 
ATOM     24  O   UNL     1       3.909   1.521  19.120  0.00  0.00    +0.000 OA
BRANCH  23  25
ATOM     25  O   UNL     1       1.687   1.304  18.970  0.00  0.00    +0.000 OA
ATOM     26  H   UNL     1       1.044   1.482  19.689  0.00  0.00    +0.000 HD
ENDBRANCH  23  25
ENDBRANCH  20  23
ENDBRANCH   2  15
TORSDOF 10
ENDMDL
MODEL 4
REMARK VINA RESULT:      -7.3      1.083      1.670
REMARK  Name = 
REMARK  11 active torsions:
REMARK  status: ('A' for Active; 'I' for Inactive)
REMARK    1  A    between atoms: C_1  and  C_2
REMARK    2  A    between atoms: C_2  and  C_3
REMARK    3  A    between atoms: C_3  and  C_4
REMARK    4  A    between atoms: C_4  and  C_5
REMARK    5  A    between atoms: C_5  and  O_6
REMARK    6  A    between atoms: O_6  and  C_7
REMARK    7  A    between atoms: C_10  and  C_11
REMARK    8  A    between atoms: C_12  and  C_13
REMARK    9  A    between atoms: C_17  and  O_18
REMARK   10  A    between atoms: C_19  and  C_20
REMARK   11  A    between atoms: C_20  and  O_22
REMARK                            x       y       z     vdW  Elec       q    Type
REMARK                         _______ _______ _______ _____ _____    ______ ____
ROOT
ATOM      1  C   UNL     1       5.638   4.321  16.578  0.00  0.00    +0.000 C 
ATOM      2  C   UNL     1       4.378   4.059  16.963  0.00  0.00    +0.000 C 
ENDROOT
BRANCH   1   6
ATOM      3  C   UNL     1       8.081   7.355  18.344  0.00  0.00    +0.000 A 
ATOM      4  C   UNL     1       7.481   7.551  17.096  0.00  0.00    +0.000 A 
ATOM      5  C   UNL     1       6.705   6.550  16.508  0.00  0.00    +0.000 A 
ATOM      6  C   UNL     1       6.524   5.332  17.159  0.00  0.00    +0.000 A 
ATOM      7  C   UNL     1       7.156   5.111  18.388  0.00  0.00    +0.000 A 
ATOM      8  C   UNL     1       7.927   6.121  18.979  0.00  0.00    +0.000 A 
BRANCH   3   9
ATOM      9  O   UNL     1       8.818   8.302  19.021  0.00  0.00    +0.000 OA
BRANCH   9  10
ATOM     10  C   UNL     1       8.706   9.622  18.482  0.00  0.00    +0.000 C 
BRANCH  10  11
ATOM     11  C   UNL     1       9.639  10.610  19.168  0.00  0.00    +0.000 C 
BRANCH  11  12
ATOM     12  C   UNL     1       9.813  11.827  18.253  0.00  0.00    +0.000 C 
BRANCH  12  14
ATOM     13  C   UNL     1      12.100  11.618  19.266  0.00  0.00    +0.000 C 
ATOM     14  C   UNL     1      11.242  12.358  18.247  0.00  0.00    +0.000 C 
ENDBRANCH  12  14
ENDBRANCH  11  12
ENDBRANCH  10  11
ENDBRANCH   9  10
ENDBRANCH   3   9
ENDBRANCH   1   6
BRANCH   2  15
ATOM     15  C   UNL     1       3.678   4.751  18.053  0.00  0.00    +0.000 A 
ATOM     16  C   UNL     1       3.316   6.085  17.779  0.00  0.00    +0.000 A 
ATOM     17  C   UNL     1       2.575   6.830  18.692  0.00  0.00    +0.000 A 
ATOM     18  C   UNL     1       2.174   6.249  19.887  0.00  0.00    +0.000 A 
ATOM     19  C   UNL     1       2.543   4.931  20.179  0.00  0.00    +0.000 A 
ATOM     20  C   UNL     1       3.323   4.163  19.288  0.00  0.00    +0.000 A 
BRANCH  19  21
ATOM     21  O   UNL     1       2.115   4.396  21.372  0.00  0.00    +0.000 OA
ATOM     22  H   UNL     1       1.438   4.987  21.752  0.00  0.00    +0.000 HD
ENDBRANCH  19  21
BRANCH  20  23
ATOM     23  C   UNL     1       3.796   2.773  19.633  0.00  0.00    +0.000 C 
ATOM     24  O   UNL     1       4.941   2.482  19.962  0.00  0.00    +0.000 OA
BRANCH  23  25
ATOM     25  O   UNL     1       2.835   1.815  19.607  0.00  0.00    +0.000 OA
ATOM     26  H   UNL     1       2.777   1.319  20.451  0.00  0.00    +0.000 HD
ENDBRANCH  23  25
ENDBRANCH  20  23
ENDBRANCH   2  15
TORSDOF 10
ENDMDL
MODEL 5
REMARK VINA RESULT:      -7.3      3.608      5.959
REMARK  Name = 
REMARK  11 active torsions:
REMARK  status: ('A' for Active; 'I' for Inactive)
REMARK    1  A    between atoms: C_1  and  C_2
REMARK    2  A    between atoms: C_2  and  C_3
REMARK    3  A    between atoms: C_3  and  C_4
REMARK    4  A    between atoms: C_4  and  C_5
REMARK    5  A    between atoms: C_5  and  O_6
REMARK    6  A    between atoms: O_6  and  C_7
REMARK    7  A    between atoms: C_10  and  C_11
REMARK    8  A    between atoms: C_12  and  C_13
REMARK    9  A    between atoms: C_17  and  O_18
REMARK   10  A    between atoms: C_19  and  C_20
REMARK   11  A    between atoms: C_20  and  O_22
REMARK                            x       y       z     vdW  Elec       q    Type
REMARK                         _______ _______ _______ _____ _____    ______ ____
ROOT
ATOM      1  C   UNL     1       5.465   5.830  18.949  0.00  0.00    +0.000 C 
ATOM      2  C   UNL     1       4.360   5.498  19.637  0.00  0.00    +0.000 C 
ENDROOT
BRANCH   1   6
ATOM      3  C   UNL     1       6.486   4.824  14.920  0.00  0.00    +0.000 A 
ATOM      4  C   UNL     1       5.537   5.814  15.195  0.00  0.00    +0.000 A 
ATOM      5  C   UNL     1       5.185   6.124  16.510  0.00  0.00    +0.000 A 
ATOM      6  C   UNL     1       5.772   5.439  17.571  0.00  0.00    +0.000 A 
ATOM      7  C   UNL     1       6.690   4.418  17.304  0.00  0.00    +0.000 A 
ATOM      8  C   UNL     1       7.048   4.115  15.983  0.00  0.00    +0.000 A 
BRANCH   3   9
ATOM      9  O   UNL     1       6.931   4.489  13.660  0.00  0.00    +0.000 OA
BRANCH   9  10
ATOM     10  C   UNL     1       5.884   4.201  12.729  0.00  0.00    +0.000 C 
BRANCH  10  11
ATOM     11  C   UNL     1       5.884   2.743  12.288  0.00  0.00    +0.000 C 
BRANCH  11  12
ATOM     12  C   UNL     1       5.000   2.613  11.044  0.00  0.00    +0.000 C 
BRANCH  12  14
ATOM     13  C   UNL     1       3.135   3.833   9.888  0.00  0.00    +0.000 C 
ATOM     14  C   UNL     1       3.643   3.285  11.216  0.00  0.00    +0.000 C 
ENDBRANCH  12  14
ENDBRANCH  11  12
ENDBRANCH  10  11
ENDBRANCH   9  10
ENDBRANCH   3   9
ENDBRANCH   1   6
BRANCH   2  15
ATOM     15  C   UNL     1       3.260   4.682  19.106  0.00  0.00    +0.000 A 
ATOM     16  C   UNL     1       2.346   5.371  18.284  0.00  0.00    +0.000 A 
ATOM     17  C   UNL     1       1.305   4.701  17.649  0.00  0.00    +0.000 A 
ATOM     18  C   UNL     1       1.168   3.330  17.815  0.00  0.00    +0.000 A 
ATOM     19  C   UNL     1       2.058   2.637  18.644  0.00  0.00    +0.000 A 
ATOM     20  C   UNL     1       3.102   3.296  19.329  0.00  0.00    +0.000 A 
BRANCH  19  21
ATOM     21  O   UNL     1       1.888   1.278  18.772  0.00  0.00    +0.000 OA
ATOM     22  H   UNL     1       1.811   1.063  19.720  0.00  0.00    +0.000 HD
ENDBRANCH  19  21
BRANCH  20  23
ATOM     23  C   UNL     1       4.011   2.571  20.289  0.00  0.00    +0.000 C 
ATOM     24  O   UNL     1       3.744   2.327  21.461  0.00  0.00    +0.000 OA
BRANCH  23  25
ATOM     25  O   UNL     1       5.182   2.136  19.757  0.00  0.00    +0.000 OA
ATOM     26  H   UNL     1       5.915   2.142  20.409  0.00  0.00    +0.000 HD
ENDBRANCH  23  25
ENDBRANCH  20  23
ENDBRANCH   2  15
TORSDOF 10
ENDMDL
MODEL 6
REMARK VINA RESULT:      -7.2      3.356      6.102
REMARK  Name = 
REMARK  11 active torsions:
REMARK  status: ('A' for Active; 'I' for Inactive)
REMARK    1  A    between atoms: C_1  and  C_2
REMARK    2  A    between atoms: C_2  and  C_3
REMARK    3  A    between atoms: C_3  and  C_4
REMARK    4  A    between atoms: C_4  and  C_5
REMARK    5  A    between atoms: C_5  and  O_6
REMARK    6  A    between atoms: O_6  and  C_7
REMARK    7  A    between atoms: C_10  and  C_11
REMARK    8  A    between atoms: C_12  and  C_13
REMARK    9  A    between atoms: C_17  and  O_18
REMARK   10  A    between atoms: C_19  and  C_20
REMARK   11  A    between atoms: C_20  and  O_22
REMARK                            x       y       z     vdW  Elec       q    Type
REMARK                         _______ _______ _______ _____ _____    ______ ____
ROOT
ATOM      1  C   UNL     1       6.375   5.058  18.754  0.00  0.00    +0.000 C 
ATOM      2  C   UNL     1       5.273   4.914  19.508  0.00  0.00    +0.000 C 
ENDROOT
BRANCH   1   6
ATOM      3  C   UNL     1       6.743   4.720  14.506  0.00  0.00    +0.000 A 
ATOM      4  C   UNL     1       7.087   5.905  15.166  0.00  0.00    +0.000 A 
ATOM      5  C   UNL     1       6.942   6.023  16.550  0.00  0.00    +0.000 A 
ATOM      6  C   UNL     1       6.441   4.958  17.294  0.00  0.00    +0.000 A 
ATOM      7  C   UNL     1       6.055   3.784  16.638  0.00  0.00    +0.000 A 
ATOM      8  C   UNL     1       6.209   3.665  15.250  0.00  0.00    +0.000 A 
BRANCH   3   9
ATOM      9  O   UNL     1       6.901   4.496  13.156  0.00  0.00    +0.000 OA
BRANCH   9  10
ATOM     10  C   UNL     1       6.180   3.363  12.665  0.00  0.00    +0.000 C 
BRANCH  10  11
ATOM     11  C   UNL     1       4.754   3.712  12.263  0.00  0.00    +0.000 C 
BRANCH  11  12
ATOM     12  C   UNL     1       4.402   2.926  10.995  0.00  0.00    +0.000 C 
BRANCH  12  14
ATOM     13  C   UNL     1       2.941   4.261   9.451  0.00  0.00    +0.000 C 
ATOM     14  C   UNL     1       2.975   3.181  10.525  0.00  0.00    +0.000 C 
ENDBRANCH  12  14
ENDBRANCH  11  12
ENDBRANCH  10  11
ENDBRANCH   9  10
ENDBRANCH   3   9
ENDBRANCH   1   6
BRANCH   2  15
ATOM     15  C   UNL     1       3.932   4.636  18.979  0.00  0.00    +0.000 A 
ATOM     16  C   UNL     1       3.226   5.762  18.513  0.00  0.00    +0.000 A 
ATOM     17  C   UNL     1       1.978   5.631  17.911  0.00  0.00    +0.000 A 
ATOM     18  C   UNL     1       1.422   4.369  17.754  0.00  0.00    +0.000 A 
ATOM     19  C   UNL     1       2.104   3.243  18.230  0.00  0.00    +0.000 A 
ATOM     20  C   UNL     1       3.355   3.350  18.875  0.00  0.00    +0.000 A 
BRANCH  19  21
ATOM     21  O   UNL     1       1.517   2.013  18.044  0.00  0.00    +0.000 OA
ATOM     22  H   UNL     1       1.111   1.994  17.157  0.00  0.00    +0.000 HD
ENDBRANCH  19  21
BRANCH  20  23
ATOM     23  C   UNL     1       4.055   2.151  19.465  0.00  0.00    +0.000 C 
ATOM     24  O   UNL     1       4.349   2.022  20.648  0.00  0.00    +0.000 OA
BRANCH  23  25
ATOM     25  O   UNL     1       4.317   1.149  18.589  0.00  0.00    +0.000 OA
ATOM     26  H   UNL     1       4.844   1.452  17.819  0.00  0.00    +0.000 HD
ENDBRANCH  23  25
ENDBRANCH  20  23
ENDBRANCH   2  15
TORSDOF 10
ENDMDL
MODEL 7
REMARK VINA RESULT:      -7.2      3.551      5.956
REMARK  Name = 
REMARK  11 active torsions:
REMARK  status: ('A' for Active; 'I' for Inactive)
REMARK    1  A    between atoms: C_1  and  C_2
REMARK    2  A    between atoms: C_2  and  C_3
REMARK    3  A    between atoms: C_3  and  C_4
REMARK    4  A    between atoms: C_4  and  C_5
REMARK    5  A    between atoms: C_5  and  O_6
REMARK    6  A    between atoms: O_6  and  C_7
REMARK    7  A    between atoms: C_10  and  C_11
REMARK    8  A    between atoms: C_12  and  C_13
REMARK    9  A    between atoms: C_17  and  O_18
REMARK   10  A    between atoms: C_19  and  C_20
REMARK   11  A    between atoms: C_20  and  O_22
REMARK                            x       y       z     vdW  Elec       q    Type
REMARK                         _______ _______ _______ _____ _____    ______ ____
ROOT
ATOM      1  C   UNL     1       5.508   5.828  19.058  0.00  0.00    +0.000 C 
ATOM      2  C   UNL     1       4.422   5.448  19.751  0.00  0.00    +0.000 C 
ENDROOT
BRANCH   1   6
ATOM      3  C   UNL     1       6.436   5.083  14.950  0.00  0.00    +0.000 A 
ATOM      4  C   UNL     1       5.578   6.126  15.317  0.00  0.00    +0.000 A 
ATOM      5  C   UNL     1       5.255   6.352  16.656  0.00  0.00    +0.000 A 
ATOM      6  C   UNL     1       5.780   5.531  17.650  0.00  0.00    +0.000 A 
ATOM      7  C   UNL     1       6.605   4.460  17.290  0.00  0.00    +0.000 A 
ATOM      8  C   UNL     1       6.934   4.241  15.946  0.00  0.00    +0.000 A 
BRANCH   3   9
ATOM      9  O   UNL     1       6.850   4.820  13.663  0.00  0.00    +0.000 OA
BRANCH   9  10
ATOM     10  C   UNL     1       6.396   3.564  13.151  0.00  0.00    +0.000 C 
BRANCH  10  11
ATOM     11  C   UNL     1       5.206   3.716  12.213  0.00  0.00    +0.000 C 
BRANCH  11  12
ATOM     12  C   UNL     1       5.073   2.433  11.387  0.00  0.00    +0.000 C 
BRANCH  12  14
ATOM     13  C   UNL     1       6.143   0.174  11.159  0.00  0.00    +0.000 C 
ATOM     14  C   UNL     1       6.388   1.673  11.266  0.00  0.00    +0.000 C 
ENDBRANCH  12  14
ENDBRANCH  11  12
ENDBRANCH  10  11
ENDBRANCH   9  10
ENDBRANCH   3   9
ENDBRANCH   1   6
BRANCH   2  15
ATOM     15  C   UNL     1       3.310   4.666  19.196  0.00  0.00    +0.000 A 
ATOM     16  C   UNL     1       2.410   5.392  18.392  0.00  0.00    +0.000 A 
ATOM     17  C   UNL     1       1.359   4.757  17.736  0.00  0.00    +0.000 A 
ATOM     18  C   UNL     1       1.199   3.384  17.865  0.00  0.00    +0.000 A 
ATOM     19  C   UNL     1       2.075   2.654  18.677  0.00  0.00    +0.000 A 
ATOM     20  C   UNL     1       3.129   3.276  19.381  0.00  0.00    +0.000 A 
BRANCH  19  21
ATOM     21  O   UNL     1       1.882   1.295  18.767  0.00  0.00    +0.000 OA
ATOM     22  H   UNL     1       2.744   0.851  18.652  0.00  0.00    +0.000 HD
ENDBRANCH  19  21
BRANCH  20  23
ATOM     23  C   UNL     1       4.023   2.510  20.323  0.00  0.00    +0.000 C 
ATOM     24  O   UNL     1       5.158   2.129  20.060  0.00  0.00    +0.000 OA
BRANCH  23  25
ATOM     25  O   UNL     1       3.504   2.290  21.558  0.00  0.00    +0.000 OA
ATOM     26  H   UNL     1       3.976   2.790  22.257  0.00  0.00    +0.000 HD
ENDBRANCH  23  25
ENDBRANCH  20  23
ENDBRANCH   2  15
TORSDOF 10
ENDMDL
MODEL 8
REMARK VINA RESULT:      -7.1      3.733      7.134
REMARK  Name = 
REMARK  11 active torsions:
REMARK  status: ('A' for Active; 'I' for Inactive)
REMARK    1  A    between atoms: C_1  and  C_2
REMARK    2  A    between atoms: C_2  and  C_3
REMARK    3  A    between atoms: C_3  and  C_4
REMARK    4  A    between atoms: C_4  and  C_5
REMARK    5  A    between atoms: C_5  and  O_6
REMARK    6  A    between atoms: O_6  and  C_7
REMARK    7  A    between atoms: C_10  and  C_11
REMARK    8  A    between atoms: C_12  and  C_13
REMARK    9  A    between atoms: C_17  and  O_18
REMARK   10  A    between atoms: C_19  and  C_20
REMARK   11  A    between atoms: C_20  and  O_22
REMARK                            x       y       z     vdW  Elec       q    Type
REMARK                         _______ _______ _______ _____ _____    ______ ____
ROOT
ATOM      1  C   UNL     1       3.077   4.087  17.995  0.00  0.00    +0.000 C 
ATOM      2  C   UNL     1       4.347   3.828  17.642  0.00  0.00    +0.000 C 
ENDROOT
BRANCH   1   6
ATOM      3  C   UNL     1       1.853   7.601  20.102  0.00  0.00    +0.000 A 
ATOM      4  C   UNL     1       1.774   6.339  20.700  0.00  0.00    +0.000 A 
ATOM      5  C   UNL     1       2.149   5.189  20.003  0.00  0.00    +0.000 A 
ATOM      6  C   UNL     1       2.602   5.285  18.689  0.00  0.00    +0.000 A 
ATOM      7  C   UNL     1       2.644   6.538  18.068  0.00  0.00    +0.000 A 
ATOM      8  C   UNL     1       2.275   7.691  18.774  0.00  0.00    +0.000 A 
BRANCH   3   9
ATOM      9  O   UNL     1       1.554   8.790  20.729  0.00  0.00    +0.000 OA
BRANCH   9  10
ATOM     10  C   UNL     1       0.368   8.747  21.526  0.00  0.00    +0.000 C 
BRANCH  10  11
ATOM     11  C   UNL     1       0.457   9.650  22.749  0.00  0.00    +0.000 C 
BRANCH  11  12
ATOM     12  C   UNL     1      -0.961  10.094  23.128  0.00  0.00    +0.000 C 
BRANCH  12  14
ATOM     13  C   UNL     1      -2.622  11.971  23.241  0.00  0.00    +0.000 C 
ATOM     14  C   UNL     1      -1.184  11.586  22.919  0.00  0.00    +0.000 C 
ENDBRANCH  12  14
ENDBRANCH  11  12
ENDBRANCH  10  11
ENDBRANCH   9  10
ENDBRANCH   3   9
ENDBRANCH   1   6
BRANCH   2  15
ATOM     15  C   UNL     1       5.482   4.725  17.895  0.00  0.00    +0.000 A 
ATOM     16  C   UNL     1       5.977   4.706  19.214  0.00  0.00    +0.000 A 
ATOM     17  C   UNL     1       7.101   5.445  19.570  0.00  0.00    +0.000 A 
ATOM     18  C   UNL     1       7.756   6.204  18.610  0.00  0.00    +0.000 A 
ATOM     19  C   UNL     1       7.263   6.246  17.301  0.00  0.00    +0.000 A 
ATOM     20  C   UNL     1       6.105   5.535  16.919  0.00  0.00    +0.000 A 
BRANCH  19  21
ATOM     21  O   UNL     1       7.951   7.005  16.382  0.00  0.00    +0.000 OA
ATOM     22  H   UNL     1       7.404   7.780  16.149  0.00  0.00    +0.000 HD
ENDBRANCH  19  21
BRANCH  20  23
ATOM     23  C   UNL     1       5.520   5.643  15.533  0.00  0.00    +0.000 C 
ATOM     24  O   UNL     1       5.364   4.703  14.761  0.00  0.00    +0.000 OA
BRANCH  23  25
ATOM     25  O   UNL     1       5.111   6.887  15.177  0.00  0.00    +0.000 OA
ATOM     26  H   UNL     1       5.668   7.591  15.570  0.00  0.00    +0.000 HD
ENDBRANCH  23  25
ENDBRANCH  20  23
ENDBRANCH   2  15
TORSDOF 10
ENDMDL
MODEL 9
REMARK VINA RESULT:      -7.1      3.742      6.481
REMARK  Name = 
REMARK  11 active torsions:
REMARK  status: ('A' for Active; 'I' for Inactive)
REMARK    1  A    between atoms: C_1  and  C_2
REMARK    2  A    between atoms: C_2  and  C_3
REMARK    3  A    between atoms: C_3  and  C_4
REMARK    4  A    between atoms: C_4  and  C_5
REMARK    5  A    between atoms: C_5  and  O_6
REMARK    6  A    between atoms: O_6  and  C_7
REMARK    7  A    between atoms: C_10  and  C_11
REMARK    8  A    between atoms: C_12  and  C_13
REMARK    9  A    between atoms: C_17  and  O_18
REMARK   10  A    between atoms: C_19  and  C_20
REMARK   11  A    between atoms: C_20  and  O_22
REMARK                            x       y       z     vdW  Elec       q    Type
REMARK                         _______ _______ _______ _____ _____    ______ ____
ROOT
ATOM      1  C   UNL     1       6.168   5.694  18.555  0.00  0.00    +0.000 C 
ATOM      2  C   UNL     1       5.372   5.241  19.538  0.00  0.00    +0.000 C 
ENDROOT
BRANCH   1   6
ATOM      3  C   UNL     1       6.100   4.687  14.399  0.00  0.00    +0.000 A 
ATOM      4  C   UNL     1       5.238   5.659  14.918  0.00  0.00    +0.000 A 
ATOM      5  C   UNL     1       5.242   5.969  16.279  0.00  0.00    +0.000 A 
ATOM      6  C   UNL     1       6.106   5.302  17.146  0.00  0.00    +0.000 A 
ATOM      7  C   UNL     1       6.942   4.299  16.643  0.00  0.00    +0.000 A 
ATOM      8  C   UNL     1       6.941   3.997  15.274  0.00  0.00    +0.000 A 
BRANCH   3   9
ATOM      9  O   UNL     1       6.200   4.355  13.066  0.00  0.00    +0.000 OA
BRANCH   9  10
ATOM     10  C   UNL     1       6.156   2.949  12.811  0.00  0.00    +0.000 C 
BRANCH  10  11
ATOM     11  C   UNL     1       5.367   2.611  11.553  0.00  0.00    +0.000 C 
BRANCH  11  12
ATOM     12  C   UNL     1       4.281   3.676  11.362  0.00  0.00    +0.000 C 
BRANCH  12  14
ATOM     13  C   UNL     1       2.738   4.367   9.507  0.00  0.00    +0.000 C 
ATOM     14  C   UNL     1       3.177   3.224  10.414  0.00  0.00    +0.000 C 
ENDBRANCH  12  14
ENDBRANCH  11  12
ENDBRANCH  10  11
ENDBRANCH   9  10
ENDBRANCH   3   9
ENDBRANCH   1   6
BRANCH   2  15
ATOM     15  C   UNL     1       4.288   4.268  19.351  0.00  0.00    +0.000 A 
ATOM     16  C   UNL     1       4.706   2.946  19.104  0.00  0.00    +0.000 A 
ATOM     17  C   UNL     1       3.784   1.910  18.991  0.00  0.00    +0.000 A 
ATOM     18  C   UNL     1       2.430   2.178  19.135  0.00  0.00    +0.000 A 
ATOM     19  C   UNL     1       2.000   3.490  19.361  0.00  0.00    +0.000 A 
ATOM     20  C   UNL     1       2.910   4.566  19.446  0.00  0.00    +0.000 A 
BRANCH  19  21
ATOM     21  O   UNL     1       0.648   3.705  19.506  0.00  0.00    +0.000 OA
ATOM     22  H   UNL     1       0.409   4.514  19.015  0.00  0.00    +0.000 HD
ENDBRANCH  19  21
BRANCH  20  23
ATOM     23  C   UNL     1       2.448   5.993  19.605  0.00  0.00    +0.000 C 
ATOM     24  O   UNL     1       2.501   6.850  18.729  0.00  0.00    +0.000 OA
BRANCH  23  25
ATOM     25  O   UNL     1       1.899   6.290  20.810  0.00  0.00    +0.000 OA
ATOM     26  H   UNL     1       1.197   5.656  21.068  0.00  0.00    +0.000 HD
ENDBRANCH  23  25
ENDBRANCH  20  23
ENDBRANCH   2  15
TORSDOF 10
ENDMDL
