MODEL 1
REMARK VINA RESULT:      -7.4      0.000      0.000
REMARK  Name = 
REMARK  16 active torsions:
REMARK  status: ('A' for Active; 'I' for Inactive)
REMARK    1  A    between atoms: C_1  and  C_2
REMARK    2  A    between atoms: C_2  and  C_3
REMARK    3  A    between atoms: C_2  and  C_4
REMARK    4  A    between atoms: C_2  and  C_23
REMARK    5  A    between atoms: C_4  and  C_5
REMARK    6  A    between atoms: C_6  and  C_7
REMARK    7  A    between atoms: C_10  and  C_11
REMARK    8  A    between atoms: C_12  and  C_13
REMARK    9  A    between atoms: C_13  and  C_14
REMARK   10  A    between atoms: C_14  and  C_15
REMARK   11  A    between atoms: C_14  and  C_16
REMARK   12  A    between atoms: C_14  and  C_17
REMARK   13  A    between atoms: C_17  and  C_18
REMARK   14  A    between atoms: C_18  and  O_20
REMARK   15  A    between atoms: C_23  and  C_24
REMARK   16  A    between atoms: C_24  and  O_26
REMARK                            x       y       z     vdW  Elec       q    Type
REMARK                         _______ _______ _______ _____ _____    ______ ____
ROOT
ATOM      1  C   UNL     1       6.326   5.357  18.084  0.00  0.00    +0.000 A 
ATOM      2  C   UNL     1       5.798   6.279  17.175  0.00  0.00    +0.000 A 
ATOM      3  C   UNL     1       6.419   7.517  16.984  0.00  0.00    +0.000 A 
ATOM      4  C   UNL     1       7.572   7.846  17.701  0.00  0.00    +0.000 A 
ATOM      5  C   UNL     1       8.113   6.914  18.596  0.00  0.00    +0.000 A 
ATOM      6  C   UNL     1       7.494   5.672  18.782  0.00  0.00    +0.000 A 
ENDROOT
BRANCH   1   8
ATOM      7  C   UNL     1       4.598   3.895  19.124  0.00  0.00    +0.000 C 
ATOM      8  C   UNL     1       5.648   4.080  18.307  0.00  0.00    +0.000 C 
BRANCH   7   9
ATOM      9  C   UNL     1       3.905   4.938  19.966  0.00  0.00    +0.000 C 
BRANCH   9  11
ATOM     10  C   UNL     1       2.418   6.898  19.323  0.00  0.00    +0.000 C 
ATOM     11  C   UNL     1       2.487   5.365  19.471  0.00  0.00    +0.000 C 
ATOM     12  C   UNL     1       2.275   4.737  18.077  0.00  0.00    +0.000 C 
BRANCH  11  13
ATOM     13  C   UNL     1       1.413   4.852  20.463  0.00  0.00    +0.000 C 
BRANCH  13  14
ATOM     14  C   UNL     1       1.587   3.417  20.906  0.00  0.00    +0.000 C 
ATOM     15  O   UNL     1       1.324   2.447  20.206  0.00  0.00    +0.000 OA
BRANCH  14  16
ATOM     16  O   UNL     1       2.083   3.289  22.156  0.00  0.00    +0.000 OA
ATOM     17  H   UNL     1       2.657   4.029  22.433  0.00  0.00    +0.000 HD
ENDBRANCH  14  16
ENDBRANCH  13  14
ENDBRANCH  11  13
ENDBRANCH   9  11
ENDBRANCH   7   9
ENDBRANCH   1   8
BRANCH   4  18
ATOM     18  C   UNL     1       8.183   9.167  17.536  0.00  0.00    +0.000 C 
ATOM     19  C   UNL     1       8.807   9.782  18.554  0.00  0.00    +0.000 C 
BRANCH  19  20
ATOM     20  C   UNL     1       9.515  11.114  18.457  0.00  0.00    +0.000 C 
BRANCH  20  21
ATOM     21  C   UNL     1       9.915  11.751  19.832  0.00  0.00    +0.000 C 
ATOM     22  C   UNL     1       9.281  10.930  20.973  0.00  0.00    +0.000 C 
ATOM     23  C   UNL     1      11.453  11.754  19.944  0.00  0.00    +0.000 C 
BRANCH  21  24
ATOM     24  C   UNL     1       9.381  13.213  19.876  0.00  0.00    +0.000 C 
BRANCH  24  25
ATOM     25  C   UNL     1      10.201  14.259  19.130  0.00  0.00    +0.000 C 
ATOM     26  O   UNL     1      10.310  14.374  17.921  0.00  0.00    +0.000 OA
BRANCH  25  27
ATOM     27  O   UNL     1      10.840  15.102  19.975  0.00  0.00    +0.000 OA
ATOM     28  H   UNL     1      11.348  14.653  20.675  0.00  0.00    +0.000 HD
ENDBRANCH  25  27
ENDBRANCH  24  25
ENDBRANCH  21  24
ENDBRANCH  20  21
ENDBRANCH  19  20
ENDBRANCH   4  18
TORSDOF 12
ENDMDL
MODEL 2
REMARK VINA RESULT:      -7.2      4.821      7.790
REMARK  Name = 
REMARK  16 active torsions:
REMARK  status: ('A' for Active; 'I' for Inactive)
REMARK    1  A    between atoms: C_1  and  C_2
REMARK    2  A    between atoms: C_2  and  C_3
REMARK    3  A    between atoms: C_2  and  C_4
REMARK    4  A    between atoms: C_2  and  C_23
REMARK    5  A    between atoms: C_4  and  C_5
REMARK    6  A    between atoms: C_6  and  C_7
REMARK    7  A    between atoms: C_10  and  C_11
REMARK    8  A    between atoms: C_12  and  C_13
REMARK    9  A    between atoms: C_13  and  C_14
REMARK   10  A    between atoms: C_14  and  C_15
REMARK   11  A    between atoms: C_14  and  C_16
REMARK   12  A    between atoms: C_14  and  C_17
REMARK   13  A    between atoms: C_17  and  C_18
REMARK   14  A    between atoms: C_18  and  O_20
REMARK   15  A    between atoms: C_23  and  C_24
REMARK   16  A    between atoms: C_24  and  O_26
REMARK                            x       y       z     vdW  Elec       q    Type
REMARK                         _______ _______ _______ _____ _____    ______ ____
ROOT
ATOM      1  C   UNL     1       2.416   5.495  18.646  0.00  0.00    +0.000 A 
ATOM      2  C   UNL     1       2.542   6.788  18.129  0.00  0.00    +0.000 A 
ATOM      3  C   UNL     1       2.193   7.896  18.907  0.00  0.00    +0.000 A 
ATOM      4  C   UNL     1       1.710   7.722  20.206  0.00  0.00    +0.000 A 
ATOM      5  C   UNL     1       1.603   6.428  20.731  0.00  0.00    +0.000 A 
ATOM      6  C   UNL     1       1.960   5.319  19.955  0.00  0.00    +0.000 A 
ENDROOT
BRANCH   1   8
ATOM      7  C   UNL     1       3.978   3.833  17.645  0.00  0.00    +0.000 C 
ATOM      8  C   UNL     1       2.746   4.339  17.812  0.00  0.00    +0.000 C 
BRANCH   7   9
ATOM      9  C   UNL     1       5.259   4.331  18.268  0.00  0.00    +0.000 C 
BRANCH   9  11
ATOM     10  C   UNL     1       6.276   4.144  15.945  0.00  0.00    +0.000 C 
ATOM     11  C   UNL     1       6.302   4.929  17.271  0.00  0.00    +0.000 C 
ATOM     12  C   UNL     1       5.879   6.384  16.976  0.00  0.00    +0.000 C 
BRANCH  11  13
ATOM     13  C   UNL     1       7.712   4.896  17.910  0.00  0.00    +0.000 C 
BRANCH  13  14
ATOM     14  C   UNL     1       7.870   5.743  19.152  0.00  0.00    +0.000 C 
ATOM     15  O   UNL     1       7.560   5.373  20.278  0.00  0.00    +0.000 OA
BRANCH  14  16
ATOM     16  O   UNL     1       8.406   6.961  18.917  0.00  0.00    +0.000 OA
ATOM     17  H   UNL     1       8.979   6.996  18.127  0.00  0.00    +0.000 HD
ENDBRANCH  14  16
ENDBRANCH  13  14
ENDBRANCH  11  13
ENDBRANCH   9  11
ENDBRANCH   7   9
ENDBRANCH   1   8
BRANCH   4  18
ATOM     18  C   UNL     1       1.293   8.886  20.992  0.00  0.00    +0.000 C 
ATOM     19  C   UNL     1       0.091   9.459  20.812  0.00  0.00    +0.000 C 
BRANCH  19  20
ATOM     20  C   UNL     1      -0.444  10.620  21.617  0.00  0.00    +0.000 C 
BRANCH  20  21
ATOM     21  C   UNL     1      -0.627  11.953  20.813  0.00  0.00    +0.000 C 
ATOM     22  C   UNL     1      -2.091  12.421  20.937  0.00  0.00    +0.000 C 
ATOM     23  C   UNL     1       0.340  13.009  21.385  0.00  0.00    +0.000 C 
BRANCH  21  24
ATOM     24  C   UNL     1      -0.286  11.681  19.318  0.00  0.00    +0.000 C 
BRANCH  24  25
ATOM     25  C   UNL     1      -0.648  12.782  18.327  0.00  0.00    +0.000 C 
ATOM     26  O   UNL     1      -0.206  13.918  18.307  0.00  0.00    +0.000 OA
BRANCH  25  27
ATOM     27  O   UNL     1      -1.558  12.367  17.415  0.00  0.00    +0.000 OA
ATOM     28  H   UNL     1      -2.410  12.092  17.801  0.00  0.00    +0.000 HD
ENDBRANCH  25  27
ENDBRANCH  24  25
ENDBRANCH  21  24
ENDBRANCH  20  21
ENDBRANCH  19  20
ENDBRANCH   4  18
TORSDOF 12
ENDMDL
MODEL 3
REMARK VINA RESULT:      -7.0      1.241      2.076
REMARK  Name = 
REMARK  16 active torsions:
REMARK  status: ('A' for Active; 'I' for Inactive)
REMARK    1  A    between atoms: C_1  and  C_2
REMARK    2  A    between atoms: C_2  and  C_3
REMARK    3  A    between atoms: C_2  and  C_4
REMARK    4  A    between atoms: C_2  and  C_23
REMARK    5  A    between atoms: C_4  and  C_5
REMARK    6  A    between atoms: C_6  and  C_7
REMARK    7  A    between atoms: C_10  and  C_11
REMARK    8  A    between atoms: C_12  and  C_13
REMARK    9  A    between atoms: C_13  and  C_14
REMARK   10  A    between atoms: C_14  and  C_15
REMARK   11  A    between atoms: C_14  and  C_16
REMARK   12  A    between atoms: C_14  and  C_17
REMARK   13  A    between atoms: C_17  and  C_18
REMARK   14  A    between atoms: C_18  and  O_20
REMARK   15  A    between atoms: C_23  and  C_24
REMARK   16  A    between atoms: C_24  and  O_26
REMARK                            x       y       z     vdW  Elec       q    Type
REMARK                         _______ _______ _______ _____ _____    ______ ____
ROOT
ATOM      1  C   UNL     1       5.593   5.043  17.083  0.00  0.00    +0.000 A 
ATOM      2  C   UNL     1       6.565   4.618  17.994  0.00  0.00    +0.000 A 
ATOM      3  C   UNL     1       7.519   5.517  18.480  0.00  0.00    +0.000 A 
ATOM      4  C   UNL     1       7.513   6.849  18.057  0.00  0.00    +0.000 A 
ATOM      5  C   UNL     1       6.527   7.280  17.160  0.00  0.00    +0.000 A 
ATOM      6  C   UNL     1       5.568   6.380  16.680  0.00  0.00    +0.000 A 
ENDROOT
BRANCH   1   8
ATOM      7  C   UNL     1       3.638   3.510  17.256  0.00  0.00    +0.000 C 
ATOM      8  C   UNL     1       4.624   4.086  16.550  0.00  0.00    +0.000 C 
BRANCH   7   9
ATOM      9  C   UNL     1       3.319   3.721  18.716  0.00  0.00    +0.000 C 
BRANCH   9  11
ATOM     10  C   UNL     1       3.077   6.171  19.354  0.00  0.00    +0.000 C 
ATOM     11  C   UNL     1       2.312   4.875  19.022  0.00  0.00    +0.000 C 
ATOM     12  C   UNL     1       1.484   5.119  17.742  0.00  0.00    +0.000 C 
BRANCH  11  13
ATOM     13  C   UNL     1       1.386   4.460  20.193  0.00  0.00    +0.000 C 
BRANCH  13  14
ATOM     14  C   UNL     1       1.123   2.975  20.302  0.00  0.00    +0.000 C 
ATOM     15  O   UNL     1       1.725   2.226  21.061  0.00  0.00    +0.000 OA
BRANCH  14  16
ATOM     16  O   UNL     1       0.137   2.535  19.489  0.00  0.00    +0.000 OA
ATOM     17  H   UNL     1      -0.401   1.816  19.872  0.00  0.00    +0.000 HD
ENDBRANCH  14  16
ENDBRANCH  13  14
ENDBRANCH  11  13
ENDBRANCH   9  11
ENDBRANCH   7   9
ENDBRANCH   1   8
BRANCH   4  18
ATOM     18  C   UNL     1       8.551   7.769  18.527  0.00  0.00    +0.000 C 
ATOM     19  C   UNL     1       8.365   9.100  18.513  0.00  0.00    +0.000 C 
BRANCH  19  20
ATOM     20  C   UNL     1       9.354  10.118  19.034  0.00  0.00    +0.000 C 
BRANCH  20  21
ATOM     21  C   UNL     1       9.277  11.525  18.348  0.00  0.00    +0.000 C 
ATOM     22  C   UNL     1      10.569  11.766  17.542  0.00  0.00    +0.000 C 
ATOM     23  C   UNL     1       8.040  11.556  17.429  0.00  0.00    +0.000 C 
BRANCH  21  24
ATOM     24  C   UNL     1       9.138  12.610  19.456  0.00  0.00    +0.000 C 
BRANCH  24  25
ATOM     25  C   UNL     1      10.433  13.095  20.099  0.00  0.00    +0.000 C 
ATOM     26  O   UNL     1      10.998  14.154  19.890  0.00  0.00    +0.000 OA
BRANCH  25  27
ATOM     27  O   UNL     1      10.934  12.193  20.976  0.00  0.00    +0.000 OA
ATOM     28  H   UNL     1      11.678  11.669  20.625  0.00  0.00    +0.000 HD
ENDBRANCH  25  27
ENDBRANCH  24  25
ENDBRANCH  21  24
ENDBRANCH  20  21
ENDBRANCH  19  20
ENDBRANCH   4  18
TORSDOF 12
ENDMDL
MODEL 4
REMARK VINA RESULT:      -6.9      1.642      2.469
REMARK  Name = 
REMARK  16 active torsions:
REMARK  status: ('A' for Active; 'I' for Inactive)
REMARK    1  A    between atoms: C_1  and  C_2
REMARK    2  A    between atoms: C_2  and  C_3
REMARK    3  A    between atoms: C_2  and  C_4
REMARK    4  A    between atoms: C_2  and  C_23
REMARK    5  A    between atoms: C_4  and  C_5
REMARK    6  A    between atoms: C_6  and  C_7
REMARK    7  A    between atoms: C_10  and  C_11
REMARK    8  A    between atoms: C_12  and  C_13
REMARK    9  A    between atoms: C_13  and  C_14
REMARK   10  A    between atoms: C_14  and  C_15
REMARK   11  A    between atoms: C_14  and  C_16
REMARK   12  A    between atoms: C_14  and  C_17
REMARK   13  A    between atoms: C_17  and  C_18
REMARK   14  A    between atoms: C_18  and  O_20
REMARK   15  A    between atoms: C_23  and  C_24
REMARK   16  A    between atoms: C_24  and  O_26
REMARK                            x       y       z     vdW  Elec       q    Type
REMARK                         _______ _______ _______ _____ _____    ______ ____
ROOT
ATOM      1  C   UNL     1       6.473   5.309  18.141  0.00  0.00    +0.000 A 
ATOM      2  C   UNL     1       7.606   5.632  18.894  0.00  0.00    +0.000 A 
ATOM      3  C   UNL     1       8.225   6.876  18.740  0.00  0.00    +0.000 A 
ATOM      4  C   UNL     1       7.719   7.808  17.830  0.00  0.00    +0.000 A 
ATOM      5  C   UNL     1       6.572   7.492  17.091  0.00  0.00    +0.000 A 
ATOM      6  C   UNL     1       5.949   6.248  17.250  0.00  0.00    +0.000 A 
ENDROOT
BRANCH   1   8
ATOM      7  C   UNL     1       4.722   3.733  18.951  0.00  0.00    +0.000 C 
ATOM      8  C   UNL     1       5.856   3.989  18.280  0.00  0.00    +0.000 C 
BRANCH   7   9
ATOM      9  C   UNL     1       3.855   4.725  19.687  0.00  0.00    +0.000 C 
BRANCH   9  11
ATOM     10  C   UNL     1       1.396   4.861  20.321  0.00  0.00    +0.000 C 
ATOM     11  C   UNL     1       2.396   4.870  19.148  0.00  0.00    +0.000 C 
ATOM     12  C   UNL     1       2.297   6.240  18.443  0.00  0.00    +0.000 C 
BRANCH  11  13
ATOM     13  C   UNL     1       2.094   3.726  18.149  0.00  0.00    +0.000 C 
BRANCH  13  14
ATOM     14  C   UNL     1       1.463   2.496  18.761  0.00  0.00    +0.000 C 
ATOM     15  O   UNL     1       2.057   1.711  19.490  0.00  0.00    +0.000 OA
BRANCH  14  16
ATOM     16  O   UNL     1       0.158   2.338  18.445  0.00  0.00    +0.000 OA
ATOM     17  H   UNL     1      -0.106   2.784  17.617  0.00  0.00    +0.000 HD
ENDBRANCH  14  16
ENDBRANCH  13  14
ENDBRANCH  11  13
ENDBRANCH   9  11
ENDBRANCH   7   9
ENDBRANCH   1   8
BRANCH   4  18
ATOM     18  C   UNL     1       8.407   9.086  17.635  0.00  0.00    +0.000 C 
ATOM     19  C   UNL     1       8.628   9.927  18.660  0.00  0.00    +0.000 C 
BRANCH  19  20
ATOM     20  C   UNL     1       9.380  11.233  18.561  0.00  0.00    +0.000 C 
BRANCH  20  21
ATOM     21  C   UNL     1       9.774  11.874  19.936  0.00  0.00    +0.000 C 
ATOM     22  C   UNL     1      11.310  11.895  20.063  0.00  0.00    +0.000 C 
ATOM     23  C   UNL     1       9.196  13.303  19.995  0.00  0.00    +0.000 C 
BRANCH  21  24
ATOM     24  C   UNL     1       9.163  11.011  21.079  0.00  0.00    +0.000 C 
BRANCH  24  25
ATOM     25  C   UNL     1       8.535  11.771  22.243  0.00  0.00    +0.000 C 
ATOM     26  O   UNL     1       7.345  11.899  22.472  0.00  0.00    +0.000 OA
BRANCH  25  27
ATOM     27  O   UNL     1       9.469  12.325  23.051  0.00  0.00    +0.000 OA
ATOM     28  H   UNL     1      10.376  12.283  22.697  0.00  0.00    +0.000 HD
ENDBRANCH  25  27
ENDBRANCH  24  25
ENDBRANCH  21  24
ENDBRANCH  20  21
ENDBRANCH  19  20
ENDBRANCH   4  18
TORSDOF 12
ENDMDL
MODEL 5
REMARK VINA RESULT:      -6.9      1.518      2.159
REMARK  Name = 
REMARK  16 active torsions:
REMARK  status: ('A' for Active; 'I' for Inactive)
REMARK    1  A    between atoms: C_1  and  C_2
REMARK    2  A    between atoms: C_2  and  C_3
REMARK    3  A    between atoms: C_2  and  C_4
REMARK    4  A    between atoms: C_2  and  C_23
REMARK    5  A    between atoms: C_4  and  C_5
REMARK    6  A    between atoms: C_6  and  C_7
REMARK    7  A    between atoms: C_10  and  C_11
REMARK    8  A    between atoms: C_12  and  C_13
REMARK    9  A    between atoms: C_13  and  C_14
REMARK   10  A    between atoms: C_14  and  C_15
REMARK   11  A    between atoms: C_14  and  C_16
REMARK   12  A    between atoms: C_14  and  C_17
REMARK   13  A    between atoms: C_17  and  C_18
REMARK   14  A    between atoms: C_18  and  O_20
REMARK   15  A    between atoms: C_23  and  C_24
REMARK   16  A    between atoms: C_24  and  O_26
REMARK                            x       y       z     vdW  Elec       q    Type
REMARK                         _______ _______ _______ _____ _____    ______ ____
ROOT
ATOM      1  C   UNL     1       6.329   5.691  17.284  0.00  0.00    +0.000 A 
ATOM      2  C   UNL     1       7.215   5.335  18.305  0.00  0.00    +0.000 A 
ATOM      3  C   UNL     1       8.060   6.294  18.872  0.00  0.00    +0.000 A 
ATOM      4  C   UNL     1       8.030   7.616  18.421  0.00  0.00    +0.000 A 
ATOM      5  C   UNL     1       7.127   7.976  17.412  0.00  0.00    +0.000 A 
ATOM      6  C   UNL     1       6.277   7.017  16.850  0.00  0.00    +0.000 A 
ENDROOT
BRANCH   1   8
ATOM      7  C   UNL     1       4.534   3.964  17.310  0.00  0.00    +0.000 C 
ATOM      8  C   UNL     1       5.476   4.672  16.669  0.00  0.00    +0.000 C 
BRANCH   7   9
ATOM      9  C   UNL     1       4.153   4.062  18.767  0.00  0.00    +0.000 C 
BRANCH   9  11
ATOM     10  C   UNL     1       2.601   5.741  19.880  0.00  0.00    +0.000 C 
ATOM     11  C   UNL     1       2.666   4.445  19.047  0.00  0.00    +0.000 C 
ATOM     12  C   UNL     1       1.992   4.715  17.684  0.00  0.00    +0.000 C 
BRANCH  11  13
ATOM     13  C   UNL     1       1.956   3.278  19.778  0.00  0.00    +0.000 C 
BRANCH  13  14
ATOM     14  C   UNL     1       1.365   2.223  18.871  0.00  0.00    +0.000 C 
ATOM     15  O   UNL     1       0.184   2.180  18.549  0.00  0.00    +0.000 OA
BRANCH  14  16
ATOM     16  O   UNL     1       2.267   1.323  18.421  0.00  0.00    +0.000 OA
ATOM     17  H   UNL     1       2.195   1.133  17.466  0.00  0.00    +0.000 HD
ENDBRANCH  14  16
ENDBRANCH  13  14
ENDBRANCH  11  13
ENDBRANCH   9  11
ENDBRANCH   7   9
ENDBRANCH   1   8
BRANCH   4  18
ATOM     18  C   UNL     1       8.958   8.600  18.982  0.00  0.00    +0.000 C 
ATOM     19  C   UNL     1       8.818   9.914  18.737  0.00  0.00    +0.000 C 
BRANCH  19  20
ATOM     20  C   UNL     1       9.690  11.001  19.321  0.00  0.00    +0.000 C 
BRANCH  20  21
ATOM     21  C   UNL     1       9.441  12.434  18.736  0.00  0.00    +0.000 C 
ATOM     22  C   UNL     1       8.578  12.317  17.464  0.00  0.00    +0.000 C 
ATOM     23  C   UNL     1       8.731  13.285  19.807  0.00  0.00    +0.000 C 
BRANCH  21  24
ATOM     24  C   UNL     1      10.816  13.072  18.383  0.00  0.00    +0.000 C 
BRANCH  24  25
ATOM     25  C   UNL     1      10.920  13.755  17.023  0.00  0.00    +0.000 C 
ATOM     26  O   UNL     1      11.447  13.305  16.020  0.00  0.00    +0.000 OA
BRANCH  25  27
ATOM     27  O   UNL     1      10.342  14.978  17.023  0.00  0.00    +0.000 OA
ATOM     28  H   UNL     1      10.920  15.691  16.694  0.00  0.00    +0.000 HD
ENDBRANCH  25  27
ENDBRANCH  24  25
ENDBRANCH  21  24
ENDBRANCH  20  21
ENDBRANCH  19  20
ENDBRANCH   4  18
TORSDOF 12
ENDMDL
MODEL 6
REMARK VINA RESULT:      -6.8      6.132      8.534
REMARK  Name = 
REMARK  16 active torsions:
REMARK  status: ('A' for Active; 'I' for Inactive)
REMARK    1  A    between atoms: C_1  and  C_2
REMARK    2  A    between atoms: C_2  and  C_3
REMARK    3  A    between atoms: C_2  and  C_4
REMARK    4  A    between atoms: C_2  and  C_23
REMARK    5  A    between atoms: C_4  and  C_5
REMARK    6  A    between atoms: C_6  and  C_7
REMARK    7  A    between atoms: C_10  and  C_11
REMARK    8  A    between atoms: C_12  and  C_13
REMARK    9  A    between atoms: C_13  and  C_14
REMARK   10  A    between atoms: C_14  and  C_15
REMARK   11  A    between atoms: C_14  and  C_16
REMARK   12  A    between atoms: C_14  and  C_17
REMARK   13  A    between atoms: C_17  and  C_18
REMARK   14  A    between atoms: C_18  and  O_20
REMARK   15  A    between atoms: C_23  and  C_24
REMARK   16  A    between atoms: C_24  and  O_26
REMARK                            x       y       z     vdW  Elec       q    Type
REMARK                         _______ _______ _______ _____ _____    ______ ____
ROOT
ATOM      1  C   UNL     1       2.485   7.734  18.569  0.00  0.00    +0.000 A 
ATOM      2  C   UNL     1       1.948   8.610  17.620  0.00  0.00    +0.000 A 
ATOM      3  C   UNL     1       0.966   9.534  17.989  0.00  0.00    +0.000 A 
ATOM      4  C   UNL     1       0.509   9.590  19.307  0.00  0.00    +0.000 A 
ATOM      5  C   UNL     1       1.061   8.726  20.262  0.00  0.00    +0.000 A 
ATOM      6  C   UNL     1       2.049   7.805  19.894  0.00  0.00    +0.000 A 
ENDROOT
BRANCH   1   8
ATOM      7  C   UNL     1       3.247   5.432  18.000  0.00  0.00    +0.000 C 
ATOM      8  C   UNL     1       3.483   6.743  18.166  0.00  0.00    +0.000 C 
BRANCH   7   9
ATOM      9  C   UNL     1       1.933   4.712  18.183  0.00  0.00    +0.000 C 
BRANCH   9  11
ATOM     10  C   UNL     1       0.644   2.719  19.095  0.00  0.00    +0.000 C 
ATOM     11  C   UNL     1       2.040   3.244  18.706  0.00  0.00    +0.000 C 
ATOM     12  C   UNL     1       2.574   2.377  17.546  0.00  0.00    +0.000 C 
BRANCH  11  13
ATOM     13  C   UNL     1       3.011   3.191  19.912  0.00  0.00    +0.000 C 
BRANCH  13  14
ATOM     14  C   UNL     1       2.402   3.582  21.239  0.00  0.00    +0.000 C 
ATOM     15  O   UNL     1       1.990   2.779  22.067  0.00  0.00    +0.000 OA
BRANCH  14  16
ATOM     16  O   UNL     1       2.363   4.916  21.449  0.00  0.00    +0.000 OA
ATOM     17  H   UNL     1       1.497   5.323  21.256  0.00  0.00    +0.000 HD
ENDBRANCH  14  16
ENDBRANCH  13  14
ENDBRANCH  11  13
ENDBRANCH   9  11
ENDBRANCH   7   9
ENDBRANCH   1   8
BRANCH   4  18
ATOM     18  C   UNL     1      -0.561  10.523  19.671  0.00  0.00    +0.000 C 
ATOM     19  C   UNL     1      -0.410  11.403  20.675  0.00  0.00    +0.000 C 
BRANCH  19  20
ATOM     20  C   UNL     1      -1.434  12.440  21.078  0.00  0.00    +0.000 C 
BRANCH  20  21
ATOM     21  C   UNL     1      -1.850  12.404  22.589  0.00  0.00    +0.000 C 
ATOM     22  C   UNL     1      -1.377  11.076  23.212  0.00  0.00    +0.000 C 
ATOM     23  C   UNL     1      -1.205  13.609  23.304  0.00  0.00    +0.000 C 
BRANCH  21  24
ATOM     24  C   UNL     1      -3.401  12.506  22.679  0.00  0.00    +0.000 C 
BRANCH  24  25
ATOM     25  C   UNL     1      -3.991  13.912  22.676  0.00  0.00    +0.000 C 
ATOM     26  O   UNL     1      -4.019  14.689  21.736  0.00  0.00    +0.000 OA
BRANCH  25  27
ATOM     27  O   UNL     1      -4.514  14.247  23.878  0.00  0.00    +0.000 OA
ATOM     28  H   UNL     1      -5.299  14.822  23.824  0.00  0.00    +0.000 HD
ENDBRANCH  25  27
ENDBRANCH  24  25
ENDBRANCH  21  24
ENDBRANCH  20  21
ENDBRANCH  19  20
ENDBRANCH   4  18
TORSDOF 12
ENDMDL
MODEL 7
REMARK VINA RESULT:      -6.7      5.153      7.924
REMARK  Name = 
REMARK  16 active torsions:
REMARK  status: ('A' for Active; 'I' for Inactive)
REMARK    1  A    between atoms: C_1  and  C_2
REMARK    2  A    between atoms: C_2  and  C_3
REMARK    3  A    between atoms: C_2  and  C_4
REMARK    4  A    between atoms: C_2  and  C_23
REMARK    5  A    between atoms: C_4  and  C_5
REMARK    6  A    between atoms: C_6  and  C_7
REMARK    7  A    between atoms: C_10  and  C_11
REMARK    8  A    between atoms: C_12  and  C_13
REMARK    9  A    between atoms: C_13  and  C_14
REMARK   10  A    between atoms: C_14  and  C_15
REMARK   11  A    between atoms: C_14  and  C_16
REMARK   12  A    between atoms: C_14  and  C_17
REMARK   13  A    between atoms: C_17  and  C_18
REMARK   14  A    between atoms: C_18  and  O_20
REMARK   15  A    between atoms: C_23  and  C_24
REMARK   16  A    between atoms: C_24  and  O_26
REMARK                            x       y       z     vdW  Elec       q    Type
REMARK                         _______ _______ _______ _____ _____    ______ ____
ROOT
ATOM      1  C   UNL     1       2.543   5.424  18.624  0.00  0.00    +0.000 A 
ATOM      2  C   UNL     1       2.618   6.762  18.226  0.00  0.00    +0.000 A 
ATOM      3  C   UNL     1       2.218   7.780  19.097  0.00  0.00    +0.000 A 
ATOM      4  C   UNL     1       1.736   7.471  20.371  0.00  0.00    +0.000 A 
ATOM      5  C   UNL     1       1.680   6.131  20.777  0.00  0.00    +0.000 A 
ATOM      6  C   UNL     1       2.087   5.112  19.907  0.00  0.00    +0.000 A 
ENDROOT
BRANCH   1   8
ATOM      7  C   UNL     1       3.943   4.431  16.819  0.00  0.00    +0.000 C 
ATOM      8  C   UNL     1       2.926   4.362  17.692  0.00  0.00    +0.000 C 
BRANCH   7   9
ATOM      9  C   UNL     1       4.892   5.586  16.615  0.00  0.00    +0.000 C 
BRANCH   9  11
ATOM     10  C   UNL     1       6.986   6.808  17.382  0.00  0.00    +0.000 C 
ATOM     11  C   UNL     1       6.288   5.437  17.300  0.00  0.00    +0.000 C 
ATOM     12  C   UNL     1       6.046   4.934  18.739  0.00  0.00    +0.000 C 
BRANCH  11  13
ATOM     13  C   UNL     1       7.149   4.419  16.510  0.00  0.00    +0.000 C 
BRANCH  13  14
ATOM     14  C   UNL     1       7.101   4.575  15.007  0.00  0.00    +0.000 C 
ATOM     15  O   UNL     1       7.664   5.473  14.393  0.00  0.00    +0.000 OA
BRANCH  14  16
ATOM     16  O   UNL     1       6.386   3.614  14.382  0.00  0.00    +0.000 OA
ATOM     17  H   UNL     1       5.618   3.294  14.894  0.00  0.00    +0.000 HD
ENDBRANCH  14  16
ENDBRANCH  13  14
ENDBRANCH  11  13
ENDBRANCH   9  11
ENDBRANCH   7   9
ENDBRANCH   1   8
BRANCH   4  18
ATOM     18  C   UNL     1       1.266   8.540  21.255  0.00  0.00    +0.000 C 
ATOM     19  C   UNL     1       0.095   9.163  21.038  0.00  0.00    +0.000 C 
BRANCH  19  20
ATOM     20  C   UNL     1      -0.494  10.232  21.930  0.00  0.00    +0.000 C 
BRANCH  20  21
ATOM     21  C   UNL     1      -0.528  11.669  21.305  0.00  0.00    +0.000 C 
ATOM     22  C   UNL     1      -1.134  12.650  22.328  0.00  0.00    +0.000 C 
ATOM     23  C   UNL     1       0.912  12.077  20.936  0.00  0.00    +0.000 C 
BRANCH  21  24
ATOM     24  C   UNL     1      -1.410  11.632  20.023  0.00  0.00    +0.000 C 
BRANCH  24  25
ATOM     25  C   UNL     1      -0.748  12.090  18.728  0.00  0.00    +0.000 C 
ATOM     26  O   UNL     1      -0.642  13.237  18.330  0.00  0.00    +0.000 OA
BRANCH  25  27
ATOM     27  O   UNL     1      -0.258  11.051  18.012  0.00  0.00    +0.000 OA
ATOM     28  H   UNL     1      -0.933  10.568  17.501  0.00  0.00    +0.000 HD
ENDBRANCH  25  27
ENDBRANCH  24  25
ENDBRANCH  21  24
ENDBRANCH  20  21
ENDBRANCH  19  20
ENDBRANCH   4  18
TORSDOF 12
ENDMDL
MODEL 8
REMARK VINA RESULT:      -6.7      5.010      7.679
REMARK  Name = 
REMARK  16 active torsions:
REMARK  status: ('A' for Active; 'I' for Inactive)
REMARK    1  A    between atoms: C_1  and  C_2
REMARK    2  A    between atoms: C_2  and  C_3
REMARK    3  A    between atoms: C_2  and  C_4
REMARK    4  A    between atoms: C_2  and  C_23
REMARK    5  A    between atoms: C_4  and  C_5
REMARK    6  A    between atoms: C_6  and  C_7
REMARK    7  A    between atoms: C_10  and  C_11
REMARK    8  A    between atoms: C_12  and  C_13
REMARK    9  A    between atoms: C_13  and  C_14
REMARK   10  A    between atoms: C_14  and  C_15
REMARK   11  A    between atoms: C_14  and  C_16
REMARK   12  A    between atoms: C_14  and  C_17
REMARK   13  A    between atoms: C_17  and  C_18
REMARK   14  A    between atoms: C_18  and  O_20
REMARK   15  A    between atoms: C_23  and  C_24
REMARK   16  A    between atoms: C_24  and  O_26
REMARK                            x       y       z     vdW  Elec       q    Type
REMARK                         _______ _______ _______ _____ _____    ______ ____
ROOT
ATOM      1  C   UNL     1       2.453   5.361  18.644  0.00  0.00    +0.000 A 
ATOM      2  C   UNL     1       1.996   5.007  19.917  0.00  0.00    +0.000 A 
ATOM      3  C   UNL     1       1.601   5.995  20.825  0.00  0.00    +0.000 A 
ATOM      4  C   UNL     1       1.664   7.345  20.470  0.00  0.00    +0.000 A 
ATOM      5  C   UNL     1       2.102   7.697  19.187  0.00  0.00    +0.000 A 
ATOM      6  C   UNL     1       2.490   6.708  18.277  0.00  0.00    +0.000 A 
ENDROOT
BRANCH   1   8
ATOM      7  C   UNL     1       4.183   4.019  17.456  0.00  0.00    +0.000 C 
ATOM      8  C   UNL     1       2.901   4.323  17.715  0.00  0.00    +0.000 C 
BRANCH   7   9
ATOM      9  C   UNL     1       5.410   4.662  18.054  0.00  0.00    +0.000 C 
BRANCH   9  11
ATOM     10  C   UNL     1       5.441   6.399  16.197  0.00  0.00    +0.000 C 
ATOM     11  C   UNL     1       6.309   5.453  17.051  0.00  0.00    +0.000 C 
ATOM     12  C   UNL     1       7.284   6.314  17.883  0.00  0.00    +0.000 C 
BRANCH  11  13
ATOM     13  C   UNL     1       7.092   4.459  16.158  0.00  0.00    +0.000 C 
BRANCH  13  14
ATOM     14  C   UNL     1       7.043   4.757  14.677  0.00  0.00    +0.000 C 
ATOM     15  O   UNL     1       7.787   5.549  14.112  0.00  0.00    +0.000 OA
BRANCH  14  16
ATOM     16  O   UNL     1       6.103   4.052  14.010  0.00  0.00    +0.000 OA
ATOM     17  H   UNL     1       5.197   4.171  14.356  0.00  0.00    +0.000 HD
ENDBRANCH  14  16
ENDBRANCH  13  14
ENDBRANCH  11  13
ENDBRANCH   9  11
ENDBRANCH   7   9
ENDBRANCH   1   8
BRANCH   4  18
ATOM     18  C   UNL     1       1.302   8.374  21.447  0.00  0.00    +0.000 C 
ATOM     19  C   UNL     1       0.523   9.416  21.111  0.00  0.00    +0.000 C 
BRANCH  19  20
ATOM     20  C   UNL     1       0.052  10.488  22.067  0.00  0.00    +0.000 C 
BRANCH  20  21
ATOM     21  C   UNL     1      -0.295  11.863  21.398  0.00  0.00    +0.000 C 
ATOM     22  C   UNL     1      -1.265  11.623  20.224  0.00  0.00    +0.000 C 
ATOM     23  C   UNL     1      -0.932  12.779  22.461  0.00  0.00    +0.000 C 
BRANCH  21  24
ATOM     24  C   UNL     1       1.022  12.504  20.870  0.00  0.00    +0.000 C 
BRANCH  24  25
ATOM     25  C   UNL     1       1.238  13.978  21.195  0.00  0.00    +0.000 C 
ATOM     26  O   UNL     1       1.862  14.432  22.139  0.00  0.00    +0.000 OA
BRANCH  25  27
ATOM     27  O   UNL     1       0.641  14.791  20.293  0.00  0.00    +0.000 OA
ATOM     28  H   UNL     1       0.704  14.478  19.372  0.00  0.00    +0.000 HD
ENDBRANCH  25  27
ENDBRANCH  24  25
ENDBRANCH  21  24
ENDBRANCH  20  21
ENDBRANCH  19  20
ENDBRANCH   4  18
TORSDOF 12
ENDMDL
MODEL 9
REMARK VINA RESULT:      -6.7      1.115      1.435
REMARK  Name = 
REMARK  16 active torsions:
REMARK  status: ('A' for Active; 'I' for Inactive)
REMARK    1  A    between atoms: C_1  and  C_2
REMARK    2  A    between atoms: C_2  and  C_3
REMARK    3  A    between atoms: C_2  and  C_4
REMARK    4  A    between atoms: C_2  and  C_23
REMARK    5  A    between atoms: C_4  and  C_5
REMARK    6  A    between atoms: C_6  and  C_7
REMARK    7  A    between atoms: C_10  and  C_11
REMARK    8  A    between atoms: C_12  and  C_13
REMARK    9  A    between atoms: C_13  and  C_14
REMARK   10  A    between atoms: C_14  and  C_15
REMARK   11  A    between atoms: C_14  and  C_16
REMARK   12  A    between atoms: C_14  and  C_17
REMARK   13  A    between atoms: C_17  and  C_18
REMARK   14  A    between atoms: C_18  and  O_20
REMARK   15  A    between atoms: C_23  and  C_24
REMARK   16  A    between atoms: C_24  and  O_26
REMARK                            x       y       z     vdW  Elec       q    Type
REMARK                         _______ _______ _______ _____ _____    ______ ____
ROOT
ATOM      1  C   UNL     1       7.178   5.827  17.961  0.00  0.00    +0.000 A 
ATOM      2  C   UNL     1       6.698   6.738  17.015  0.00  0.00    +0.000 A 
ATOM      3  C   UNL     1       7.101   8.076  17.057  0.00  0.00    +0.000 A 
ATOM      4  C   UNL     1       7.984   8.517  18.046  0.00  0.00    +0.000 A 
ATOM      5  C   UNL     1       8.480   7.599  18.981  0.00  0.00    +0.000 A 
ATOM      6  C   UNL     1       8.081   6.258  18.935  0.00  0.00    +0.000 A 
ENDROOT
BRANCH   1   8
ATOM      7  C   UNL     1       5.459   4.035  18.157  0.00  0.00    +0.000 C 
ATOM      8  C   UNL     1       6.720   4.437  17.934  0.00  0.00    +0.000 C 
BRANCH   7   9
ATOM      9  C   UNL     1       4.267   4.905  18.473  0.00  0.00    +0.000 C 
BRANCH   9  11
ATOM     10  C   UNL     1       1.844   4.394  17.897  0.00  0.00    +0.000 C 
ATOM     11  C   UNL     1       2.977   4.142  18.911  0.00  0.00    +0.000 C 
ATOM     12  C   UNL     1       3.305   2.634  18.900  0.00  0.00    +0.000 C 
BRANCH  11  13
ATOM     13  C   UNL     1       2.562   4.595  20.333  0.00  0.00    +0.000 C 
BRANCH  13  14
ATOM     14  C   UNL     1       1.948   3.513  21.193  0.00  0.00    +0.000 C 
ATOM     15  O   UNL     1       2.524   2.972  22.128  0.00  0.00    +0.000 OA
BRANCH  14  16
ATOM     16  O   UNL     1       0.680   3.196  20.848  0.00  0.00    +0.000 OA
ATOM     17  H   UNL     1       0.268   3.829  20.228  0.00  0.00    +0.000 HD
ENDBRANCH  14  16
ENDBRANCH  13  14
ENDBRANCH  11  13
ENDBRANCH   9  11
ENDBRANCH   7   9
ENDBRANCH   1   8
BRANCH   4  18
ATOM     18  C   UNL     1       8.355   9.932  18.116  0.00  0.00    +0.000 C 
ATOM     19  C   UNL     1       9.609  10.313  18.415  0.00  0.00    +0.000 C 
BRANCH  19  20
ATOM     20  C   UNL     1      10.094  11.744  18.450  0.00  0.00    +0.000 C 
BRANCH  20  21
ATOM     21  C   UNL     1      10.699  12.204  19.820  0.00  0.00    +0.000 C 
ATOM     22  C   UNL     1       9.902  11.552  20.968  0.00  0.00    +0.000 C 
ATOM     23  C   UNL     1      12.181  11.782  19.870  0.00  0.00    +0.000 C 
BRANCH  21  24
ATOM     24  C   UNL     1      10.589  13.754  19.917  0.00  0.00    +0.000 C 
BRANCH  24  25
ATOM     25  C   UNL     1       9.438  14.402  19.154  0.00  0.00    +0.000 C 
ATOM     26  O   UNL     1       9.508  14.981  18.083  0.00  0.00    +0.000 OA
BRANCH  25  27
ATOM     27  O   UNL     1       8.259  14.275  19.806  0.00  0.00    +0.000 OA
ATOM     28  H   UNL     1       8.340  14.278  20.778  0.00  0.00    +0.000 HD
ENDBRANCH  25  27
ENDBRANCH  24  25
ENDBRANCH  21  24
ENDBRANCH  20  21
ENDBRANCH  19  20
ENDBRANCH   4  18
TORSDOF 12
ENDMDL
