MODEL 1
REMARK VINA RESULT:      -7.6      0.000      0.000
REMARK  Name = 
REMARK  14 active torsions:
REMARK  status: ('A' for Active; 'I' for Inactive)
REMARK    1  A    between atoms: C_1  and  C_2
REMARK    2  A    between atoms: C_2  and  C_4
REMARK    3  A    between atoms: C_4  and  C_5
REMARK    4  A    between atoms: C_5  and  C_6
REMARK    5  A    between atoms: C_6  and  C_7
REMARK    6  A    between atoms: C_7  and  C_8
REMARK    7  A    between atoms: C_8  and  O_9
REMARK    8  A    between atoms: O_9  and  C_10
REMARK    9  A    between atoms: C_14  and  O_15
REMARK   10  A    between atoms: O_15  and  C_16
REMARK   11  A    between atoms: C_16  and  C_17
REMARK   12  A    between atoms: C_17  and  N_18
REMARK   13  A    between atoms: C_20  and  C_21
REMARK   14  A    between atoms: N_24  and  C_25
REMARK                            x       y       z     vdW  Elec       q    Type
REMARK                         _______ _______ _______ _____ _____    ______ ____
ROOT
ATOM      1  C   UNL     1       4.176   5.708  18.293  0.00  0.00    +0.000 A 
ATOM      2  C   UNL     1       3.811   5.512  19.620  0.00  0.00    +0.000 A 
ATOM      3  C   UNL     1       2.904   6.389  20.248  0.00  0.00    +0.000 A 
ATOM      4  C   UNL     1       2.349   7.491  19.556  0.00  0.00    +0.000 A 
ATOM      5  C   UNL     1       1.418   8.436  20.090  0.00  0.00    +0.000 A 
ATOM      6  C   UNL     1       0.975   9.471  19.259  0.00  0.00    +0.000 A 
ATOM      7  C   UNL     1       1.448   9.551  17.974  0.00  0.00    +0.000 A 
ATOM      8  N   UNL     1       2.315   8.683  17.444  0.00  0.00    +0.000 NA
ATOM      9  C   UNL     1       2.750   7.677  18.208  0.00  0.00    +0.000 A 
ATOM     10  C   UNL     1       3.640   6.799  17.611  0.00  0.00    +0.000 A 
ENDROOT
BRANCH   1  11
ATOM     11  O   UNL     1       5.027   4.928  17.548  0.00  0.00    +0.000 OA
BRANCH  11  12
ATOM     12  C   UNL     1       4.414   4.143  16.529  0.00  0.00    +0.000 C 
BRANCH  12  13
ATOM     13  C   UNL     1       3.170   3.443  17.075  0.00  0.00    +0.000 C 
BRANCH  13  14
ATOM     14  C   UNL     1       3.567   2.126  17.749  0.00  0.00    +0.000 C 
BRANCH  14  15
ATOM     15  C   UNL     1       2.582   1.733  18.845  0.00  0.00    +0.000 C 
BRANCH  15  16
ATOM     16  C   UNL     1       2.968   2.335  20.195  0.00  0.00    +0.000 C 
BRANCH  16  18
ATOM     17  C   UNL     1       0.654   3.450  20.253  0.00  0.00    +0.000 C 
ATOM     18  C   UNL     1       1.744   2.731  21.003  0.00  0.00    +0.000 C 
ATOM     19  O   UNL     1       1.636   2.491  22.205  0.00  0.00    +0.000 OA
ENDBRANCH  16  18
ENDBRANCH  15  16
ENDBRANCH  14  15
ENDBRANCH  13  14
ENDBRANCH  12  13
ENDBRANCH  11  12
ENDBRANCH   1  11
BRANCH   5  20
ATOM     20  O   UNL     1       0.961   8.299  21.403  0.00  0.00    +0.000 OA
BRANCH  20  21
ATOM     21  C   UNL     1      -0.268   9.024  21.668  0.00  0.00    +0.000 C 
BRANCH  21  22
ATOM     22  C   UNL     1      -0.134  10.359  22.407  0.00  0.00    +0.000 C 
BRANCH  22  23
ATOM     23  N   UNL     1      -0.810  11.443  21.660  0.00  0.00    +0.000 N 
ATOM     24  N   UNL     1      -1.467  11.091  20.479  0.00  0.00    +0.000 NA
ATOM     25  C   UNL     1      -2.082  12.037  19.832  0.00  0.00    +0.000 A 
ATOM     26  C   UNL     1      -2.123  13.452  20.242  0.00  0.00    +0.000 A 
ATOM     27  C   UNL     1      -1.560  13.747  21.413  0.00  0.00    +0.000 A 
ATOM     28  C   UNL     1      -0.900  12.708  22.232  0.00  0.00    +0.000 A 
ATOM     29  O   UNL     1      -0.470  13.017  23.339  0.00  0.00    +0.000 OA
BRANCH  25  30
ATOM     30  C   UNL     1      -2.807  11.728  18.606  0.00  0.00    +0.000 A 
ATOM     31  C   UNL     1      -4.201  11.614  18.358  0.00  0.00    +0.000 A 
ATOM     32  N   UNL     1      -4.495  11.302  17.095  0.00  0.00    +0.000 NA
ATOM     33  N   UNL     1      -3.291  11.203  16.511  0.00  0.00    +0.000 N 
ATOM     34  C   UNL     1      -3.195  10.855  15.114  0.00  0.00    +0.000 C 
ATOM     35  C   UNL     1      -2.256  11.458  17.365  0.00  0.00    +0.000 A 
ENDBRANCH  25  30
ENDBRANCH  22  23
ENDBRANCH  21  22
ENDBRANCH  20  21
ENDBRANCH   5  20
TORSDOF 12
ENDMDL
MODEL 2
REMARK VINA RESULT:      -7.6      2.873      4.708
REMARK  Name = 
REMARK  14 active torsions:
REMARK  status: ('A' for Active; 'I' for Inactive)
REMARK    1  A    between atoms: C_1  and  C_2
REMARK    2  A    between atoms: C_2  and  C_4
REMARK    3  A    between atoms: C_4  and  C_5
REMARK    4  A    between atoms: C_5  and  C_6
REMARK    5  A    between atoms: C_6  and  C_7
REMARK    6  A    between atoms: C_7  and  C_8
REMARK    7  A    between atoms: C_8  and  O_9
REMARK    8  A    between atoms: O_9  and  C_10
REMARK    9  A    between atoms: C_14  and  O_15
REMARK   10  A    between atoms: O_15  and  C_16
REMARK   11  A    between atoms: C_16  and  C_17
REMARK   12  A    between atoms: C_17  and  N_18
REMARK   13  A    between atoms: C_20  and  C_21
REMARK   14  A    between atoms: N_24  and  C_25
REMARK                            x       y       z     vdW  Elec       q    Type
REMARK                         _______ _______ _______ _____ _____    ______ ____
ROOT
ATOM      1  C   UNL     1       1.514   9.860  18.771  0.00  0.00    +0.000 A 
ATOM      2  C   UNL     1       1.211  11.217  18.753  0.00  0.00    +0.000 A 
ATOM      3  C   UNL     1       0.515  11.807  19.827  0.00  0.00    +0.000 A 
ATOM      4  C   UNL     1       0.100  11.043  20.943  0.00  0.00    +0.000 A 
ATOM      5  C   UNL     1      -0.602  11.538  22.085  0.00  0.00    +0.000 A 
ATOM      6  C   UNL     1      -0.938  10.633  23.099  0.00  0.00    +0.000 A 
ATOM      7  C   UNL     1      -0.595   9.313  22.962  0.00  0.00    +0.000 A 
ATOM      8  N   UNL     1       0.063   8.818  21.909  0.00  0.00    +0.000 NA
ATOM      9  C   UNL     1       0.408   9.658  20.929  0.00  0.00    +0.000 A 
ATOM     10  C   UNL     1       1.097   9.101  19.864  0.00  0.00    +0.000 A 
ENDROOT
BRANCH   1  11
ATOM     11  O   UNL     1       2.200   9.155  17.812  0.00  0.00    +0.000 OA
BRANCH  11  12
ATOM     12  C   UNL     1       2.707   7.887  18.221  0.00  0.00    +0.000 C 
BRANCH  12  13
ATOM     13  C   UNL     1       3.709   7.359  17.195  0.00  0.00    +0.000 C 
BRANCH  13  14
ATOM     14  C   UNL     1       4.089   5.915  17.535  0.00  0.00    +0.000 C 
BRANCH  14  15
ATOM     15  C   UNL     1       5.511   5.819  18.080  0.00  0.00    +0.000 C 
BRANCH  15  16
ATOM     16  C   UNL     1       6.552   6.087  16.995  0.00  0.00    +0.000 C 
BRANCH  16  18
ATOM     17  C   UNL     1       6.576   4.279  15.171  0.00  0.00    +0.000 C 
ATOM     18  C   UNL     1       7.152   4.798  16.462  0.00  0.00    +0.000 C 
ATOM     19  O   UNL     1       8.054   4.195  17.042  0.00  0.00    +0.000 OA
ENDBRANCH  16  18
ENDBRANCH  15  16
ENDBRANCH  14  15
ENDBRANCH  13  14
ENDBRANCH  12  13
ENDBRANCH  11  12
ENDBRANCH   1  11
BRANCH   5  20
ATOM     20  O   UNL     1      -0.916  12.896  22.178  0.00  0.00    +0.000 OA
BRANCH  20  21
ATOM     21  C   UNL     1      -2.241  13.150  22.709  0.00  0.00    +0.000 C 
BRANCH  21  22
ATOM     22  C   UNL     1      -3.155  14.055  21.876  0.00  0.00    +0.000 C 
BRANCH  22  23
ATOM     23  N   UNL     1      -4.011  13.250  20.974  0.00  0.00    +0.000 N 
ATOM     24  N   UNL     1      -3.395  12.661  19.868  0.00  0.00    +0.000 NA
ATOM     25  C   UNL     1      -4.138  11.935  19.086  0.00  0.00    +0.000 A 
ATOM     26  C   UNL     1      -5.582  11.702  19.271  0.00  0.00    +0.000 A 
ATOM     27  C   UNL     1      -6.128  12.206  20.377  0.00  0.00    +0.000 A 
ATOM     28  C   UNL     1      -5.326  12.987  21.343  0.00  0.00    +0.000 A 
ATOM     29  O   UNL     1      -5.857  13.358  22.385  0.00  0.00    +0.000 OA
BRANCH  25  30
ATOM     30  C   UNL     1      -3.549  11.273  17.929  0.00  0.00    +0.000 A 
ATOM     31  C   UNL     1      -2.319  10.577  17.788  0.00  0.00    +0.000 A 
ATOM     32  N   UNL     1      -2.109  10.108  16.556  0.00  0.00    +0.000 NA
ATOM     33  N   UNL     1      -3.201  10.502  15.884  0.00  0.00    +0.000 N 
ATOM     34  C   UNL     1      -3.336  10.188  14.482  0.00  0.00    +0.000 C 
ATOM     35  C   UNL     1      -4.093  11.189  16.659  0.00  0.00    +0.000 A 
ENDBRANCH  25  30
ENDBRANCH  22  23
ENDBRANCH  21  22
ENDBRANCH  20  21
ENDBRANCH   5  20
TORSDOF 12
ENDMDL
MODEL 3
REMARK VINA RESULT:      -7.4      2.033      3.744
REMARK  Name = 
REMARK  14 active torsions:
REMARK  status: ('A' for Active; 'I' for Inactive)
REMARK    1  A    between atoms: C_1  and  C_2
REMARK    2  A    between atoms: C_2  and  C_4
REMARK    3  A    between atoms: C_4  and  C_5
REMARK    4  A    between atoms: C_5  and  C_6
REMARK    5  A    between atoms: C_6  and  C_7
REMARK    6  A    between atoms: C_7  and  C_8
REMARK    7  A    between atoms: C_8  and  O_9
REMARK    8  A    between atoms: O_9  and  C_10
REMARK    9  A    between atoms: C_14  and  O_15
REMARK   10  A    between atoms: O_15  and  C_16
REMARK   11  A    between atoms: C_16  and  C_17
REMARK   12  A    between atoms: C_17  and  N_18
REMARK   13  A    between atoms: C_20  and  C_21
REMARK   14  A    between atoms: N_24  and  C_25
REMARK                            x       y       z     vdW  Elec       q    Type
REMARK                         _______ _______ _______ _____ _____    ______ ____
ROOT
ATOM      1  C   UNL     1       1.717   9.501  18.520  0.00  0.00    +0.000 A 
ATOM      2  C   UNL     1       1.302  10.824  18.413  0.00  0.00    +0.000 A 
ATOM      3  C   UNL     1       0.601  11.438  19.471  0.00  0.00    +0.000 A 
ATOM      4  C   UNL     1       0.294  10.733  20.657  0.00  0.00    +0.000 A 
ATOM      5  C   UNL     1      -0.403  11.258  21.789  0.00  0.00    +0.000 A 
ATOM      6  C   UNL     1      -0.625  10.411  22.881  0.00  0.00    +0.000 A 
ATOM      7  C   UNL     1      -0.178   9.115  22.828  0.00  0.00    +0.000 A 
ATOM      8  N   UNL     1       0.478   8.595  21.787  0.00  0.00    +0.000 NA
ATOM      9  C   UNL     1       0.714   9.380  20.733  0.00  0.00    +0.000 A 
ATOM     10  C   UNL     1       1.406   8.799  19.683  0.00  0.00    +0.000 A 
ENDROOT
BRANCH   1  11
ATOM     11  O   UNL     1       2.423   8.780  17.586  0.00  0.00    +0.000 OA
BRANCH  11  12
ATOM     12  C   UNL     1       2.724   7.434  17.944  0.00  0.00    +0.000 C 
BRANCH  12  13
ATOM     13  C   UNL     1       4.002   6.973  17.245  0.00  0.00    +0.000 C 
BRANCH  13  14
ATOM     14  C   UNL     1       4.270   5.500  17.570  0.00  0.00    +0.000 C 
BRANCH  14  15
ATOM     15  C   UNL     1       3.126   4.881  18.366  0.00  0.00    +0.000 C 
BRANCH  15  16
ATOM     16  C   UNL     1       3.639   4.027  19.524  0.00  0.00    +0.000 C 
BRANCH  16  18
ATOM     17  C   UNL     1       1.445   4.833  20.589  0.00  0.00    +0.000 C 
ATOM     18  C   UNL     1       2.582   3.846  20.600  0.00  0.00    +0.000 C 
ATOM     19  O   UNL     1       2.641   2.953  21.444  0.00  0.00    +0.000 OA
ENDBRANCH  16  18
ENDBRANCH  15  16
ENDBRANCH  14  15
ENDBRANCH  13  14
ENDBRANCH  12  13
ENDBRANCH  11  12
ENDBRANCH   1  11
BRANCH   5  20
ATOM     20  O   UNL     1      -0.825  12.589  21.794  0.00  0.00    +0.000 OA
BRANCH  20  21
ATOM     21  C   UNL     1      -2.084  12.797  22.485  0.00  0.00    +0.000 C 
BRANCH  21  22
ATOM     22  C   UNL     1      -3.070  13.775  21.841  0.00  0.00    +0.000 C 
BRANCH  22  23
ATOM     23  N   UNL     1      -3.978  13.069  20.909  0.00  0.00    +0.000 N 
ATOM     24  N   UNL     1      -3.415  12.547  19.743  0.00  0.00    +0.000 NA
ATOM     25  C   UNL     1      -4.206  11.905  18.932  0.00  0.00    +0.000 A 
ATOM     26  C   UNL     1      -5.650  11.704  19.146  0.00  0.00    +0.000 A 
ATOM     27  C   UNL     1      -6.146  12.139  20.303  0.00  0.00    +0.000 A 
ATOM     28  C   UNL     1      -5.290  12.819  21.299  0.00  0.00    +0.000 A 
ATOM     29  O   UNL     1      -5.778  13.126  22.382  0.00  0.00    +0.000 OA
BRANCH  25  30
ATOM     30  C   UNL     1      -3.673  11.315  17.711  0.00  0.00    +0.000 A 
ATOM     31  C   UNL     1      -2.373  10.828  17.408  0.00  0.00    +0.000 A 
ATOM     32  N   UNL     1      -2.254  10.363  16.163  0.00  0.00    +0.000 NA
ATOM     33  N   UNL     1      -3.477  10.550  15.644  0.00  0.00    +0.000 N 
ATOM     34  C   UNL     1      -3.743  10.176  14.275  0.00  0.00    +0.000 C 
ATOM     35  C   UNL     1      -4.359  11.103  16.528  0.00  0.00    +0.000 A 
ENDBRANCH  25  30
ENDBRANCH  22  23
ENDBRANCH  21  22
ENDBRANCH  20  21
ENDBRANCH   5  20
TORSDOF 12
ENDMDL
MODEL 4
REMARK VINA RESULT:      -7.3      2.893      4.170
REMARK  Name = 
REMARK  14 active torsions:
REMARK  status: ('A' for Active; 'I' for Inactive)
REMARK    1  A    between atoms: C_1  and  C_2
REMARK    2  A    between atoms: C_2  and  C_4
REMARK    3  A    between atoms: C_4  and  C_5
REMARK    4  A    between atoms: C_5  and  C_6
REMARK    5  A    between atoms: C_6  and  C_7
REMARK    6  A    between atoms: C_7  and  C_8
REMARK    7  A    between atoms: C_8  and  O_9
REMARK    8  A    between atoms: O_9  and  C_10
REMARK    9  A    between atoms: C_14  and  O_15
REMARK   10  A    between atoms: O_15  and  C_16
REMARK   11  A    between atoms: C_16  and  C_17
REMARK   12  A    between atoms: C_17  and  N_18
REMARK   13  A    between atoms: C_20  and  C_21
REMARK   14  A    between atoms: N_24  and  C_25
REMARK                            x       y       z     vdW  Elec       q    Type
REMARK                         _______ _______ _______ _____ _____    ______ ____
ROOT
ATOM      1  C   UNL     1       2.635   4.668  18.843  0.00  0.00    +0.000 A 
ATOM      2  C   UNL     1       2.329   4.766  20.196  0.00  0.00    +0.000 A 
ATOM      3  C   UNL     1       1.924   5.998  20.749  0.00  0.00    +0.000 A 
ATOM      4  C   UNL     1       1.827   7.163  19.954  0.00  0.00    +0.000 A 
ATOM      5  C   UNL     1       1.422   8.457  20.408  0.00  0.00    +0.000 A 
ATOM      6  C   UNL     1       1.386   9.503  19.478  0.00  0.00    +0.000 A 
ATOM      7  C   UNL     1       1.745   9.259  18.177  0.00  0.00    +0.000 A 
ATOM      8  N   UNL     1       2.125   8.062  17.721  0.00  0.00    +0.000 NA
ATOM      9  C   UNL     1       2.160   7.040  18.581  0.00  0.00    +0.000 A 
ATOM     10  C   UNL     1       2.551   5.817  18.059  0.00  0.00    +0.000 A 
ENDROOT
BRANCH   1  11
ATOM     11  O   UNL     1       3.020   3.538  18.164  0.00  0.00    +0.000 OA
BRANCH  11  12
ATOM     12  C   UNL     1       4.405   3.453  17.840  0.00  0.00    +0.000 C 
BRANCH  12  13
ATOM     13  C   UNL     1       4.748   4.429  16.715  0.00  0.00    +0.000 C 
BRANCH  13  14
ATOM     14  C   UNL     1       6.005   3.955  15.980  0.00  0.00    +0.000 C 
BRANCH  14  15
ATOM     15  C   UNL     1       7.224   4.797  16.344  0.00  0.00    +0.000 C 
BRANCH  15  16
ATOM     16  C   UNL     1       7.739   4.471  17.745  0.00  0.00    +0.000 C 
BRANCH  16  18
ATOM     17  C   UNL     1       7.644   7.019  18.056  0.00  0.00    +0.000 C 
ATOM     18  C   UNL     1       7.591   5.653  18.687  0.00  0.00    +0.000 C 
ATOM     19  O   UNL     1       7.441   5.519  19.901  0.00  0.00    +0.000 OA
ENDBRANCH  16  18
ENDBRANCH  15  16
ENDBRANCH  14  15
ENDBRANCH  13  14
ENDBRANCH  12  13
ENDBRANCH  11  12
ENDBRANCH   1  11
BRANCH   5  20
ATOM     20  O   UNL     1       1.056   8.647  21.742  0.00  0.00    +0.000 OA
BRANCH  20  21
ATOM     21  C   UNL     1      -0.310   9.105  21.910  0.00  0.00    +0.000 C 
BRANCH  21  22
ATOM     22  C   UNL     1      -0.603   9.956  23.149  0.00  0.00    +0.000 C 
BRANCH  22  23
ATOM     23  N   UNL     1      -0.725  11.387  22.788  0.00  0.00    +0.000 N 
ATOM     24  N   UNL     1       0.311  11.945  22.035  0.00  0.00    +0.000 NA
ATOM     25  C   UNL     1       0.197  13.196  21.696  0.00  0.00    +0.000 A 
ATOM     26  C   UNL     1      -0.933  14.069  22.060  0.00  0.00    +0.000 A 
ATOM     27  C   UNL     1      -1.946  13.492  22.706  0.00  0.00    +0.000 A 
ATOM     28  C   UNL     1      -1.911  12.059  23.066  0.00  0.00    +0.000 A 
ATOM     29  O   UNL     1      -2.903  11.559  23.587  0.00  0.00    +0.000 OA
BRANCH  25  30
ATOM     30  C   UNL     1       1.232  13.828  20.889  0.00  0.00    +0.000 A 
ATOM     31  C   UNL     1       2.287  14.706  21.257  0.00  0.00    +0.000 A 
ATOM     32  N   UNL     1       3.041  15.094  20.227  0.00  0.00    +0.000 NA
ATOM     33  N   UNL     1       2.478  14.477  19.178  0.00  0.00    +0.000 N 
ATOM     34  C   UNL     1       3.017  14.670  17.854  0.00  0.00    +0.000 C 
ATOM     35  C   UNL     1       1.405  13.703  19.521  0.00  0.00    +0.000 A 
ENDBRANCH  25  30
ENDBRANCH  22  23
ENDBRANCH  21  22
ENDBRANCH  20  21
ENDBRANCH   5  20
TORSDOF 12
ENDMDL
MODEL 5
REMARK VINA RESULT:      -7.2      2.831      4.582
REMARK  Name = 
REMARK  14 active torsions:
REMARK  status: ('A' for Active; 'I' for Inactive)
REMARK    1  A    between atoms: C_1  and  C_2
REMARK    2  A    between atoms: C_2  and  C_4
REMARK    3  A    between atoms: C_4  and  C_5
REMARK    4  A    between atoms: C_5  and  C_6
REMARK    5  A    between atoms: C_6  and  C_7
REMARK    6  A    between atoms: C_7  and  C_8
REMARK    7  A    between atoms: C_8  and  O_9
REMARK    8  A    between atoms: O_9  and  C_10
REMARK    9  A    between atoms: C_14  and  O_15
REMARK   10  A    between atoms: O_15  and  C_16
REMARK   11  A    between atoms: C_16  and  C_17
REMARK   12  A    between atoms: C_17  and  N_18
REMARK   13  A    between atoms: C_20  and  C_21
REMARK   14  A    between atoms: N_24  and  C_25
REMARK                            x       y       z     vdW  Elec       q    Type
REMARK                         _______ _______ _______ _____ _____    ______ ____
ROOT
ATOM      1  C   UNL     1       5.262   4.369  18.121  0.00  0.00    +0.000 A 
ATOM      2  C   UNL     1       5.273   5.588  18.789  0.00  0.00    +0.000 A 
ATOM      3  C   UNL     1       4.165   5.986  19.564  0.00  0.00    +0.000 A 
ATOM      4  C   UNL     1       3.017   5.169  19.679  0.00  0.00    +0.000 A 
ATOM      5  C   UNL     1       1.845   5.469  20.441  0.00  0.00    +0.000 A 
ATOM      6  C   UNL     1       0.797   4.541  20.437  0.00  0.00    +0.000 A 
ATOM      7  C   UNL     1       0.922   3.389  19.704  0.00  0.00    +0.000 A 
ATOM      8  N   UNL     1       2.003   3.077  18.984  0.00  0.00    +0.000 NA
ATOM      9  C   UNL     1       3.026   3.937  18.975  0.00  0.00    +0.000 A 
ATOM     10  C   UNL     1       4.128   3.566  18.222  0.00  0.00    +0.000 A 
ENDROOT
BRANCH   1  11
ATOM     11  O   UNL     1       6.271   3.842  17.350  0.00  0.00    +0.000 OA
BRANCH  11  12
ATOM     12  C   UNL     1       7.224   4.779  16.855  0.00  0.00    +0.000 C 
BRANCH  12  13
ATOM     13  C   UNL     1       6.985   5.045  15.369  0.00  0.00    +0.000 C 
BRANCH  13  14
ATOM     14  C   UNL     1       6.535   3.755  14.676  0.00  0.00    +0.000 C 
BRANCH  14  15
ATOM     15  C   UNL     1       5.629   4.042  13.483  0.00  0.00    +0.000 C 
BRANCH  15  16
ATOM     16  C   UNL     1       6.235   3.530  12.177  0.00  0.00    +0.000 C 
BRANCH  16  18
ATOM     17  C   UNL     1       3.967   3.042  11.074  0.00  0.00    +0.000 C 
ATOM     18  C   UNL     1       5.321   2.531  11.488  0.00  0.00    +0.000 C 
ATOM     19  O   UNL     1       5.652   1.365  11.278  0.00  0.00    +0.000 OA
ENDBRANCH  16  18
ENDBRANCH  15  16
ENDBRANCH  14  15
ENDBRANCH  13  14
ENDBRANCH  12  13
ENDBRANCH  11  12
ENDBRANCH   1  11
BRANCH   5  20
ATOM     20  O   UNL     1       1.776   6.653  21.179  0.00  0.00    +0.000 OA
BRANCH  20  21
ATOM     21  C   UNL     1       1.303   7.789  20.412  0.00  0.00    +0.000 C 
BRANCH  21  22
ATOM     22  C   UNL     1       1.110   9.103  21.175  0.00  0.00    +0.000 C 
BRANCH  22  23
ATOM     23  N   UNL     1       0.552  10.149  20.287  0.00  0.00    +0.000 N 
ATOM     24  N   UNL     1      -0.439   9.758  19.385  0.00  0.00    +0.000 NA
ATOM     25  C   UNL     1      -0.948  10.678  18.619  0.00  0.00    +0.000 A 
ATOM     26  C   UNL     1      -0.545  12.095  18.621  0.00  0.00    +0.000 A 
ATOM     27  C   UNL     1       0.342  12.459  19.547  0.00  0.00    +0.000 A 
ATOM     28  C   UNL     1       0.913  11.477  20.493  0.00  0.00    +0.000 A 
ATOM     29  O   UNL     1       1.663  11.878  21.377  0.00  0.00    +0.000 OA
BRANCH  25  30
ATOM     30  C   UNL     1      -2.004  10.337  17.675  0.00  0.00    +0.000 A 
ATOM     31  C   UNL     1      -3.238   9.660  17.869  0.00  0.00    +0.000 A 
ATOM     32  N   UNL     1      -3.952   9.520  16.751  0.00  0.00    +0.000 NA
ATOM     33  N   UNL     1      -3.184  10.099  15.817  0.00  0.00    +0.000 N 
ATOM     34  C   UNL     1      -3.622  10.132  14.442  0.00  0.00    +0.000 C 
ATOM     35  C   UNL     1      -2.020  10.611  16.318  0.00  0.00    +0.000 A 
ENDBRANCH  25  30
ENDBRANCH  22  23
ENDBRANCH  21  22
ENDBRANCH  20  21
ENDBRANCH   5  20
TORSDOF 12
ENDMDL
MODEL 6
REMARK VINA RESULT:      -7.2      2.725      4.624
REMARK  Name = 
REMARK  14 active torsions:
REMARK  status: ('A' for Active; 'I' for Inactive)
REMARK    1  A    between atoms: C_1  and  C_2
REMARK    2  A    between atoms: C_2  and  C_4
REMARK    3  A    between atoms: C_4  and  C_5
REMARK    4  A    between atoms: C_5  and  C_6
REMARK    5  A    between atoms: C_6  and  C_7
REMARK    6  A    between atoms: C_7  and  C_8
REMARK    7  A    between atoms: C_8  and  O_9
REMARK    8  A    between atoms: O_9  and  C_10
REMARK    9  A    between atoms: C_14  and  O_15
REMARK   10  A    between atoms: O_15  and  C_16
REMARK   11  A    between atoms: C_16  and  C_17
REMARK   12  A    between atoms: C_17  and  N_18
REMARK   13  A    between atoms: C_20  and  C_21
REMARK   14  A    between atoms: N_24  and  C_25
REMARK                            x       y       z     vdW  Elec       q    Type
REMARK                         _______ _______ _______ _____ _____    ______ ____
ROOT
ATOM      1  C   UNL     1       2.730   7.182  18.687  0.00  0.00    +0.000 A 
ATOM      2  C   UNL     1       2.494   8.171  17.738  0.00  0.00    +0.000 A 
ATOM      3  C   UNL     1       1.679   9.278  18.050  0.00  0.00    +0.000 A 
ATOM      4  C   UNL     1       1.075   9.412  19.321  0.00  0.00    +0.000 A 
ATOM      5  C   UNL     1       0.240  10.492  19.745  0.00  0.00    +0.000 A 
ATOM      6  C   UNL     1      -0.279  10.458  21.045  0.00  0.00    +0.000 A 
ATOM      7  C   UNL     1       0.021   9.397  21.860  0.00  0.00    +0.000 A 
ATOM      8  N   UNL     1       0.800   8.374  21.496  0.00  0.00    +0.000 NA
ATOM      9  C   UNL     1       1.319   8.381  20.265  0.00  0.00    +0.000 A 
ATOM     10  C   UNL     1       2.127   7.305  19.938  0.00  0.00    +0.000 A 
ENDROOT
BRANCH   1  11
ATOM     11  O   UNL     1       3.514   6.064  18.535  0.00  0.00    +0.000 OA
BRANCH  11  12
ATOM     12  C   UNL     1       3.071   4.900  19.228  0.00  0.00    +0.000 C 
BRANCH  12  13
ATOM     13  C   UNL     1       3.213   3.666  18.338  0.00  0.00    +0.000 C 
BRANCH  13  14
ATOM     14  C   UNL     1       3.646   4.087  16.930  0.00  0.00    +0.000 C 
BRANCH  14  15
ATOM     15  C   UNL     1       5.103   3.728  16.656  0.00  0.00    +0.000 C 
BRANCH  15  16
ATOM     16  C   UNL     1       5.589   4.308  15.329  0.00  0.00    +0.000 C 
BRANCH  16  18
ATOM     17  C   UNL     1       6.991   5.811  16.871  0.00  0.00    +0.000 C 
ATOM     18  C   UNL     1       6.820   5.178  15.515  0.00  0.00    +0.000 C 
ATOM     19  O   UNL     1       7.639   5.370  14.617  0.00  0.00    +0.000 OA
ENDBRANCH  16  18
ENDBRANCH  15  16
ENDBRANCH  14  15
ENDBRANCH  13  14
ENDBRANCH  12  13
ENDBRANCH  11  12
ENDBRANCH   1  11
BRANCH   5  20
ATOM     20  O   UNL     1      -0.023  11.554  18.876  0.00  0.00    +0.000 OA
BRANCH  20  21
ATOM     21  C   UNL     1      -1.030  12.473  19.371  0.00  0.00    +0.000 C 
BRANCH  21  22
ATOM     22  C   UNL     1      -0.523  13.738  20.070  0.00  0.00    +0.000 C 
BRANCH  22  23
ATOM     23  N   UNL     1      -1.193  13.920  21.378  0.00  0.00    +0.000 N 
ATOM     24  N   UNL     1      -2.516  13.483  21.483  0.00  0.00    +0.000 NA
ATOM     25  C   UNL     1      -3.101  13.621  22.637  0.00  0.00    +0.000 A 
ATOM     26  C   UNL     1      -2.479  14.216  23.833  0.00  0.00    +0.000 A 
ATOM     27  C   UNL     1      -1.193  14.549  23.730  0.00  0.00    +0.000 A 
ATOM     28  C   UNL     1      -0.448  14.359  22.467  0.00  0.00    +0.000 A 
ATOM     29  O   UNL     1       0.754  14.605  22.451  0.00  0.00    +0.000 OA
BRANCH  25  30
ATOM     30  C   UNL     1      -4.472  13.161  22.817  0.00  0.00    +0.000 A 
ATOM     31  C   UNL     1      -5.194  12.840  23.997  0.00  0.00    +0.000 A 
ATOM     32  N   UNL     1      -6.444  12.437  23.765  0.00  0.00    +0.000 NA
ATOM     33  N   UNL     1      -6.544  12.485  22.428  0.00  0.00    +0.000 N 
ATOM     34  C   UNL     1      -7.774  12.097  21.782  0.00  0.00    +0.000 C 
ATOM     35  C   UNL     1      -5.401  12.921  21.818  0.00  0.00    +0.000 A 
ENDBRANCH  25  30
ENDBRANCH  22  23
ENDBRANCH  21  22
ENDBRANCH  20  21
ENDBRANCH   5  20
TORSDOF 12
ENDMDL
MODEL 7
REMARK VINA RESULT:      -7.2      3.040      4.664
REMARK  Name = 
REMARK  14 active torsions:
REMARK  status: ('A' for Active; 'I' for Inactive)
REMARK    1  A    between atoms: C_1  and  C_2
REMARK    2  A    between atoms: C_2  and  C_4
REMARK    3  A    between atoms: C_4  and  C_5
REMARK    4  A    between atoms: C_5  and  C_6
REMARK    5  A    between atoms: C_6  and  C_7
REMARK    6  A    between atoms: C_7  and  C_8
REMARK    7  A    between atoms: C_8  and  O_9
REMARK    8  A    between atoms: O_9  and  C_10
REMARK    9  A    between atoms: C_14  and  O_15
REMARK   10  A    between atoms: O_15  and  C_16
REMARK   11  A    between atoms: C_16  and  C_17
REMARK   12  A    between atoms: C_17  and  N_18
REMARK   13  A    between atoms: C_20  and  C_21
REMARK   14  A    between atoms: N_24  and  C_25
REMARK                            x       y       z     vdW  Elec       q    Type
REMARK                         _______ _______ _______ _____ _____    ______ ____
ROOT
ATOM      1  C   UNL     1       4.902   5.364  18.158  0.00  0.00    +0.000 A 
ATOM      2  C   UNL     1       4.361   5.146  19.420  0.00  0.00    +0.000 A 
ATOM      3  C   UNL     1       3.338   5.982  19.911  0.00  0.00    +0.000 A 
ATOM      4  C   UNL     1       2.841   7.063  19.146  0.00  0.00    +0.000 A 
ATOM      5  C   UNL     1       1.805   7.965  19.543  0.00  0.00    +0.000 A 
ATOM      6  C   UNL     1       1.441   8.986  18.656  0.00  0.00    +0.000 A 
ATOM      7  C   UNL     1       2.088   9.091  17.451  0.00  0.00    +0.000 A 
ATOM      8  N   UNL     1       3.057   8.264  17.050  0.00  0.00    +0.000 NA
ATOM      9  C   UNL     1       3.421   7.273  17.869  0.00  0.00    +0.000 A 
ATOM     10  C   UNL     1       4.423   6.435  17.406  0.00  0.00    +0.000 A 
ENDROOT
BRANCH   1  11
ATOM     11  O   UNL     1       5.882   4.624  17.542  0.00  0.00    +0.000 OA
BRANCH  11  12
ATOM     12  C   UNL     1       7.215   5.096  17.717  0.00  0.00    +0.000 C 
BRANCH  12  13
ATOM     13  C   UNL     1       7.344   6.528  17.200  0.00  0.00    +0.000 C 
BRANCH  13  14
ATOM     14  C   UNL     1       8.041   7.399  18.249  0.00  0.00    +0.000 C 
BRANCH  14  15
ATOM     15  C   UNL     1       8.001   8.877  17.873  0.00  0.00    +0.000 C 
BRANCH  15  16
ATOM     16  C   UNL     1       8.842   9.726  18.824  0.00  0.00    +0.000 C 
BRANCH  16  18
ATOM     17  C   UNL     1      10.661  11.462  18.296  0.00  0.00    +0.000 C 
ATOM     18  C   UNL     1       9.212  11.063  18.205  0.00  0.00    +0.000 C 
ATOM     19  O   UNL     1       8.385  11.794  17.662  0.00  0.00    +0.000 OA
ENDBRANCH  16  18
ENDBRANCH  15  16
ENDBRANCH  14  15
ENDBRANCH  13  14
ENDBRANCH  12  13
ENDBRANCH  11  12
ENDBRANCH   1  11
BRANCH   5  20
ATOM     20  O   UNL     1       1.172   7.804  20.777  0.00  0.00    +0.000 OA
BRANCH  20  21
ATOM     21  C   UNL     1       1.213   8.990  21.610  0.00  0.00    +0.000 C 
BRANCH  21  22
ATOM     22  C   UNL     1      -0.087   9.791  21.732  0.00  0.00    +0.000 C 
BRANCH  22  23
ATOM     23  N   UNL     1      -0.221  10.749  20.610  0.00  0.00    +0.000 N 
ATOM     24  N   UNL     1      -1.198  10.475  19.651  0.00  0.00    +0.000 NA
ATOM     25  C   UNL     1      -1.334  11.326  18.676  0.00  0.00    +0.000 A 
ATOM     26  C   UNL     1      -0.524  12.545  18.501  0.00  0.00    +0.000 A 
ATOM     27  C   UNL     1       0.345  12.826  19.472  0.00  0.00    +0.000 A 
ATOM     28  C   UNL     1       0.504  11.936  20.642  0.00  0.00    +0.000 A 
ATOM     29  O   UNL     1       1.257  12.283  21.546  0.00  0.00    +0.000 OA
BRANCH  25  30
ATOM     30  C   UNL     1      -2.354  11.110  17.659  0.00  0.00    +0.000 A 
ATOM     31  C   UNL     1      -3.767  11.236  17.722  0.00  0.00    +0.000 A 
ATOM     32  N   UNL     1      -4.381  10.940  16.575  0.00  0.00    +0.000 NA
ATOM     33  N   UNL     1      -3.371  10.611  15.757  0.00  0.00    +0.000 N 
ATOM     34  C   UNL     1      -3.645  10.206  14.399  0.00  0.00    +0.000 C 
ATOM     35  C   UNL     1      -2.144  10.707  16.350  0.00  0.00    +0.000 A 
ENDBRANCH  25  30
ENDBRANCH  22  23
ENDBRANCH  21  22
ENDBRANCH  20  21
ENDBRANCH   5  20
TORSDOF 12
ENDMDL
MODEL 8
REMARK VINA RESULT:      -7.1      2.630      4.320
REMARK  Name = 
REMARK  14 active torsions:
REMARK  status: ('A' for Active; 'I' for Inactive)
REMARK    1  A    between atoms: C_1  and  C_2
REMARK    2  A    between atoms: C_2  and  C_4
REMARK    3  A    between atoms: C_4  and  C_5
REMARK    4  A    between atoms: C_5  and  C_6
REMARK    5  A    between atoms: C_6  and  C_7
REMARK    6  A    between atoms: C_7  and  C_8
REMARK    7  A    between atoms: C_8  and  O_9
REMARK    8  A    between atoms: O_9  and  C_10
REMARK    9  A    between atoms: C_14  and  O_15
REMARK   10  A    between atoms: O_15  and  C_16
REMARK   11  A    between atoms: C_16  and  C_17
REMARK   12  A    between atoms: C_17  and  N_18
REMARK   13  A    between atoms: C_20  and  C_21
REMARK   14  A    between atoms: N_24  and  C_25
REMARK                            x       y       z     vdW  Elec       q    Type
REMARK                         _______ _______ _______ _____ _____    ______ ____
ROOT
ATOM      1  C   UNL     1       4.403   6.389  16.982  0.00  0.00    +0.000 A 
ATOM      2  C   UNL     1       3.860   7.669  16.981  0.00  0.00    +0.000 A 
ATOM      3  C   UNL     1       2.957   8.062  17.989  0.00  0.00    +0.000 A 
ATOM      4  C   UNL     1       2.572   7.172  19.018  0.00  0.00    +0.000 A 
ATOM      5  C   UNL     1       1.672   7.467  20.090  0.00  0.00    +0.000 A 
ATOM      6  C   UNL     1       1.400   6.458  21.022  0.00  0.00    +0.000 A 
ATOM      7  C   UNL     1       1.993   5.230  20.875  0.00  0.00    +0.000 A 
ATOM      8  N   UNL     1       2.839   4.924  19.888  0.00  0.00    +0.000 NA
ATOM      9  C   UNL     1       3.128   5.867  18.988  0.00  0.00    +0.000 A 
ATOM     10  C   UNL     1       4.017   5.505  17.988  0.00  0.00    +0.000 A 
ENDROOT
BRANCH   1  11
ATOM     11  O   UNL     1       5.306   5.875  16.083  0.00  0.00    +0.000 OA
BRANCH  11  12
ATOM     12  C   UNL     1       5.534   4.471  16.170  0.00  0.00    +0.000 C 
BRANCH  12  13
ATOM     13  C   UNL     1       6.835   4.099  15.461  0.00  0.00    +0.000 C 
BRANCH  13  14
ATOM     14  C   UNL     1       6.908   4.805  14.104  0.00  0.00    +0.000 C 
BRANCH  14  15
ATOM     15  C   UNL     1       5.960   4.174  13.088  0.00  0.00    +0.000 C 
BRANCH  15  16
ATOM     16  C   UNL     1       6.527   2.876  12.515  0.00  0.00    +0.000 C 
BRANCH  16  18
ATOM     17  C   UNL     1       5.997   0.910  10.950  0.00  0.00    +0.000 C 
ATOM     18  C   UNL     1       5.552   2.214  11.556  0.00  0.00    +0.000 C 
ATOM     19  O   UNL     1       4.460   2.706  11.275  0.00  0.00    +0.000 OA
ENDBRANCH  16  18
ENDBRANCH  15  16
ENDBRANCH  14  15
ENDBRANCH  13  14
ENDBRANCH  12  13
ENDBRANCH  11  12
ENDBRANCH   1  11
BRANCH   5  20
ATOM     20  O   UNL     1       1.106   8.739  20.197  0.00  0.00    +0.000 OA
BRANCH  20  21
ATOM     21  C   UNL     1       0.927   9.181  21.567  0.00  0.00    +0.000 C 
BRANCH  21  22
ATOM     22  C   UNL     1      -0.179  10.209  21.820  0.00  0.00    +0.000 C 
BRANCH  22  23
ATOM     23  N   UNL     1      -0.325  11.120  20.661  0.00  0.00    +0.000 N 
ATOM     24  N   UNL     1      -1.295  10.794  19.712  0.00  0.00    +0.000 NA
ATOM     25  C   UNL     1      -1.442  11.603  18.704  0.00  0.00    +0.000 A 
ATOM     26  C   UNL     1      -0.651  12.827  18.482  0.00  0.00    +0.000 A 
ATOM     27  C   UNL     1       0.211  13.159  19.443  0.00  0.00    +0.000 A 
ATOM     28  C   UNL     1       0.381  12.318  20.647  0.00  0.00    +0.000 A 
ATOM     29  O   UNL     1       1.126  12.712  21.539  0.00  0.00    +0.000 OA
BRANCH  25  30
ATOM     30  C   UNL     1      -2.456  11.332  17.693  0.00  0.00    +0.000 A 
ATOM     31  C   UNL     1      -3.864  11.515  17.721  0.00  0.00    +0.000 A 
ATOM     32  N   UNL     1      -4.474  11.137  16.596  0.00  0.00    +0.000 NA
ATOM     33  N   UNL     1      -3.466  10.696  15.829  0.00  0.00    +0.000 N 
ATOM     34  C   UNL     1      -3.738  10.177  14.510  0.00  0.00    +0.000 C 
ATOM     35  C   UNL     1      -2.244  10.801  16.432  0.00  0.00    +0.000 A 
ENDBRANCH  25  30
ENDBRANCH  22  23
ENDBRANCH  21  22
ENDBRANCH  20  21
ENDBRANCH   5  20
TORSDOF 12
ENDMDL
MODEL 9
REMARK VINA RESULT:      -7.1      2.162      4.992
REMARK  Name = 
REMARK  14 active torsions:
REMARK  status: ('A' for Active; 'I' for Inactive)
REMARK    1  A    between atoms: C_1  and  C_2
REMARK    2  A    between atoms: C_2  and  C_4
REMARK    3  A    between atoms: C_4  and  C_5
REMARK    4  A    between atoms: C_5  and  C_6
REMARK    5  A    between atoms: C_6  and  C_7
REMARK    6  A    between atoms: C_7  and  C_8
REMARK    7  A    between atoms: C_8  and  O_9
REMARK    8  A    between atoms: O_9  and  C_10
REMARK    9  A    between atoms: C_14  and  O_15
REMARK   10  A    between atoms: O_15  and  C_16
REMARK   11  A    between atoms: C_16  and  C_17
REMARK   12  A    between atoms: C_17  and  N_18
REMARK   13  A    between atoms: C_20  and  C_21
REMARK   14  A    between atoms: N_24  and  C_25
REMARK                            x       y       z     vdW  Elec       q    Type
REMARK                         _______ _______ _______ _____ _____    ______ ____
ROOT
ATOM      1  C   UNL     1       0.825   9.337  21.779  0.00  0.00    +0.000 A 
ATOM      2  C   UNL     1       0.024   9.623  22.879  0.00  0.00    +0.000 A 
ATOM      3  C   UNL     1      -0.805  10.763  22.881  0.00  0.00    +0.000 A 
ATOM      4  C   UNL     1      -0.840  11.648  21.778  0.00  0.00    +0.000 A 
ATOM      5  C   UNL     1      -1.646  12.824  21.672  0.00  0.00    +0.000 A 
ATOM      6  C   UNL     1      -1.550  13.588  20.503  0.00  0.00    +0.000 A 
ATOM      7  C   UNL     1      -0.690  13.193  19.510  0.00  0.00    +0.000 A 
ATOM      8  N   UNL     1       0.074  12.098  19.577  0.00  0.00    +0.000 NA
ATOM      9  C   UNL     1      -0.002  11.342  20.676  0.00  0.00    +0.000 A 
ATOM     10  C   UNL     1       0.801  10.213  20.695  0.00  0.00    +0.000 A 
ENDROOT
BRANCH   1  11
ATOM     11  O   UNL     1       1.663   8.259  21.627  0.00  0.00    +0.000 OA
BRANCH  11  12
ATOM     12  C   UNL     1       1.526   7.538  20.405  0.00  0.00    +0.000 C 
BRANCH  12  13
ATOM     13  C   UNL     1       1.651   6.036  20.656  0.00  0.00    +0.000 C 
BRANCH  13  14
ATOM     14  C   UNL     1       2.561   5.406  19.599  0.00  0.00    +0.000 C 
BRANCH  14  15
ATOM     15  C   UNL     1       2.584   6.225  18.312  0.00  0.00    +0.000 C 
BRANCH  15  16
ATOM     16  C   UNL     1       4.011   6.547  17.872  0.00  0.00    +0.000 C 
BRANCH  16  18
ATOM     17  C   UNL     1       4.479   4.318  16.683  0.00  0.00    +0.000 C 
ATOM     18  C   UNL     1       4.862   5.292  17.765  0.00  0.00    +0.000 C 
ATOM     19  O   UNL     1       5.809   5.067  18.517  0.00  0.00    +0.000 OA
ENDBRANCH  16  18
ENDBRANCH  15  16
ENDBRANCH  14  15
ENDBRANCH  13  14
ENDBRANCH  12  13
ENDBRANCH  11  12
ENDBRANCH   1  11
BRANCH   5  20
ATOM     20  O   UNL     1      -2.513  13.173  22.709  0.00  0.00    +0.000 OA
BRANCH  20  21
ATOM     21  C   UNL     1      -3.849  12.630  22.556  0.00  0.00    +0.000 C 
BRANCH  21  22
ATOM     22  C   UNL     1      -4.826  13.436  21.694  0.00  0.00    +0.000 C 
BRANCH  22  23
ATOM     23  N   UNL     1      -5.378  12.599  20.604  0.00  0.00    +0.000 N 
ATOM     24  N   UNL     1      -4.486  12.160  19.624  0.00  0.00    +0.000 NA
ATOM     25  C   UNL     1      -4.963  11.406  18.677  0.00  0.00    +0.000 A 
ATOM     26  C   UNL     1      -6.373  10.996  18.553  0.00  0.00    +0.000 A 
ATOM     27  C   UNL     1      -7.186  11.360  19.545  0.00  0.00    +0.000 A 
ATOM     28  C   UNL     1      -6.696  12.162  20.686  0.00  0.00    +0.000 A 
ATOM     29  O   UNL     1      -7.466  12.400  21.611  0.00  0.00    +0.000 OA
BRANCH  25  30
ATOM     30  C   UNL     1      -4.078  10.894  17.639  0.00  0.00    +0.000 A 
ATOM     31  C   UNL     1      -2.794  10.294  17.729  0.00  0.00    +0.000 A 
ATOM     32  N   UNL     1      -2.277   9.957  16.546  0.00  0.00    +0.000 NA
ATOM     33  N   UNL     1      -3.220  10.343  15.674  0.00  0.00    +0.000 N 
ATOM     34  C   UNL     1      -3.013  10.154  14.258  0.00  0.00    +0.000 C 
ATOM     35  C   UNL     1      -4.316  10.896  16.274  0.00  0.00    +0.000 A 
ENDBRANCH  25  30
ENDBRANCH  22  23
ENDBRANCH  21  22
ENDBRANCH  20  21
ENDBRANCH   5  20
TORSDOF 12
ENDMDL
