MODEL 1
REMARK VINA RESULT:      -8.5      0.000      0.000
REMARK  Name = 
REMARK  7 active torsions:
REMARK  status: ('A' for Active; 'I' for Inactive)
REMARK    1  A    between atoms: C_1  and  C_2
REMARK    2  A    between atoms: C_4  and  N_5
REMARK    3  A    between atoms: N_5  and  C_6
REMARK    4  A    between atoms: N_5  and  C_7
REMARK    5  A    between atoms: N_10  and  C_11
REMARK    6  A    between atoms: C_14  and  N_15
REMARK    7  A    between atoms: C_16  and  C_18
REMARK                            x       y       z     vdW  Elec       q    Type
REMARK                         _______ _______ _______ _____ _____    ______ ____
ROOT
ATOM      1  C   UNL     1       2.404   8.275  18.372  0.00  0.00    +0.000 A 
ATOM      2  C   UNL     1       2.093   7.959  19.684  0.00  0.00    +0.000 A 
ATOM      3  C   UNL     1       1.112   8.673  20.369  0.00  0.00    +0.000 A 
ATOM      4  C   UNL     1       0.416   9.719  19.779  0.00  0.00    +0.000 A 
ATOM      5  C   UNL     1       0.692  10.027  18.440  0.00  0.00    +0.000 A 
ATOM      6  C   UNL     1       1.685   9.316  17.764  0.00  0.00    +0.000 A 
ENDROOT
BRANCH   1  13
ATOM      7  C   UNL     1       5.667   3.825  15.825  0.00  0.00    +0.000 C 
ATOM      8  C   UNL     1       4.608   4.377  16.730  0.00  0.00    +0.000 A 
ATOM      9  C   UNL     1       3.735   3.523  17.397  0.00  0.00    +0.000 A 
ATOM     10  C   UNL     1       2.790   4.075  18.220  0.00  0.00    +0.000 A 
ATOM     11  N   UNL     1       2.726   5.397  18.318  0.00  0.00    +0.000 NA
ATOM     12  C   UNL     1       3.558   6.188  17.610  0.00  0.00    +0.000 A 
ATOM     13  N   UNL     1       3.414   7.568  17.713  0.00  0.00    +0.000 N 
ATOM     14  N   UNL     1       4.539   5.717  16.838  0.00  0.00    +0.000 NA
ATOM     15  H   UNL     1       4.294   8.032  17.553  0.00  0.00    +0.000 HD
BRANCH  10  16
ATOM     16  N   UNL     1       1.917   3.327  18.979  0.00  0.00    +0.000 N 
ATOM     17  C   UNL     1       1.957   1.872  18.887  0.00  0.00    +0.000 C 
ATOM     18  C   UNL     1       1.049   3.880  19.999  0.00  0.00    +0.000 C 
ENDBRANCH  10  16
ENDBRANCH   1  13
BRANCH   4  19
ATOM     19  N   UNL     1      -0.530  10.486  20.497  0.00  0.00    +0.000 N 
ATOM     20  C   UNL     1      -0.216  11.592  21.295  0.00  0.00    +0.000 C 
ATOM     21  O   UNL     1       0.887  12.043  21.526  0.00  0.00    +0.000 OA
ATOM     22  H   UNL     1      -1.496  10.184  20.430  0.00  0.00    +0.000 HD
BRANCH  20  23
ATOM     23  C   UNL     1      -1.364  12.292  21.907  0.00  0.00    +0.000 A 
ATOM     24  C   UNL     1      -1.986  11.703  23.008  0.00  0.00    +0.000 A 
ATOM     25  F   UNL     1      -1.507  10.568  23.545  0.00  0.00    +0.000 F 
ATOM     26  C   UNL     1      -3.146  12.238  23.561  0.00  0.00    +0.000 A 
ATOM     27  C   UNL     1      -3.667  13.415  23.035  0.00  0.00    +0.000 A 
ATOM     28  C   UNL     1      -3.017  14.059  21.988  0.00  0.00    +0.000 A 
ATOM     29  C   UNL     1      -1.858  13.513  21.421  0.00  0.00    +0.000 A 
ATOM     30 CL   UNL     1      -1.182  14.378  20.084  0.00  0.00    +0.000 Cl
ENDBRANCH  20  23
ENDBRANCH   4  19
TORSDOF 4
ENDMDL
MODEL 2
REMARK VINA RESULT:      -8.3      0.562      1.109
REMARK  Name = 
REMARK  7 active torsions:
REMARK  status: ('A' for Active; 'I' for Inactive)
REMARK    1  A    between atoms: C_1  and  C_2
REMARK    2  A    between atoms: C_4  and  N_5
REMARK    3  A    between atoms: N_5  and  C_6
REMARK    4  A    between atoms: N_5  and  C_7
REMARK    5  A    between atoms: N_10  and  C_11
REMARK    6  A    between atoms: C_14  and  N_15
REMARK    7  A    between atoms: C_16  and  C_18
REMARK                            x       y       z     vdW  Elec       q    Type
REMARK                         _______ _______ _______ _____ _____    ______ ____
ROOT
ATOM      1  C   UNL     1       2.684   8.059  18.297  0.00  0.00    +0.000 A 
ATOM      2  C   UNL     1       2.097   9.173  17.721  0.00  0.00    +0.000 A 
ATOM      3  C   UNL     1       1.146   9.912  18.422  0.00  0.00    +0.000 A 
ATOM      4  C   UNL     1       0.746   9.567  19.706  0.00  0.00    +0.000 A 
ATOM      5  C   UNL     1       1.358   8.464  20.317  0.00  0.00    +0.000 A 
ATOM      6  C   UNL     1       2.302   7.722  19.604  0.00  0.00    +0.000 A 
ENDROOT
BRANCH   1  13
ATOM      7  C   UNL     1       5.628   3.470  15.611  0.00  0.00    +0.000 C 
ATOM      8  C   UNL     1       4.676   4.071  16.600  0.00  0.00    +0.000 A 
ATOM      9  C   UNL     1       3.876   3.256  17.394  0.00  0.00    +0.000 A 
ATOM     10  C   UNL     1       3.028   3.853  18.289  0.00  0.00    +0.000 A 
ATOM     11  N   UNL     1       2.982   5.178  18.335  0.00  0.00    +0.000 NA
ATOM     12  C   UNL     1       3.738   5.929  17.508  0.00  0.00    +0.000 A 
ATOM     13  N   UNL     1       3.613   7.313  17.565  0.00  0.00    +0.000 N 
ATOM     14  N   UNL     1       4.626   5.415  16.656  0.00  0.00    +0.000 NA
ATOM     15  H   UNL     1       4.473   7.761  17.291  0.00  0.00    +0.000 HD
BRANCH  10  16
ATOM     16  N   UNL     1       2.238   3.146  19.170  0.00  0.00    +0.000 N 
ATOM     17  C   UNL     1       2.620   3.078  20.576  0.00  0.00    +0.000 C 
ATOM     18  C   UNL     1       0.946   2.584  18.829  0.00  0.00    +0.000 C 
ENDBRANCH  10  16
ENDBRANCH   1  13
BRANCH   4  19
ATOM     19  N   UNL     1      -0.268  10.277  20.389  0.00  0.00    +0.000 N 
ATOM     20  C   UNL     1      -0.041  11.367  21.238  0.00  0.00    +0.000 C 
ATOM     21  O   UNL     1       1.029  11.846  21.548  0.00  0.00    +0.000 OA
ATOM     22  H   UNL     1      -1.217   9.945  20.254  0.00  0.00    +0.000 HD
BRANCH  20  23
ATOM     23  C   UNL     1      -1.247  12.007  21.801  0.00  0.00    +0.000 A 
ATOM     24  C   UNL     1      -1.779  11.490  22.982  0.00  0.00    +0.000 A 
ATOM     25  F   UNL     1      -1.167  10.485  23.632  0.00  0.00    +0.000 F 
ATOM     26  C   UNL     1      -2.979  11.958  23.507  0.00  0.00    +0.000 A 
ATOM     27  C   UNL     1      -3.638  13.002  22.865  0.00  0.00    +0.000 A 
ATOM     28  C   UNL     1      -3.084  13.582  21.730  0.00  0.00    +0.000 A 
ATOM     29  C   UNL     1      -1.883  13.100  21.193  0.00  0.00    +0.000 A 
ATOM     30 CL   UNL     1      -1.333  13.868  19.744  0.00  0.00    +0.000 Cl
ENDBRANCH  20  23
ENDBRANCH   4  19
TORSDOF 4
ENDMDL
MODEL 3
REMARK VINA RESULT:      -8.0      1.077      1.408
REMARK  Name = 
REMARK  7 active torsions:
REMARK  status: ('A' for Active; 'I' for Inactive)
REMARK    1  A    between atoms: C_1  and  C_2
REMARK    2  A    between atoms: C_4  and  N_5
REMARK    3  A    between atoms: N_5  and  C_6
REMARK    4  A    between atoms: N_5  and  C_7
REMARK    5  A    between atoms: N_10  and  C_11
REMARK    6  A    between atoms: C_14  and  N_15
REMARK    7  A    between atoms: C_16  and  C_18
REMARK                            x       y       z     vdW  Elec       q    Type
REMARK                         _______ _______ _______ _____ _____    ______ ____
ROOT
ATOM      1  C   UNL     1       2.274   8.345  18.524  0.00  0.00    +0.000 A 
ATOM      2  C   UNL     1       1.517   9.275  17.830  0.00  0.00    +0.000 A 
ATOM      3  C   UNL     1       0.498   9.976  18.471  0.00  0.00    +0.000 A 
ATOM      4  C   UNL     1       0.195   9.774  19.810  0.00  0.00    +0.000 A 
ATOM      5  C   UNL     1       0.976   8.864  20.537  0.00  0.00    +0.000 A 
ATOM      6  C   UNL     1       1.988   8.157  19.885  0.00  0.00    +0.000 A 
ENDROOT
BRANCH   1  13
ATOM      7  C   UNL     1       5.468   3.869  15.935  0.00  0.00    +0.000 C 
ATOM      8  C   UNL     1       4.423   4.429  16.851  0.00  0.00    +0.000 A 
ATOM      9  C   UNL     1       3.546   3.582  17.521  0.00  0.00    +0.000 A 
ATOM     10  C   UNL     1       2.613   4.141  18.354  0.00  0.00    +0.000 A 
ATOM     11  N   UNL     1       2.564   5.463  18.457  0.00  0.00    +0.000 NA
ATOM     12  C   UNL     1       3.400   6.248  17.746  0.00  0.00    +0.000 A 
ATOM     13  N   UNL     1       3.271   7.629  17.854  0.00  0.00    +0.000 N 
ATOM     14  N   UNL     1       4.368   5.769  16.964  0.00  0.00    +0.000 NA
ATOM     15  H   UNL     1       4.155   8.084  17.690  0.00  0.00    +0.000 HD
BRANCH  10  16
ATOM     16  N   UNL     1       1.738   3.399  19.117  0.00  0.00    +0.000 N 
ATOM     17  C   UNL     1       1.672   1.955  18.926  0.00  0.00    +0.000 C 
ATOM     18  C   UNL     1       0.973   3.934  20.225  0.00  0.00    +0.000 C 
ENDBRANCH  10  16
ENDBRANCH   1  13
BRANCH   4  19
ATOM     19  N   UNL     1      -0.883  10.436  20.441  0.00  0.00    +0.000 N 
ATOM     20  C   UNL     1      -0.929  11.812  20.698  0.00  0.00    +0.000 C 
ATOM     21  O   UNL     1      -0.067  12.633  20.463  0.00  0.00    +0.000 OA
ATOM     22  H   UNL     1      -1.658   9.853  20.736  0.00  0.00    +0.000 HD
BRANCH  20  23
ATOM     23  C   UNL     1      -2.178  12.312  21.308  0.00  0.00    +0.000 A 
ATOM     24  C   UNL     1      -2.166  12.636  22.664  0.00  0.00    +0.000 A 
ATOM     25  F   UNL     1      -1.030  12.568  23.380  0.00  0.00    +0.000 F 
ATOM     26  C   UNL     1      -3.330  12.995  23.338  0.00  0.00    +0.000 A 
ATOM     27  C   UNL     1      -4.524  13.081  22.629  0.00  0.00    +0.000 A 
ATOM     28  C   UNL     1      -4.540  12.838  21.260  0.00  0.00    +0.000 A 
ATOM     29  C   UNL     1      -3.371  12.461  20.585  0.00  0.00    +0.000 A 
ATOM     30 CL   UNL     1      -3.540  12.127  18.896  0.00  0.00    +0.000 Cl
ENDBRANCH  20  23
ENDBRANCH   4  19
TORSDOF 4
ENDMDL
MODEL 4
REMARK VINA RESULT:      -7.9      6.373      8.745
REMARK  Name = 
REMARK  7 active torsions:
REMARK  status: ('A' for Active; 'I' for Inactive)
REMARK    1  A    between atoms: C_1  and  C_2
REMARK    2  A    between atoms: C_4  and  N_5
REMARK    3  A    between atoms: N_5  and  C_6
REMARK    4  A    between atoms: N_5  and  C_7
REMARK    5  A    between atoms: N_10  and  C_11
REMARK    6  A    between atoms: C_14  and  N_15
REMARK    7  A    between atoms: C_16  and  C_18
REMARK                            x       y       z     vdW  Elec       q    Type
REMARK                         _______ _______ _______ _____ _____    ______ ____
ROOT
ATOM      1  C   UNL     1       6.837   5.959  18.355  0.00  0.00    +0.000 A 
ATOM      2  C   UNL     1       6.443   6.805  17.331  0.00  0.00    +0.000 A 
ATOM      3  C   UNL     1       7.106   8.012  17.119  0.00  0.00    +0.000 A 
ATOM      4  C   UNL     1       8.169   8.418  17.913  0.00  0.00    +0.000 A 
ATOM      5  C   UNL     1       8.604   7.556  18.929  0.00  0.00    +0.000 A 
ATOM      6  C   UNL     1       7.928   6.354  19.144  0.00  0.00    +0.000 A 
ENDROOT
BRANCH   1  13
ATOM      7  C   UNL     1       2.398   1.913  19.286  0.00  0.00    +0.000 C 
ATOM      8  C   UNL     1       2.995   3.287  19.279  0.00  0.00    +0.000 A 
ATOM      9  C   UNL     1       2.206   4.401  19.551  0.00  0.00    +0.000 A 
ATOM     10  C   UNL     1       2.800   5.634  19.541  0.00  0.00    +0.000 A 
ATOM     11  N   UNL     1       4.089   5.717  19.239  0.00  0.00    +0.000 NA
ATOM     12  C   UNL     1       4.803   4.616  18.929  0.00  0.00    +0.000 A 
ATOM     13  N   UNL     1       6.139   4.767  18.571  0.00  0.00    +0.000 N 
ATOM     14  N   UNL     1       4.303   3.381  18.977  0.00  0.00    +0.000 NA
ATOM     15  H   UNL     1       6.667   3.942  18.807  0.00  0.00    +0.000 HD
BRANCH  10  16
ATOM     16  N   UNL     1       2.133   6.798  19.859  0.00  0.00    +0.000 N 
ATOM     17  C   UNL     1       2.119   7.898  18.901  0.00  0.00    +0.000 C 
ATOM     18  C   UNL     1       1.297   6.960  21.031  0.00  0.00    +0.000 C 
ENDBRANCH  10  16
ENDBRANCH   1  13
BRANCH   4  19
ATOM     19  N   UNL     1       8.795   9.674  17.739  0.00  0.00    +0.000 N 
ATOM     20  C   UNL     1       9.214  10.504  18.785  0.00  0.00    +0.000 C 
ATOM     21  O   UNL     1       9.084  10.310  19.976  0.00  0.00    +0.000 OA
ATOM     22  H   UNL     1       8.923   9.983  16.782  0.00  0.00    +0.000 HD
BRANCH  20  23
ATOM     23  C   UNL     1       9.907  11.745  18.384  0.00  0.00    +0.000 A 
ATOM     24  C   UNL     1      11.257  11.883  18.708  0.00  0.00    +0.000 A 
ATOM     25  F   UNL     1      11.929  10.882  19.302  0.00  0.00    +0.000 F 
ATOM     26  C   UNL     1      11.945  13.070  18.475  0.00  0.00    +0.000 A 
ATOM     27  C   UNL     1      11.284  14.126  17.857  0.00  0.00    +0.000 A 
ATOM     28  C   UNL     1       9.961  13.981  17.456  0.00  0.00    +0.000 A 
ATOM     29  C   UNL     1       9.263  12.791  17.705  0.00  0.00    +0.000 A 
ATOM     30 CL   UNL     1       7.605  12.762  17.212  0.00  0.00    +0.000 Cl
ENDBRANCH  20  23
ENDBRANCH   4  19
TORSDOF 4
ENDMDL
MODEL 5
REMARK VINA RESULT:      -7.9      1.616      1.986
REMARK  Name = 
REMARK  7 active torsions:
REMARK  status: ('A' for Active; 'I' for Inactive)
REMARK    1  A    between atoms: C_1  and  C_2
REMARK    2  A    between atoms: C_4  and  N_5
REMARK    3  A    between atoms: N_5  and  C_6
REMARK    4  A    between atoms: N_5  and  C_7
REMARK    5  A    between atoms: N_10  and  C_11
REMARK    6  A    between atoms: C_14  and  N_15
REMARK    7  A    between atoms: C_16  and  C_18
REMARK                            x       y       z     vdW  Elec       q    Type
REMARK                         _______ _______ _______ _____ _____    ______ ____
ROOT
ATOM      1  C   UNL     1       2.122   8.470  18.509  0.00  0.00    +0.000 A 
ATOM      2  C   UNL     1       1.321   9.284  17.724  0.00  0.00    +0.000 A 
ATOM      3  C   UNL     1       0.281  10.013  18.296  0.00  0.00    +0.000 A 
ATOM      4  C   UNL     1       0.000   9.955  19.654  0.00  0.00    +0.000 A 
ATOM      5  C   UNL     1       0.825   9.166  20.468  0.00  0.00    +0.000 A 
ATOM      6  C   UNL     1       1.858   8.429  19.887  0.00  0.00    +0.000 A 
ENDROOT
BRANCH   1  13
ATOM      7  C   UNL     1       5.369   3.881  16.200  0.00  0.00    +0.000 C 
ATOM      8  C   UNL     1       4.286   4.480  17.044  0.00  0.00    +0.000 A 
ATOM      9  C   UNL     1       3.360   3.664  17.686  0.00  0.00    +0.000 A 
ATOM     10  C   UNL     1       2.394   4.259  18.454  0.00  0.00    +0.000 A 
ATOM     11  N   UNL     1       2.364   5.584  18.524  0.00  0.00    +0.000 NA
ATOM     12  C   UNL     1       3.250   6.337  17.841  0.00  0.00    +0.000 A 
ATOM     13  N   UNL     1       3.140   7.722  17.911  0.00  0.00    +0.000 N 
ATOM     14  N   UNL     1       4.250   5.823  17.124  0.00  0.00    +0.000 NA
ATOM     15  H   UNL     1       4.039   8.158  17.784  0.00  0.00    +0.000 HD
BRANCH  10  16
ATOM     16  N   UNL     1       1.466   3.550  19.186  0.00  0.00    +0.000 N 
ATOM     17  C   UNL     1       0.982   2.272  18.678  0.00  0.00    +0.000 C 
ATOM     18  C   UNL     1       1.041   3.910  20.524  0.00  0.00    +0.000 C 
ENDBRANCH  10  16
ENDBRANCH   1  13
BRANCH   4  19
ATOM     19  N   UNL     1      -1.097  10.643  20.221  0.00  0.00    +0.000 N 
ATOM     20  C   UNL     1      -1.237  12.036  20.244  0.00  0.00    +0.000 C 
ATOM     21  O   UNL     1      -0.449  12.860  19.827  0.00  0.00    +0.000 OA
ATOM     22  H   UNL     1      -1.813  10.068  20.652  0.00  0.00    +0.000 HD
BRANCH  20  23
ATOM     23  C   UNL     1      -2.492  12.548  20.827  0.00  0.00    +0.000 A 
ATOM     24  C   UNL     1      -3.630  12.580  20.021  0.00  0.00    +0.000 A 
ATOM     25  F   UNL     1      -3.604  12.087  18.771  0.00  0.00    +0.000 F 
ATOM     26  C   UNL     1      -4.817  13.161  20.458  0.00  0.00    +0.000 A 
ATOM     27  C   UNL     1      -4.884  13.677  21.748  0.00  0.00    +0.000 A 
ATOM     28  C   UNL     1      -3.784  13.585  22.593  0.00  0.00    +0.000 A 
ATOM     29  C   UNL     1      -2.584  13.013  22.148  0.00  0.00    +0.000 A 
ATOM     30 CL   UNL     1      -1.273  13.016  23.277  0.00  0.00    +0.000 Cl
ENDBRANCH  20  23
ENDBRANCH   4  19
TORSDOF 4
ENDMDL
MODEL 6
REMARK VINA RESULT:      -7.9      3.906      9.689
REMARK  Name = 
REMARK  7 active torsions:
REMARK  status: ('A' for Active; 'I' for Inactive)
REMARK    1  A    between atoms: C_1  and  C_2
REMARK    2  A    between atoms: C_4  and  N_5
REMARK    3  A    between atoms: N_5  and  C_6
REMARK    4  A    between atoms: N_5  and  C_7
REMARK    5  A    between atoms: N_10  and  C_11
REMARK    6  A    between atoms: C_14  and  N_15
REMARK    7  A    between atoms: C_16  and  C_18
REMARK                            x       y       z     vdW  Elec       q    Type
REMARK                         _______ _______ _______ _____ _____    ______ ____
ROOT
ATOM      1  C   UNL     1       0.746  10.041  19.800  0.00  0.00    +0.000 A 
ATOM      2  C   UNL     1       1.231  10.391  18.551  0.00  0.00    +0.000 A 
ATOM      3  C   UNL     1       2.057   9.519  17.845  0.00  0.00    +0.000 A 
ATOM      4  C   UNL     1       2.431   8.284  18.355  0.00  0.00    +0.000 A 
ATOM      5  C   UNL     1       1.917   7.899  19.601  0.00  0.00    +0.000 A 
ATOM      6  C   UNL     1       1.100   8.782  20.308  0.00  0.00    +0.000 A 
ENDROOT
BRANCH   1  13
ATOM      7  C   UNL     1      -3.946  13.447  21.624  0.00  0.00    +0.000 C 
ATOM      8  C   UNL     1      -3.175  12.626  20.636  0.00  0.00    +0.000 A 
ATOM      9  C   UNL     1      -3.730  12.302  19.402  0.00  0.00    +0.000 A 
ATOM     10  C   UNL     1      -2.983  11.556  18.530  0.00  0.00    +0.000 A 
ATOM     11  N   UNL     1      -1.780  11.147  18.912  0.00  0.00    +0.000 NA
ATOM     12  C   UNL     1      -1.304  11.440  20.139  0.00  0.00    +0.000 A 
ATOM     13  N   UNL     1      -0.057  10.943  20.506  0.00  0.00    +0.000 N 
ATOM     14  N   UNL     1      -1.952  12.210  21.014  0.00  0.00    +0.000 NA
ATOM     15  H   UNL     1       0.386  11.550  21.177  0.00  0.00    +0.000 HD
BRANCH  10  16
ATOM     16  N   UNL     1      -3.404  11.231  17.259  0.00  0.00    +0.000 N 
ATOM     17  C   UNL     1      -4.751  11.599  16.837  0.00  0.00    +0.000 C 
ATOM     18  C   UNL     1      -2.540  10.679  16.234  0.00  0.00    +0.000 C 
ENDBRANCH  10  16
ENDBRANCH   1  13
BRANCH   4  19
ATOM     19  N   UNL     1       3.324   7.430  17.667  0.00  0.00    +0.000 N 
ATOM     20  C   UNL     1       3.970   6.329  18.241  0.00  0.00    +0.000 C 
ATOM     21  O   UNL     1       3.903   5.955  19.393  0.00  0.00    +0.000 OA
ATOM     22  H   UNL     1       3.509   7.661  16.698  0.00  0.00    +0.000 HD
BRANCH  20  23
ATOM     23  C   UNL     1       4.813   5.529  17.328  0.00  0.00    +0.000 A 
ATOM     24  C   UNL     1       6.061   6.037  16.968  0.00  0.00    +0.000 A 
ATOM     25  F   UNL     1       6.517   7.185  17.497  0.00  0.00    +0.000 F 
ATOM     26  C   UNL     1       6.859   5.403  16.019  0.00  0.00    +0.000 A 
ATOM     27  C   UNL     1       6.422   4.210  15.455  0.00  0.00    +0.000 A 
ATOM     28  C   UNL     1       5.216   3.648  15.859  0.00  0.00    +0.000 A 
ATOM     29  C   UNL     1       4.405   4.293  16.803  0.00  0.00    +0.000 A 
ATOM     30 CL   UNL     1       2.902   3.522  17.172  0.00  0.00    +0.000 Cl
ENDBRANCH  20  23
ENDBRANCH   4  19
TORSDOF 4
ENDMDL
MODEL 7
REMARK VINA RESULT:      -7.9      6.474      8.698
REMARK  Name = 
REMARK  7 active torsions:
REMARK  status: ('A' for Active; 'I' for Inactive)
REMARK    1  A    between atoms: C_1  and  C_2
REMARK    2  A    between atoms: C_4  and  N_5
REMARK    3  A    between atoms: N_5  and  C_6
REMARK    4  A    between atoms: N_5  and  C_7
REMARK    5  A    between atoms: N_10  and  C_11
REMARK    6  A    between atoms: C_14  and  N_15
REMARK    7  A    between atoms: C_16  and  C_18
REMARK                            x       y       z     vdW  Elec       q    Type
REMARK                         _______ _______ _______ _____ _____    ______ ____
ROOT
ATOM      1  C   UNL     1       7.029   6.060  18.248  0.00  0.00    +0.000 A 
ATOM      2  C   UNL     1       8.064   6.431  19.091  0.00  0.00    +0.000 A 
ATOM      3  C   UNL     1       8.653   7.688  18.975  0.00  0.00    +0.000 A 
ATOM      4  C   UNL     1       8.242   8.609  18.022  0.00  0.00    +0.000 A 
ATOM      5  C   UNL     1       7.171   8.264  17.186  0.00  0.00    +0.000 A 
ATOM      6  C   UNL     1       6.593   6.998  17.300  0.00  0.00    +0.000 A 
ENDROOT
BRANCH   1  13
ATOM      7  C   UNL     1       3.082   1.470  18.786  0.00  0.00    +0.000 C 
ATOM      8  C   UNL     1       3.516   2.900  18.894  0.00  0.00    +0.000 A 
ATOM      9  C   UNL     1       2.600   3.890  19.236  0.00  0.00    +0.000 A 
ATOM     10  C   UNL     1       3.046   5.181  19.331  0.00  0.00    +0.000 A 
ATOM     11  N   UNL     1       4.320   5.436  19.060  0.00  0.00    +0.000 NA
ATOM     12  C   UNL     1       5.160   4.451  18.680  0.00  0.00    +0.000 A 
ATOM     13  N   UNL     1       6.473   4.782  18.360  0.00  0.00    +0.000 N 
ATOM     14  N   UNL     1       4.807   3.166  18.625  0.00  0.00    +0.000 NA
ATOM     15  H   UNL     1       7.091   4.008  18.542  0.00  0.00    +0.000 HD
BRANCH  10  16
ATOM     16  N   UNL     1       2.245   6.232  19.724  0.00  0.00    +0.000 N 
ATOM     17  C   UNL     1       1.414   6.089  20.914  0.00  0.00    +0.000 C 
ATOM     18  C   UNL     1       2.283   7.550  19.123  0.00  0.00    +0.000 C 
ENDBRANCH  10  16
ENDBRANCH   1  13
BRANCH   4  19
ATOM     19  N   UNL     1       8.886   9.857  17.861  0.00  0.00    +0.000 N 
ATOM     20  C   UNL     1       9.296  10.681  18.916  0.00  0.00    +0.000 C 
ATOM     21  O   UNL     1       9.141  10.487  20.104  0.00  0.00    +0.000 OA
ATOM     22  H   UNL     1       9.035  10.166  16.907  0.00  0.00    +0.000 HD
BRANCH  20  23
ATOM     23  C   UNL     1      10.011  11.914  18.530  0.00  0.00    +0.000 A 
ATOM     24  C   UNL     1      11.358  12.032  18.874  0.00  0.00    +0.000 A 
ATOM     25  F   UNL     1      12.008  11.020  19.472  0.00  0.00    +0.000 F 
ATOM     26  C   UNL     1      12.065  13.211  18.655  0.00  0.00    +0.000 A 
ATOM     27  C   UNL     1      11.426  14.279  18.032  0.00  0.00    +0.000 A 
ATOM     28  C   UNL     1      10.107  14.152  17.612  0.00  0.00    +0.000 A 
ATOM     29  C   UNL     1       9.390  12.971  17.846  0.00  0.00    +0.000 A 
ATOM     30 CL   UNL     1       7.739  12.966  17.330  0.00  0.00    +0.000 Cl
ENDBRANCH  20  23
ENDBRANCH   4  19
TORSDOF 4
ENDMDL
MODEL 8
REMARK VINA RESULT:      -7.8      1.167      1.354
REMARK  Name = 
REMARK  7 active torsions:
REMARK  status: ('A' for Active; 'I' for Inactive)
REMARK    1  A    between atoms: C_1  and  C_2
REMARK    2  A    between atoms: C_4  and  N_5
REMARK    3  A    between atoms: N_5  and  C_6
REMARK    4  A    between atoms: N_5  and  C_7
REMARK    5  A    between atoms: N_10  and  C_11
REMARK    6  A    between atoms: C_14  and  N_15
REMARK    7  A    between atoms: C_16  and  C_18
REMARK                            x       y       z     vdW  Elec       q    Type
REMARK                         _______ _______ _______ _____ _____    ______ ____
ROOT
ATOM      1  C   UNL     1       2.064   8.449  18.599  0.00  0.00    +0.000 A 
ATOM      2  C   UNL     1       1.855   8.265  19.956  0.00  0.00    +0.000 A 
ATOM      3  C   UNL     1       0.847   8.963  20.617  0.00  0.00    +0.000 A 
ATOM      4  C   UNL     1       0.023   9.864  19.959  0.00  0.00    +0.000 A 
ATOM      5  C   UNL     1       0.195  10.034  18.578  0.00  0.00    +0.000 A 
ATOM      6  C   UNL     1       1.216   9.341  17.925  0.00  0.00    +0.000 A 
ENDROOT
BRANCH   1  13
ATOM      7  C   UNL     1       5.449   4.075  16.080  0.00  0.00    +0.000 C 
ATOM      8  C   UNL     1       4.356   4.601  16.959  0.00  0.00    +0.000 A 
ATOM      9  C   UNL     1       3.469   3.728  17.581  0.00  0.00    +0.000 A 
ATOM     10  C   UNL     1       2.492   4.256  18.382  0.00  0.00    +0.000 A 
ATOM     11  N   UNL     1       2.413   5.575  18.502  0.00  0.00    +0.000 NA
ATOM     12  C   UNL     1       3.261   6.386  17.838  0.00  0.00    +0.000 A 
ATOM     13  N   UNL     1       3.102   7.763  17.961  0.00  0.00    +0.000 N 
ATOM     14  N   UNL     1       4.271   5.938  17.090  0.00  0.00    +0.000 NA
ATOM     15  H   UNL     1       3.982   8.237  17.840  0.00  0.00    +0.000 HD
BRANCH  10  16
ATOM     16  N   UNL     1       1.600   3.486  19.097  0.00  0.00    +0.000 N 
ATOM     17  C   UNL     1       0.998   4.031  20.308  0.00  0.00    +0.000 C 
ATOM     18  C   UNL     1       1.086   2.209  18.644  0.00  0.00    +0.000 C 
ENDBRANCH  10  16
ENDBRANCH   1  13
BRANCH   4  19
ATOM     19  N   UNL     1      -0.955  10.622  20.644  0.00  0.00    +0.000 N 
ATOM     20  C   UNL     1      -1.001  12.021  20.670  0.00  0.00    +0.000 C 
ATOM     21  O   UNL     1      -0.218  12.793  20.157  0.00  0.00    +0.000 OA
ATOM     22  H   UNL     1      -1.650  10.095  21.161  0.00  0.00    +0.000 HD
BRANCH  20  23
ATOM     23  C   UNL     1      -2.145  12.614  21.392  0.00  0.00    +0.000 A 
ATOM     24  C   UNL     1      -1.934  13.086  22.688  0.00  0.00    +0.000 A 
ATOM     25  F   UNL     1      -0.708  13.072  23.236  0.00  0.00    +0.000 F 
ATOM     26  C   UNL     1      -2.986  13.545  23.476  0.00  0.00    +0.000 A 
ATOM     27  C   UNL     1      -4.269  13.580  22.940  0.00  0.00    +0.000 A 
ATOM     28  C   UNL     1      -4.486  13.187  21.624  0.00  0.00    +0.000 A 
ATOM     29  C   UNL     1      -3.430  12.711  20.835  0.00  0.00    +0.000 A 
ATOM     30 CL   UNL     1      -3.844  12.195  19.237  0.00  0.00    +0.000 Cl
ENDBRANCH  20  23
ENDBRANCH   4  19
TORSDOF 4
ENDMDL
MODEL 9
REMARK VINA RESULT:      -7.7      3.757      9.628
REMARK  Name = 
REMARK  7 active torsions:
REMARK  status: ('A' for Active; 'I' for Inactive)
REMARK    1  A    between atoms: C_1  and  C_2
REMARK    2  A    between atoms: C_4  and  N_5
REMARK    3  A    between atoms: N_5  and  C_6
REMARK    4  A    between atoms: N_5  and  C_7
REMARK    5  A    between atoms: N_10  and  C_11
REMARK    6  A    between atoms: C_14  and  N_15
REMARK    7  A    between atoms: C_16  and  C_18
REMARK                            x       y       z     vdW  Elec       q    Type
REMARK                         _______ _______ _______ _____ _____    ______ ____
ROOT
ATOM      1  C   UNL     1       0.747  10.087  19.803  0.00  0.00    +0.000 A 
ATOM      2  C   UNL     1       1.240  10.468  18.566  0.00  0.00    +0.000 A 
ATOM      3  C   UNL     1       2.067   9.612  17.841  0.00  0.00    +0.000 A 
ATOM      4  C   UNL     1       2.434   8.363  18.320  0.00  0.00    +0.000 A 
ATOM      5  C   UNL     1       1.913   7.946  19.553  0.00  0.00    +0.000 A 
ATOM      6  C   UNL     1       1.094   8.813  20.279  0.00  0.00    +0.000 A 
ENDROOT
BRANCH   1  13
ATOM      7  C   UNL     1      -3.952  13.435  21.712  0.00  0.00    +0.000 C 
ATOM      8  C   UNL     1      -3.182  12.635  20.706  0.00  0.00    +0.000 A 
ATOM      9  C   UNL     1      -3.744  12.328  19.471  0.00  0.00    +0.000 A 
ATOM     10  C   UNL     1      -2.998  11.602  18.582  0.00  0.00    +0.000 A 
ATOM     11  N   UNL     1      -1.790  11.193  18.949  0.00  0.00    +0.000 NA
ATOM     12  C   UNL     1      -1.308  11.468  20.178  0.00  0.00    +0.000 A 
ATOM     13  N   UNL     1      -0.056  10.973  20.529  0.00  0.00    +0.000 N 
ATOM     14  N   UNL     1      -1.955  12.220  21.069  0.00  0.00    +0.000 NA
ATOM     15  H   UNL     1       0.388  11.571  21.207  0.00  0.00    +0.000 HD
BRANCH  10  16
ATOM     16  N   UNL     1      -3.425  11.295  17.308  0.00  0.00    +0.000 N 
ATOM     17  C   UNL     1      -4.773  11.673  16.896  0.00  0.00    +0.000 C 
ATOM     18  C   UNL     1      -2.568  10.753  16.273  0.00  0.00    +0.000 C 
ENDBRANCH  10  16
ENDBRANCH   1  13
BRANCH   4  19
ATOM     19  N   UNL     1       3.327   7.525  17.614  0.00  0.00    +0.000 N 
ATOM     20  C   UNL     1       4.018   6.445  18.179  0.00  0.00    +0.000 C 
ATOM     21  O   UNL     1       3.995   6.082  19.336  0.00  0.00    +0.000 OA
ATOM     22  H   UNL     1       3.478   7.750  16.637  0.00  0.00    +0.000 HD
BRANCH  20  23
ATOM     23  C   UNL     1       4.853   5.658  17.249  0.00  0.00    +0.000 A 
ATOM     24  C   UNL     1       4.335   4.465  16.746  0.00  0.00    +0.000 A 
ATOM     25  F   UNL     1       3.081   4.080  17.038  0.00  0.00    +0.000 F 
ATOM     26  C   UNL     1       5.106   3.608  15.965  0.00  0.00    +0.000 A 
ATOM     27  C   UNL     1       6.407   3.976  15.637  0.00  0.00    +0.000 A 
ATOM     28  C   UNL     1       6.914   5.198  16.065  0.00  0.00    +0.000 A 
ATOM     29  C   UNL     1       6.143   6.054  16.864  0.00  0.00    +0.000 A 
ATOM     30 CL   UNL     1       6.914   7.514  17.381  0.00  0.00    +0.000 Cl
ENDBRANCH  20  23
ENDBRANCH   4  19
TORSDOF 4
ENDMDL
