MODEL 1
REMARK VINA RESULT:      -7.5      0.000      0.000
REMARK  Name = 
REMARK  6 active torsions:
REMARK  status: ('A' for Active; 'I' for Inactive)
REMARK    1  A    between atoms: C_1  and  S_2
REMARK    2  A    between atoms: S_2  and  C_5
REMARK    3  A    between atoms: C_11  and  C_12
REMARK    4  A    between atoms: N_14  and  C_15
REMARK    5  A    between atoms: C_15  and  C_16
REMARK    6  A    between atoms: C_16  and  N_17
REMARK                            x       y       z     vdW  Elec       q    Type
REMARK                         _______ _______ _______ _____ _____    ______ ____
ROOT
ATOM      1  C   UNL     1       3.109   4.463  17.553  0.00  0.00    +0.000 C 
ATOM      2  O   UNL     1       2.366   3.969  16.719  0.00  0.00    +0.000 OA
ATOM      3  N   UNL     1       4.479   4.338  17.438  0.00  0.00    +0.000 N 
ATOM      4  H   UNL     1       5.088   4.780  18.118  0.00  0.00    +0.000 HD
ENDROOT
BRANCH   1  11
ATOM      5  C   UNL     1       2.026   4.615  19.842  0.00  0.00    +0.000 A 
ATOM      6  C   UNL     1       1.564   5.377  20.937  0.00  0.00    +0.000 A 
ATOM      7  C   UNL     1       1.579   6.762  20.897  0.00  0.00    +0.000 A 
ATOM      8  C   UNL     1       2.065   7.403  19.767  0.00  0.00    +0.000 A 
ATOM      9  C   UNL     1       2.550   6.664  18.675  0.00  0.00    +0.000 A 
ATOM     10 CL   UNL     1       3.175   7.625  17.372  0.00  0.00    +0.000 Cl
ATOM     11  C   UNL     1       2.537   5.251  18.684  0.00  0.00    +0.000 A 
BRANCH   5  13
ATOM     12  C   UNL     1       1.510   2.554  21.750  0.00  0.00    +0.000 C 
ATOM     13  S   UNL     1       1.832   2.841  20.031  0.00  0.00    +0.000 S 
ATOM     14  O   UNL     1       3.150   2.262  19.805  0.00  0.00    +0.000 OA
ATOM     15  O   UNL     1       0.736   2.397  19.199  0.00  0.00    +0.000 OA
ENDBRANCH   5  13
ENDBRANCH   1  11
BRANCH   3  16
ATOM     16  C   UNL     1       5.073   3.635  16.305  0.00  0.00    +0.000 C 
BRANCH  16  17
ATOM     17  C   UNL     1       6.498   4.094  15.980  0.00  0.00    +0.000 C 
BRANCH  17  18
ATOM     18  N   UNL     1       6.872   5.295  16.710  0.00  0.00    +0.000 N 
ATOM     19  C   UNL     1       7.599   5.281  17.864  0.00  0.00    +0.000 C 
ATOM     20  O   UNL     1       8.033   4.290  18.434  0.00  0.00    +0.000 OA
ATOM     21  C   UNL     1       7.762   6.687  18.361  0.00  0.00    +0.000 C 
ATOM     22  C   UNL     1       7.028   7.536  17.340  0.00  0.00    +0.000 C 
ATOM     23  C   UNL     1       6.414   6.541  16.400  0.00  0.00    +0.000 C 
ATOM     24  O   UNL     1       5.635   6.830  15.505  0.00  0.00    +0.000 OA
ENDBRANCH  17  18
ENDBRANCH  16  17
ENDBRANCH   3  16
TORSDOF 5
ENDMDL
MODEL 2
REMARK VINA RESULT:      -7.3      0.808      1.845
REMARK  Name = 
REMARK  6 active torsions:
REMARK  status: ('A' for Active; 'I' for Inactive)
REMARK    1  A    between atoms: C_1  and  S_2
REMARK    2  A    between atoms: S_2  and  C_5
REMARK    3  A    between atoms: C_11  and  C_12
REMARK    4  A    between atoms: N_14  and  C_15
REMARK    5  A    between atoms: C_15  and  C_16
REMARK    6  A    between atoms: C_16  and  N_17
REMARK                            x       y       z     vdW  Elec       q    Type
REMARK                         _______ _______ _______ _____ _____    ______ ____
ROOT
ATOM      1  C   UNL     1       3.070   4.449  17.788  0.00  0.00    +0.000 C 
ATOM      2  O   UNL     1       2.339   4.024  16.906  0.00  0.00    +0.000 OA
ATOM      3  N   UNL     1       4.421   4.169  17.778  0.00  0.00    +0.000 N 
ATOM      4  H   UNL     1       5.024   4.554  18.497  0.00  0.00    +0.000 HD
ENDROOT
BRANCH   1  11
ATOM      5  C   UNL     1       2.063   4.777  20.093  0.00  0.00    +0.000 A 
ATOM      6  C   UNL     1       1.611   5.622  21.129  0.00  0.00    +0.000 A 
ATOM      7  C   UNL     1       1.571   6.997  20.961  0.00  0.00    +0.000 A 
ATOM      8  C   UNL     1       1.992   7.546  19.758  0.00  0.00    +0.000 A 
ATOM      9  C   UNL     1       2.466   6.724  18.722  0.00  0.00    +0.000 A 
ATOM     10 CL   UNL     1       3.007   7.580  17.312  0.00  0.00    +0.000 Cl
ATOM     11  C   UNL     1       2.508   5.319  18.862  0.00  0.00    +0.000 A 
BRANCH   5  13
ATOM     12  C   UNL     1       0.639   2.392  19.434  0.00  0.00    +0.000 C 
ATOM     13  S   UNL     1       1.944   3.023  20.453  0.00  0.00    +0.000 S 
ATOM     14  O   UNL     1       1.429   2.922  21.812  0.00  0.00    +0.000 OA
ATOM     15  O   UNL     1       3.211   2.395  20.150  0.00  0.00    +0.000 OA
ENDBRANCH   5  13
ENDBRANCH   1  11
BRANCH   3  16
ATOM     16  C   UNL     1       5.014   3.380  16.703  0.00  0.00    +0.000 C 
BRANCH  16  17
ATOM     17  C   UNL     1       6.216   4.059  16.038  0.00  0.00    +0.000 C 
BRANCH  17  18
ATOM     18  N   UNL     1       6.646   5.249  16.757  0.00  0.00    +0.000 N 
ATOM     19  C   UNL     1       6.300   6.516  16.391  0.00  0.00    +0.000 C 
ATOM     20  O   UNL     1       5.599   6.830  15.440  0.00  0.00    +0.000 OA
ATOM     21  C   UNL     1       6.951   7.493  17.327  0.00  0.00    +0.000 C 
ATOM     22  C   UNL     1       7.730   6.626  18.297  0.00  0.00    +0.000 C 
ATOM     23  C   UNL     1       7.551   5.230  17.776  0.00  0.00    +0.000 C 
ATOM     24  O   UNL     1       8.133   4.251  18.216  0.00  0.00    +0.000 OA
ENDBRANCH  17  18
ENDBRANCH  16  17
ENDBRANCH   3  16
TORSDOF 5
ENDMDL
MODEL 3
REMARK VINA RESULT:      -7.0      2.669      5.767
REMARK  Name = 
REMARK  6 active torsions:
REMARK  status: ('A' for Active; 'I' for Inactive)
REMARK    1  A    between atoms: C_1  and  S_2
REMARK    2  A    between atoms: S_2  and  C_5
REMARK    3  A    between atoms: C_11  and  C_12
REMARK    4  A    between atoms: N_14  and  C_15
REMARK    5  A    between atoms: C_15  and  C_16
REMARK    6  A    between atoms: C_16  and  N_17
REMARK                            x       y       z     vdW  Elec       q    Type
REMARK                         _______ _______ _______ _____ _____    ______ ____
ROOT
ATOM      1  C   UNL     1       4.861   3.859  18.386  0.00  0.00    +0.000 C 
ATOM      2  O   UNL     1       5.514   3.755  19.413  0.00  0.00    +0.000 OA
ATOM      3  N   UNL     1       4.181   2.774  17.871  0.00  0.00    +0.000 N 
ATOM      4  H   UNL     1       3.615   2.879  17.036  0.00  0.00    +0.000 HD
ENDROOT
BRANCH   1  11
ATOM      5  C   UNL     1       5.459   5.455  16.508  0.00  0.00    +0.000 A 
ATOM      6  C   UNL     1       5.284   6.682  15.832  0.00  0.00    +0.000 A 
ATOM      7  C   UNL     1       4.435   7.656  16.334  0.00  0.00    +0.000 A 
ATOM      8  C   UNL     1       3.743   7.412  17.512  0.00  0.00    +0.000 A 
ATOM      9  C   UNL     1       3.888   6.189  18.188  0.00  0.00    +0.000 A 
ATOM     10 CL   UNL     1       2.905   6.029  19.610  0.00  0.00    +0.000 Cl
ATOM     11  C   UNL     1       4.754   5.183  17.705  0.00  0.00    +0.000 A 
BRANCH   5  13
ATOM     12  C   UNL     1       7.061   5.046  14.179  0.00  0.00    +0.000 C 
ATOM     13  S   UNL     1       6.675   4.362  15.767  0.00  0.00    +0.000 S 
ATOM     14  O   UNL     1       5.975   3.119  15.470  0.00  0.00    +0.000 OA
ATOM     15  O   UNL     1       7.839   4.306  16.624  0.00  0.00    +0.000 OA
ENDBRANCH   5  13
ENDBRANCH   1  11
BRANCH   3  16
ATOM     16  C   UNL     1       4.207   1.483  18.551  0.00  0.00    +0.000 C 
BRANCH  16  17
ATOM     17  C   UNL     1       2.839   1.043  19.081  0.00  0.00    +0.000 C 
BRANCH  17  18
ATOM     18  N   UNL     1       2.157   2.107  19.802  0.00  0.00    +0.000 N 
ATOM     19  C   UNL     1       2.553   2.562  21.026  0.00  0.00    +0.000 C 
ATOM     20  O   UNL     1       3.507   2.159  21.674  0.00  0.00    +0.000 OA
ATOM     21  C   UNL     1       1.602   3.628  21.485  0.00  0.00    +0.000 C 
ATOM     22  C   UNL     1       0.588   3.740  20.362  0.00  0.00    +0.000 C 
ATOM     23  C   UNL     1       0.976   2.657  19.400  0.00  0.00    +0.000 C 
ATOM     24  O   UNL     1       0.323   2.341  18.418  0.00  0.00    +0.000 OA
ENDBRANCH  17  18
ENDBRANCH  16  17
ENDBRANCH   3  16
TORSDOF 5
ENDMDL
MODEL 4
REMARK VINA RESULT:      -7.0      2.636      5.921
REMARK  Name = 
REMARK  6 active torsions:
REMARK  status: ('A' for Active; 'I' for Inactive)
REMARK    1  A    between atoms: C_1  and  S_2
REMARK    2  A    between atoms: S_2  and  C_5
REMARK    3  A    between atoms: C_11  and  C_12
REMARK    4  A    between atoms: N_14  and  C_15
REMARK    5  A    between atoms: C_15  and  C_16
REMARK    6  A    between atoms: C_16  and  N_17
REMARK                            x       y       z     vdW  Elec       q    Type
REMARK                         _______ _______ _______ _____ _____    ______ ____
ROOT
ATOM      1  C   UNL     1       4.924   3.908  18.452  0.00  0.00    +0.000 C 
ATOM      2  O   UNL     1       5.640   3.829  19.439  0.00  0.00    +0.000 OA
ATOM      3  N   UNL     1       4.207   2.814  18.013  0.00  0.00    +0.000 N 
ATOM      4  H   UNL     1       3.590   2.900  17.212  0.00  0.00    +0.000 HD
ENDROOT
BRANCH   1  11
ATOM      5  C   UNL     1       5.456   5.461  16.517  0.00  0.00    +0.000 A 
ATOM      6  C   UNL     1       5.248   6.667  15.814  0.00  0.00    +0.000 A 
ATOM      7  C   UNL     1       4.400   7.645  16.312  0.00  0.00    +0.000 A 
ATOM      8  C   UNL     1       3.742   7.424  17.513  0.00  0.00    +0.000 A 
ATOM      9  C   UNL     1       3.918   6.221  18.217  0.00  0.00    +0.000 A 
ATOM     10 CL   UNL     1       2.974   6.088  19.667  0.00  0.00    +0.000 Cl
ATOM     11  C   UNL     1       4.784   5.212  17.739  0.00  0.00    +0.000 A 
BRANCH   5  13
ATOM     12  C   UNL     1       7.034   5.032  14.176  0.00  0.00    +0.000 C 
ATOM     13  S   UNL     1       6.666   4.362  15.775  0.00  0.00    +0.000 S 
ATOM     14  O   UNL     1       5.964   3.116  15.497  0.00  0.00    +0.000 OA
ATOM     15  O   UNL     1       7.838   4.316  16.620  0.00  0.00    +0.000 OA
ENDBRANCH   5  13
ENDBRANCH   1  11
BRANCH   3  16
ATOM     16  C   UNL     1       4.267   1.544  18.729  0.00  0.00    +0.000 C 
BRANCH  16  17
ATOM     17  C   UNL     1       2.903   1.061  19.232  0.00  0.00    +0.000 C 
BRANCH  17  18
ATOM     18  N   UNL     1       2.146   2.121  19.882  0.00  0.00    +0.000 N 
ATOM     19  C   UNL     1       1.236   2.903  19.235  0.00  0.00    +0.000 C 
ATOM     20  O   UNL     1       0.929   2.831  18.054  0.00  0.00    +0.000 OA
ATOM     21  C   UNL     1       0.682   3.911  20.198  0.00  0.00    +0.000 C 
ATOM     22  C   UNL     1       1.392   3.616  21.505  0.00  0.00    +0.000 C 
ATOM     23  C   UNL     1       2.373   2.535  21.161  0.00  0.00    +0.000 C 
ATOM     24  O   UNL     1       3.224   2.109  21.925  0.00  0.00    +0.000 OA
ENDBRANCH  17  18
ENDBRANCH  16  17
ENDBRANCH   3  16
TORSDOF 5
ENDMDL
MODEL 5
REMARK VINA RESULT:      -6.9      2.117      2.980
REMARK  Name = 
REMARK  6 active torsions:
REMARK  status: ('A' for Active; 'I' for Inactive)
REMARK    1  A    between atoms: C_1  and  S_2
REMARK    2  A    between atoms: S_2  and  C_5
REMARK    3  A    between atoms: C_11  and  C_12
REMARK    4  A    between atoms: N_14  and  C_15
REMARK    5  A    between atoms: C_15  and  C_16
REMARK    6  A    between atoms: C_16  and  N_17
REMARK                            x       y       z     vdW  Elec       q    Type
REMARK                         _______ _______ _______ _____ _____    ______ ____
ROOT
ATOM      1  C   UNL     1       4.517   6.137  17.478  0.00  0.00    +0.000 C 
ATOM      2  O   UNL     1       4.137   6.131  16.317  0.00  0.00    +0.000 OA
ATOM      3  N   UNL     1       5.856   6.282  17.780  0.00  0.00    +0.000 N 
ATOM      4  H   UNL     1       6.156   6.319  18.748  0.00  0.00    +0.000 HD
ENDROOT
BRANCH   1  11
ATOM      5  C   UNL     1       3.440   4.881  19.400  0.00  0.00    +0.000 A 
ATOM      6  C   UNL     1       2.549   4.833  20.494  0.00  0.00    +0.000 A 
ATOM      7  C   UNL     1       1.719   5.905  20.784  0.00  0.00    +0.000 A 
ATOM      8  C   UNL     1       1.776   7.041  19.989  0.00  0.00    +0.000 A 
ATOM      9  C   UNL     1       2.671   7.117  18.909  0.00  0.00    +0.000 A 
ATOM     10 CL   UNL     1       2.653   8.631  18.061  0.00  0.00    +0.000 Cl
ATOM     11  C   UNL     1       3.521   6.036  18.585  0.00  0.00    +0.000 A 
BRANCH   5  13
ATOM     12  C   UNL     1       4.079   2.339  20.535  0.00  0.00    +0.000 C 
ATOM     13  S   UNL     1       4.357   3.364  19.116  0.00  0.00    +0.000 S 
ATOM     14  O   UNL     1       5.767   3.722  19.193  0.00  0.00    +0.000 OA
ATOM     15  O   UNL     1       3.871   2.743  17.903  0.00  0.00    +0.000 OA
ENDBRANCH   5  13
ENDBRANCH   1  11
BRANCH   3  16
ATOM     16  C   UNL     1       6.847   6.455  16.723  0.00  0.00    +0.000 C 
BRANCH  16  17
ATOM     17  C   UNL     1       7.496   5.143  16.272  0.00  0.00    +0.000 C 
BRANCH  17  18
ATOM     18  N   UNL     1       7.058   4.737  14.945  0.00  0.00    +0.000 N 
ATOM     19  C   UNL     1       6.099   3.793  14.724  0.00  0.00    +0.000 C 
ATOM     20  O   UNL     1       5.484   3.171  15.578  0.00  0.00    +0.000 OA
ATOM     21  C   UNL     1       5.931   3.599  13.246  0.00  0.00    +0.000 C 
ATOM     22  C   UNL     1       6.926   4.561  12.623  0.00  0.00    +0.000 C 
ATOM     23  C   UNL     1       7.658   5.149  13.793  0.00  0.00    +0.000 C 
ATOM     24  O   UNL     1       8.630   5.882  13.698  0.00  0.00    +0.000 OA
ENDBRANCH  17  18
ENDBRANCH  16  17
ENDBRANCH   3  16
TORSDOF 5
ENDMDL
MODEL 6
REMARK VINA RESULT:      -6.8      2.119      3.101
REMARK  Name = 
REMARK  6 active torsions:
REMARK  status: ('A' for Active; 'I' for Inactive)
REMARK    1  A    between atoms: C_1  and  S_2
REMARK    2  A    between atoms: S_2  and  C_5
REMARK    3  A    between atoms: C_11  and  C_12
REMARK    4  A    between atoms: N_14  and  C_15
REMARK    5  A    between atoms: C_15  and  C_16
REMARK    6  A    between atoms: C_16  and  N_17
REMARK                            x       y       z     vdW  Elec       q    Type
REMARK                         _______ _______ _______ _____ _____    ______ ____
ROOT
ATOM      1  C   UNL     1       4.637   6.126  17.396  0.00  0.00    +0.000 C 
ATOM      2  O   UNL     1       4.266   6.187  16.234  0.00  0.00    +0.000 OA
ATOM      3  N   UNL     1       5.981   6.137  17.708  0.00  0.00    +0.000 N 
ATOM      4  H   UNL     1       6.277   6.120  18.678  0.00  0.00    +0.000 HD
ENDROOT
BRANCH   1  11
ATOM      5  C   UNL     1       3.507   4.965  19.348  0.00  0.00    +0.000 A 
ATOM      6  C   UNL     1       2.606   4.978  20.434  0.00  0.00    +0.000 A 
ATOM      7  C   UNL     1       1.803   6.081  20.680  0.00  0.00    +0.000 A 
ATOM      8  C   UNL     1       1.900   7.189  19.849  0.00  0.00    +0.000 A 
ATOM      9  C   UNL     1       2.806   7.204  18.776  0.00  0.00    +0.000 A 
ATOM     10 CL   UNL     1       2.838   8.689  17.879  0.00  0.00    +0.000 Cl
ATOM     11  C   UNL     1       3.628   6.089  18.496  0.00  0.00    +0.000 A 
BRANCH   5  13
ATOM     12  C   UNL     1       4.025   2.426  20.551  0.00  0.00    +0.000 C 
ATOM     13  S   UNL     1       4.384   3.414  19.124  0.00  0.00    +0.000 S 
ATOM     14  O   UNL     1       5.801   3.729  19.244  0.00  0.00    +0.000 OA
ATOM     15  O   UNL     1       3.921   2.786  17.906  0.00  0.00    +0.000 OA
ENDBRANCH   5  13
ENDBRANCH   1  11
BRANCH   3  16
ATOM     16  C   UNL     1       6.991   6.244  16.660  0.00  0.00    +0.000 C 
BRANCH  16  17
ATOM     17  C   UNL     1       7.539   4.891  16.198  0.00  0.00    +0.000 C 
BRANCH  17  18
ATOM     18  N   UNL     1       7.125   4.561  14.842  0.00  0.00    +0.000 N 
ATOM     19  C   UNL     1       7.707   5.089  13.727  0.00  0.00    +0.000 C 
ATOM     20  O   UNL     1       8.632   5.887  13.702  0.00  0.00    +0.000 OA
ATOM     21  C   UNL     1       7.005   4.562  12.510  0.00  0.00    +0.000 C 
ATOM     22  C   UNL     1       5.926   3.649  13.061  0.00  0.00    +0.000 C 
ATOM     23  C   UNL     1       6.027   3.809  14.549  0.00  0.00    +0.000 C 
ATOM     24  O   UNL     1       5.239   3.327  15.348  0.00  0.00    +0.000 OA
ENDBRANCH  17  18
ENDBRANCH  16  17
ENDBRANCH   3  16
TORSDOF 5
ENDMDL
MODEL 7
REMARK VINA RESULT:      -6.7      2.076      3.393
REMARK  Name = 
REMARK  6 active torsions:
REMARK  status: ('A' for Active; 'I' for Inactive)
REMARK    1  A    between atoms: C_1  and  S_2
REMARK    2  A    between atoms: S_2  and  C_5
REMARK    3  A    between atoms: C_11  and  C_12
REMARK    4  A    between atoms: N_14  and  C_15
REMARK    5  A    between atoms: C_15  and  C_16
REMARK    6  A    between atoms: C_16  and  N_17
REMARK                            x       y       z     vdW  Elec       q    Type
REMARK                         _______ _______ _______ _____ _____    ______ ____
ROOT
ATOM      1  C   UNL     1       3.343   3.518  17.561  0.00  0.00    +0.000 C 
ATOM      2  O   UNL     1       2.476   3.494  16.700  0.00  0.00    +0.000 OA
ATOM      3  N   UNL     1       4.678   3.560  17.215  0.00  0.00    +0.000 N 
ATOM      4  H   UNL     1       5.388   3.613  17.937  0.00  0.00    +0.000 HD
ENDROOT
BRANCH   1  11
ATOM      5  C   UNL     1       2.515   4.745  19.621  0.00  0.00    +0.000 A 
ATOM      6  C   UNL     1       2.076   4.742  20.962  0.00  0.00    +0.000 A 
ATOM      7  C   UNL     1       2.085   3.576  21.711  0.00  0.00    +0.000 A 
ATOM      8  C   UNL     1       2.524   2.397  21.126  0.00  0.00    +0.000 A 
ATOM      9  C   UNL     1       2.946   2.375  19.786  0.00  0.00    +0.000 A 
ATOM     10 CL   UNL     1       3.405   0.807  19.199  0.00  0.00    +0.000 Cl
ATOM     11  C   UNL     1       2.957   3.551  19.002  0.00  0.00    +0.000 A 
BRANCH   5  13
ATOM     12  C   UNL     1       1.997   7.516  20.079  0.00  0.00    +0.000 C 
ATOM     13  S   UNL     1       2.532   6.364  18.844  0.00  0.00    +0.000 S 
ATOM     14  O   UNL     1       1.455   6.354  17.863  0.00  0.00    +0.000 OA
ATOM     15  O   UNL     1       3.874   6.651  18.388  0.00  0.00    +0.000 OA
ENDBRANCH   5  13
ENDBRANCH   1  11
BRANCH   3  16
ATOM     16  C   UNL     1       5.087   3.601  15.814  0.00  0.00    +0.000 C 
BRANCH  16  17
ATOM     17  C   UNL     1       6.498   4.162  15.606  0.00  0.00    +0.000 C 
BRANCH  17  18
ATOM     18  N   UNL     1       6.816   5.222  16.550  0.00  0.00    +0.000 N 
ATOM     19  C   UNL     1       6.367   6.503  16.425  0.00  0.00    +0.000 C 
ATOM     20  O   UNL     1       5.651   6.936  15.534  0.00  0.00    +0.000 OA
ATOM     21  C   UNL     1       6.921   7.330  17.548  0.00  0.00    +0.000 C 
ATOM     22  C   UNL     1       7.763   6.359  18.354  0.00  0.00    +0.000 C 
ATOM     23  C   UNL     1       7.710   5.081  17.570  0.00  0.00    +0.000 C 
ATOM     24  O   UNL     1       8.369   4.087  17.830  0.00  0.00    +0.000 OA
ENDBRANCH  17  18
ENDBRANCH  16  17
ENDBRANCH   3  16
TORSDOF 5
ENDMDL
MODEL 8
REMARK VINA RESULT:      -6.7      2.165      3.019
REMARK  Name = 
REMARK  6 active torsions:
REMARK  status: ('A' for Active; 'I' for Inactive)
REMARK    1  A    between atoms: C_1  and  S_2
REMARK    2  A    between atoms: S_2  and  C_5
REMARK    3  A    between atoms: C_11  and  C_12
REMARK    4  A    between atoms: N_14  and  C_15
REMARK    5  A    between atoms: C_15  and  C_16
REMARK    6  A    between atoms: C_16  and  N_17
REMARK                            x       y       z     vdW  Elec       q    Type
REMARK                         _______ _______ _______ _____ _____    ______ ____
ROOT
ATOM      1  C   UNL     1       4.296   4.621  17.670  0.00  0.00    +0.000 C 
ATOM      2  O   UNL     1       3.813   3.895  16.815  0.00  0.00    +0.000 OA
ATOM      3  N   UNL     1       5.642   4.925  17.657  0.00  0.00    +0.000 N 
ATOM      4  H   UNL     1       6.027   5.556  18.352  0.00  0.00    +0.000 HD
ENDROOT
BRANCH   1  11
ATOM      5  C   UNL     1       3.060   4.511  19.883  0.00  0.00    +0.000 A 
ATOM      6  C   UNL     1       2.296   5.127  20.897  0.00  0.00    +0.000 A 
ATOM      7  C   UNL     1       1.859   6.435  20.766  0.00  0.00    +0.000 A 
ATOM      8  C   UNL     1       2.190   7.149  19.622  0.00  0.00    +0.000 A 
ATOM      9  C   UNL     1       2.968   6.562  18.611  0.00  0.00    +0.000 A 
ATOM     10 CL   UNL     1       3.337   7.615  17.281  0.00  0.00    +0.000 Cl
ATOM     11  C   UNL     1       3.417   5.226  18.714  0.00  0.00    +0.000 A 
BRANCH   5  13
ATOM     12  C   UNL     1       2.321   1.844  19.180  0.00  0.00    +0.000 C 
ATOM     13  S   UNL     1       3.444   2.783  20.179  0.00  0.00    +0.000 S 
ATOM     14  O   UNL     1       3.033   2.506  21.549  0.00  0.00    +0.000 OA
ATOM     15  O   UNL     1       4.821   2.539  19.812  0.00  0.00    +0.000 OA
ENDBRANCH   5  13
ENDBRANCH   1  11
BRANCH   3  16
ATOM     16  C   UNL     1       6.516   4.408  16.610  0.00  0.00    +0.000 C 
BRANCH  16  17
ATOM     17  C   UNL     1       6.898   5.455  15.559  0.00  0.00    +0.000 C 
BRANCH  17  18
ATOM     18  N   UNL     1       6.898   4.909  14.210  0.00  0.00    +0.000 N 
ATOM     19  C   UNL     1       6.058   3.917  13.798  0.00  0.00    +0.000 C 
ATOM     20  O   UNL     1       5.207   3.361  14.476  0.00  0.00    +0.000 OA
ATOM     21  C   UNL     1       6.362   3.578  12.368  0.00  0.00    +0.000 C 
ATOM     22  C   UNL     1       7.501   4.507  11.992  0.00  0.00    +0.000 C 
ATOM     23  C   UNL     1       7.829   5.228  13.266  0.00  0.00    +0.000 C 
ATOM     24  O   UNL     1       8.781   5.980  13.405  0.00  0.00    +0.000 OA
ENDBRANCH  17  18
ENDBRANCH  16  17
ENDBRANCH   3  16
TORSDOF 5
ENDMDL
MODEL 9
REMARK VINA RESULT:      -6.6      2.400      3.291
REMARK  Name = 
REMARK  6 active torsions:
REMARK  status: ('A' for Active; 'I' for Inactive)
REMARK    1  A    between atoms: C_1  and  S_2
REMARK    2  A    between atoms: S_2  and  C_5
REMARK    3  A    between atoms: C_11  and  C_12
REMARK    4  A    between atoms: N_14  and  C_15
REMARK    5  A    between atoms: C_15  and  C_16
REMARK    6  A    between atoms: C_16  and  N_17
REMARK                            x       y       z     vdW  Elec       q    Type
REMARK                         _______ _______ _______ _____ _____    ______ ____
ROOT
ATOM      1  C   UNL     1       4.698   5.183  18.054  0.00  0.00    +0.000 C 
ATOM      2  O   UNL     1       5.778   5.724  18.236  0.00  0.00    +0.000 OA
ATOM      3  N   UNL     1       4.529   4.276  17.027  0.00  0.00    +0.000 N 
ATOM      4  H   UNL     1       3.638   3.808  16.905  0.00  0.00    +0.000 HD
ENDROOT
BRANCH   1  11
ATOM      5  C   UNL     1       3.152   4.525  19.954  0.00  0.00    +0.000 A 
ATOM      6  C   UNL     1       2.129   4.841  20.874  0.00  0.00    +0.000 A 
ATOM      7  C   UNL     1       1.487   6.068  20.831  0.00  0.00    +0.000 A 
ATOM      8  C   UNL     1       1.866   6.999  19.875  0.00  0.00    +0.000 A 
ATOM      9  C   UNL     1       2.897   6.713  18.964  0.00  0.00    +0.000 A 
ATOM     10 CL   UNL     1       3.282   8.011  17.878  0.00  0.00    +0.000 Cl
ATOM     11  C   UNL     1       3.561   5.466  18.978  0.00  0.00    +0.000 A 
BRANCH   5  13
ATOM     12  C   UNL     1       2.890   1.874  18.924  0.00  0.00    +0.000 C 
ATOM     13  S   UNL     1       3.793   2.854  20.093  0.00  0.00    +0.000 S 
ATOM     14  O   UNL     1       3.361   2.361  21.394  0.00  0.00    +0.000 OA
ATOM     15  O   UNL     1       5.209   2.869  19.800  0.00  0.00    +0.000 OA
ENDBRANCH   5  13
ENDBRANCH   1  11
BRANCH   3  16
ATOM     16  C   UNL     1       5.641   3.924  16.149  0.00  0.00    +0.000 C 
BRANCH  16  17
ATOM     17  C   UNL     1       5.216   3.656  14.702  0.00  0.00    +0.000 C 
BRANCH  17  18
ATOM     18  N   UNL     1       6.200   4.129  13.740  0.00  0.00    +0.000 N 
ATOM     19  C   UNL     1       6.314   3.635  12.474  0.00  0.00    +0.000 C 
ATOM     20  O   UNL     1       5.629   2.755  11.975  0.00  0.00    +0.000 OA
ATOM     21  C   UNL     1       7.454   4.322  11.780  0.00  0.00    +0.000 C 
ATOM     22  C   UNL     1       7.998   5.290  12.813  0.00  0.00    +0.000 C 
ATOM     23  C   UNL     1       7.197   5.005  14.049  0.00  0.00    +0.000 C 
ATOM     24  O   UNL     1       7.422   5.498  15.143  0.00  0.00    +0.000 OA
ENDBRANCH  17  18
ENDBRANCH  16  17
ENDBRANCH   3  16
TORSDOF 5
ENDMDL
