MODEL 1
REMARK VINA RESULT:      -9.3      0.000      0.000
REMARK  Name = 
REMARK  11 active torsions:
REMARK  status: ('A' for Active; 'I' for Inactive)
REMARK    1  A    between atoms: C_1  and  C_2
REMARK    2  A    between atoms: C_2  and  C_3
REMARK    3  A    between atoms: C_2  and  C_4
REMARK    4  A    between atoms: C_4  and  C_5
REMARK    5  A    between atoms: C_5  and  N_6
REMARK    6  A    between atoms: C_5  and  C_7
REMARK    7  A    between atoms: C_7  and  N_8
REMARK    8  A    between atoms: N_8  and  C_20
REMARK    9  A    between atoms: C_9  and  C_11
REMARK   10  A    between atoms: C_13  and  C_14
REMARK   11  A    between atoms: C_23  and  C_24
REMARK                            x       y       z     vdW  Elec       q    Type
REMARK                         _______ _______ _______ _____ _____    ______ ____
ROOT
ATOM      1  N   UNL     1       6.333   5.187  17.048  0.00  0.00    +0.000 N 
ATOM      2  C   UNL     1       4.958   4.929  17.274  0.00  0.00    +0.000 C 
ATOM      3  O   UNL     1       4.332   4.084  16.654  0.00  0.00    +0.000 OA
ENDROOT
BRANCH   1   4
ATOM      4  C   UNL     1       6.950   6.371  17.554  0.00  0.00    +0.000 A 
ATOM      5  C   UNL     1       6.655   7.591  16.952  0.00  0.00    +0.000 A 
ATOM      6  C   UNL     1       7.316   8.753  17.359  0.00  0.00    +0.000 A 
ATOM      7  C   UNL     1       8.268   8.741  18.396  0.00  0.00    +0.000 A 
ATOM      8  C   UNL     1       8.469   7.514  19.057  0.00  0.00    +0.000 A 
ATOM      9  C   UNL     1       7.827   6.340  18.640  0.00  0.00    +0.000 A 
BRANCH   7  10
ATOM     10  C   UNL     1       9.072   9.949  18.717  0.00  0.00    +0.000 A 
ATOM     11  C   UNL     1       9.474  10.253  20.033  0.00  0.00    +0.000 A 
ATOM     12  C   UNL     1      10.133  11.448  20.348  0.00  0.00    +0.000 A 
ATOM     13  C   UNL     1      10.426  12.365  19.345  0.00  0.00    +0.000 A 
ATOM     14  C   UNL     1      10.068  12.069  18.040  0.00  0.00    +0.000 A 
ATOM     15  F   UNL     1      10.348  12.946  17.065  0.00  0.00    +0.000 F 
ATOM     16  C   UNL     1       9.403  10.887  17.721  0.00  0.00    +0.000 A 
ENDBRANCH   7  10
ENDBRANCH   1   4
BRANCH   2  17
ATOM     17  C   UNL     1       4.278   5.716  18.405  0.00  0.00    +0.000 C 
ATOM     18  C   UNL     1       3.251   5.053  19.293  0.00  0.00    +0.000 C 
ATOM     19  C   UNL     1       2.805   6.129  18.333  0.00  0.00    +0.000 C 
BRANCH  19  20
ATOM     20  C   UNL     1       2.234   7.446  18.880  0.00  0.00    +0.000 A 
ATOM     21  C   UNL     1       1.917   8.572  18.092  0.00  0.00    +0.000 A 
ATOM     22  C   UNL     1       1.231   9.685  18.605  0.00  0.00    +0.000 A 
ATOM     23  C   UNL     1       0.861   9.730  19.946  0.00  0.00    +0.000 A 
ATOM     24  C   UNL     1       1.222   8.673  20.776  0.00  0.00    +0.000 A 
ATOM     25  C   UNL     1       1.893   7.559  20.246  0.00  0.00    +0.000 A 
ENDBRANCH  19  20
ENDBRANCH   2  17
BRANCH   1  26
ATOM     26  C   UNL     1       7.104   4.550  15.942  0.00  0.00    +0.000 C 
BRANCH  26  27
ATOM     27  C   UNL     1       6.711   4.833  14.458  0.00  0.00    +0.000 C 
BRANCH  27  28
ATOM     28  N   UNL     1       7.809   5.389  13.654  0.00  0.00    +0.000 NA
ATOM     29  H   UNL     1       7.454   6.108  13.021  0.00  0.00    +0.000 HD
ATOM     30  H   UNL     1       8.160   4.662  13.017  0.00  0.00    +0.000 HD
ENDBRANCH  27  28
BRANCH  27  31
ATOM     31  C   UNL     1       6.250   3.518  13.749  0.00  0.00    +0.000 C 
BRANCH  31  33
ATOM     32  C   UNL     1       7.061   2.582  11.503  0.00  0.00    +0.000 C 
ATOM     33  C   UNL     1       6.138   3.577  12.205  0.00  0.00    +0.000 C 
ATOM     34  C   UNL     1       4.682   3.382  11.765  0.00  0.00    +0.000 C 
ENDBRANCH  31  33
ENDBRANCH  27  31
ENDBRANCH  26  27
ENDBRANCH   1  26
TORSDOF 9
ENDMDL
MODEL 2
REMARK VINA RESULT:      -8.6      0.814      1.424
REMARK  Name = 
REMARK  11 active torsions:
REMARK  status: ('A' for Active; 'I' for Inactive)
REMARK    1  A    between atoms: C_1  and  C_2
REMARK    2  A    between atoms: C_2  and  C_3
REMARK    3  A    between atoms: C_2  and  C_4
REMARK    4  A    between atoms: C_4  and  C_5
REMARK    5  A    between atoms: C_5  and  N_6
REMARK    6  A    between atoms: C_5  and  C_7
REMARK    7  A    between atoms: C_7  and  N_8
REMARK    8  A    between atoms: N_8  and  C_20
REMARK    9  A    between atoms: C_9  and  C_11
REMARK   10  A    between atoms: C_13  and  C_14
REMARK   11  A    between atoms: C_23  and  C_24
REMARK                            x       y       z     vdW  Elec       q    Type
REMARK                         _______ _______ _______ _____ _____    ______ ____
ROOT
ATOM      1  N   UNL     1       6.243   5.163  17.257  0.00  0.00    +0.000 N 
ATOM      2  C   UNL     1       4.885   4.877  17.548  0.00  0.00    +0.000 C 
ATOM      3  O   UNL     1       4.266   3.979  16.998  0.00  0.00    +0.000 OA
ENDROOT
BRANCH   1   4
ATOM      4  C   UNL     1       6.839   6.391  17.674  0.00  0.00    +0.000 A 
ATOM      5  C   UNL     1       6.398   7.580  17.099  0.00  0.00    +0.000 A 
ATOM      6  C   UNL     1       7.027   8.788  17.413  0.00  0.00    +0.000 A 
ATOM      7  C   UNL     1       8.094   8.853  18.329  0.00  0.00    +0.000 A 
ATOM      8  C   UNL     1       8.449   7.653  18.973  0.00  0.00    +0.000 A 
ATOM      9  C   UNL     1       7.838   6.434  18.647  0.00  0.00    +0.000 A 
BRANCH   7  10
ATOM     10  C   UNL     1       8.852  10.114  18.539  0.00  0.00    +0.000 A 
ATOM     11  C   UNL     1       8.797  11.181  17.619  0.00  0.00    +0.000 A 
ATOM     12  C   UNL     1       9.599  12.321  17.761  0.00  0.00    +0.000 A 
ATOM     13  C   UNL     1      10.464  12.431  18.844  0.00  0.00    +0.000 A 
ATOM     14  C   UNL     1      10.508  11.407  19.776  0.00  0.00    +0.000 A 
ATOM     15  F   UNL     1      11.338  11.505  20.824  0.00  0.00    +0.000 F 
ATOM     16  C   UNL     1       9.721  10.266  19.635  0.00  0.00    +0.000 A 
ENDBRANCH   7  10
ENDBRANCH   1   4
BRANCH   2  17
ATOM     17  C   UNL     1       4.221   5.705  18.658  0.00  0.00    +0.000 C 
ATOM     18  C   UNL     1       3.379   5.034  19.718  0.00  0.00    +0.000 C 
ATOM     19  C   UNL     1       2.707   5.930  18.706  0.00  0.00    +0.000 C 
BRANCH  19  20
ATOM     20  C   UNL     1       2.025   7.225  19.172  0.00  0.00    +0.000 A 
ATOM     21  C   UNL     1       1.564   7.462  20.483  0.00  0.00    +0.000 A 
ATOM     22  C   UNL     1       1.112   8.723  20.909  0.00  0.00    +0.000 A 
ATOM     23  C   UNL     1       1.075   9.796  20.023  0.00  0.00    +0.000 A 
ATOM     24  C   UNL     1       1.450   9.585  18.700  0.00  0.00    +0.000 A 
ATOM     25  C   UNL     1       1.914   8.324  18.291  0.00  0.00    +0.000 A 
ENDBRANCH  19  20
ENDBRANCH   2  17
BRANCH   1  26
ATOM     26  C   UNL     1       6.994   4.489  16.160  0.00  0.00    +0.000 C 
BRANCH  26  27
ATOM     27  C   UNL     1       6.680   4.843  14.672  0.00  0.00    +0.000 C 
BRANCH  27  28
ATOM     28  N   UNL     1       7.851   5.317  13.919  0.00  0.00    +0.000 NA
ATOM     29  H   UNL     1       7.878   6.337  13.915  0.00  0.00    +0.000 HD
ATOM     30  H   UNL     1       7.732   5.076  12.926  0.00  0.00    +0.000 HD
ENDBRANCH  27  28
BRANCH  27  31
ATOM     31  C   UNL     1       6.129   3.593  13.912  0.00  0.00    +0.000 C 
BRANCH  31  33
ATOM     32  C   UNL     1       7.177   2.991  11.649  0.00  0.00    +0.000 C 
ATOM     33  C   UNL     1       6.039   3.714  12.370  0.00  0.00    +0.000 C 
ATOM     34  C   UNL     1       4.675   3.225  11.871  0.00  0.00    +0.000 C 
ENDBRANCH  31  33
ENDBRANCH  27  31
ENDBRANCH  26  27
ENDBRANCH   1  26
TORSDOF 9
ENDMDL
MODEL 3
REMARK VINA RESULT:      -8.4      0.559      1.313
REMARK  Name = 
REMARK  11 active torsions:
REMARK  status: ('A' for Active; 'I' for Inactive)
REMARK    1  A    between atoms: C_1  and  C_2
REMARK    2  A    between atoms: C_2  and  C_3
REMARK    3  A    between atoms: C_2  and  C_4
REMARK    4  A    between atoms: C_4  and  C_5
REMARK    5  A    between atoms: C_5  and  N_6
REMARK    6  A    between atoms: C_5  and  C_7
REMARK    7  A    between atoms: C_7  and  N_8
REMARK    8  A    between atoms: N_8  and  C_20
REMARK    9  A    between atoms: C_9  and  C_11
REMARK   10  A    between atoms: C_13  and  C_14
REMARK   11  A    between atoms: C_23  and  C_24
REMARK                            x       y       z     vdW  Elec       q    Type
REMARK                         _______ _______ _______ _____ _____    ______ ____
ROOT
ATOM      1  N   UNL     1       5.907   5.110  17.251  0.00  0.00    +0.000 N 
ATOM      2  C   UNL     1       4.539   5.022  17.613  0.00  0.00    +0.000 C 
ATOM      3  O   UNL     1       3.799   4.145  17.196  0.00  0.00    +0.000 OA
ENDROOT
BRANCH   1   4
ATOM      4  C   UNL     1       6.656   6.299  17.496  0.00  0.00    +0.000 A 
ATOM      5  C   UNL     1       7.716   6.251  18.398  0.00  0.00    +0.000 A 
ATOM      6  C   UNL     1       8.407   7.419  18.734  0.00  0.00    +0.000 A 
ATOM      7  C   UNL     1       8.083   8.664  18.161  0.00  0.00    +0.000 A 
ATOM      8  C   UNL     1       7.078   8.664  17.174  0.00  0.00    +0.000 A 
ATOM      9  C   UNL     1       6.366   7.501  16.849  0.00  0.00    +0.000 A 
BRANCH   7  10
ATOM     10  C   UNL     1       8.721   9.919  18.637  0.00  0.00    +0.000 A 
ATOM     11  C   UNL     1       9.229  10.049  19.945  0.00  0.00    +0.000 A 
ATOM     12  C   UNL     1       9.726  11.268  20.427  0.00  0.00    +0.000 A 
ATOM     13  C   UNL     1       9.745  12.385  19.601  0.00  0.00    +0.000 A 
ATOM     14  C   UNL     1       9.279  12.268  18.301  0.00  0.00    +0.000 A 
ATOM     15  F   UNL     1       9.295  13.340  17.496  0.00  0.00    +0.000 F 
ATOM     16  C   UNL     1       8.774  11.062  17.819  0.00  0.00    +0.000 A 
ENDBRANCH   7  10
ENDBRANCH   1   4
BRANCH   2  17
ATOM     17  C   UNL     1       4.021   6.049  18.630  0.00  0.00    +0.000 C 
ATOM     18  C   UNL     1       3.273   5.600  19.864  0.00  0.00    +0.000 C 
ATOM     19  C   UNL     1       2.528   6.353  18.788  0.00  0.00    +0.000 C 
BRANCH  19  20
ATOM     20  C   UNL     1       1.941   7.738  19.098  0.00  0.00    +0.000 A 
ATOM     21  C   UNL     1       1.494   8.154  20.369  0.00  0.00    +0.000 A 
ATOM     22  C   UNL     1       1.133   9.483  20.645  0.00  0.00    +0.000 A 
ATOM     23  C   UNL     1       1.176  10.449  19.645  0.00  0.00    +0.000 A 
ATOM     24  C   UNL     1       1.539  10.065  18.358  0.00  0.00    +0.000 A 
ATOM     25  C   UNL     1       1.912   8.736  18.098  0.00  0.00    +0.000 A 
ENDBRANCH  19  20
ENDBRANCH   2  17
BRANCH   1  26
ATOM     26  C   UNL     1       6.530   4.225  16.225  0.00  0.00    +0.000 C 
BRANCH  26  27
ATOM     27  C   UNL     1       6.462   4.619  14.716  0.00  0.00    +0.000 C 
BRANCH  27  28
ATOM     28  N   UNL     1       7.706   5.214  14.205  0.00  0.00    +0.000 NA
ATOM     29  H   UNL     1       8.499   4.605  14.413  0.00  0.00    +0.000 HD
ATOM     30  H   UNL     1       7.914   6.068  14.740  0.00  0.00    +0.000 HD
ENDBRANCH  27  28
BRANCH  27  31
ATOM     31  C   UNL     1       6.163   3.366  13.831  0.00  0.00    +0.000 C 
BRANCH  31  33
ATOM     32  C   UNL     1       7.113   2.796  11.517  0.00  0.00    +0.000 C 
ATOM     33  C   UNL     1       6.085   3.609  12.303  0.00  0.00    +0.000 C 
ATOM     34  C   UNL     1       4.665   3.343  11.789  0.00  0.00    +0.000 C 
ENDBRANCH  31  33
ENDBRANCH  27  31
ENDBRANCH  26  27
ENDBRANCH   1  26
TORSDOF 9
ENDMDL
MODEL 4
REMARK VINA RESULT:      -8.3      1.026      1.770
REMARK  Name = 
REMARK  11 active torsions:
REMARK  status: ('A' for Active; 'I' for Inactive)
REMARK    1  A    between atoms: C_1  and  C_2
REMARK    2  A    between atoms: C_2  and  C_3
REMARK    3  A    between atoms: C_2  and  C_4
REMARK    4  A    between atoms: C_4  and  C_5
REMARK    5  A    between atoms: C_5  and  N_6
REMARK    6  A    between atoms: C_5  and  C_7
REMARK    7  A    between atoms: C_7  and  N_8
REMARK    8  A    between atoms: N_8  and  C_20
REMARK    9  A    between atoms: C_9  and  C_11
REMARK   10  A    between atoms: C_13  and  C_14
REMARK   11  A    between atoms: C_23  and  C_24
REMARK                            x       y       z     vdW  Elec       q    Type
REMARK                         _______ _______ _______ _____ _____    ______ ____
ROOT
ATOM      1  N   UNL     1       6.192   5.270  17.146  0.00  0.00    +0.000 N 
ATOM      2  C   UNL     1       4.805   5.197  17.432  0.00  0.00    +0.000 C 
ATOM      3  O   UNL     1       4.070   4.361  16.932  0.00  0.00    +0.000 OA
ENDROOT
BRANCH   1   4
ATOM      4  C   UNL     1       6.952   6.427  17.492  0.00  0.00    +0.000 A 
ATOM      5  C   UNL     1       7.816   6.361  18.582  0.00  0.00    +0.000 A 
ATOM      6  C   UNL     1       8.501   7.504  19.006  0.00  0.00    +0.000 A 
ATOM      7  C   UNL     1       8.368   8.738  18.341  0.00  0.00    +0.000 A 
ATOM      8  C   UNL     1       7.571   8.750  17.181  0.00  0.00    +0.000 A 
ATOM      9  C   UNL     1       6.863   7.614  16.763  0.00  0.00    +0.000 A 
BRANCH   7  10
ATOM     10  C   UNL     1       8.980   9.977  18.890  0.00  0.00    +0.000 A 
ATOM     11  C   UNL     1       9.723  10.864  18.085  0.00  0.00    +0.000 A 
ATOM     12  C   UNL     1      10.392  11.969  18.627  0.00  0.00    +0.000 A 
ATOM     13  C   UNL     1      10.317  12.227  19.991  0.00  0.00    +0.000 A 
ATOM     14  C   UNL     1       9.564  11.384  20.793  0.00  0.00    +0.000 A 
ATOM     15  F   UNL     1       9.484  11.626  22.109  0.00  0.00    +0.000 F 
ATOM     16  C   UNL     1       8.904  10.278  20.263  0.00  0.00    +0.000 A 
ENDBRANCH   7  10
ENDBRANCH   1   4
BRANCH   2  17
ATOM     17  C   UNL     1       4.256   6.182  18.474  0.00  0.00    +0.000 C 
ATOM     18  C   UNL     1       3.631   5.678  19.755  0.00  0.00    +0.000 C 
ATOM     19  C   UNL     1       2.754   6.345  18.723  0.00  0.00    +0.000 C 
BRANCH  19  20
ATOM     20  C   UNL     1       2.058   7.672  19.062  0.00  0.00    +0.000 A 
ATOM     21  C   UNL     1       1.631   8.048  20.352  0.00  0.00    +0.000 A 
ATOM     22  C   UNL     1       1.165   9.340  20.648  0.00  0.00    +0.000 A 
ATOM     23  C   UNL     1       1.077  10.305  19.649  0.00  0.00    +0.000 A 
ATOM     24  C   UNL     1       1.417   9.953  18.347  0.00  0.00    +0.000 A 
ATOM     25  C   UNL     1       1.897   8.662  18.067  0.00  0.00    +0.000 A 
ENDBRANCH  19  20
ENDBRANCH   2  17
BRANCH   1  26
ATOM     26  C   UNL     1       6.849   4.425  16.108  0.00  0.00    +0.000 C 
BRANCH  26  27
ATOM     27  C   UNL     1       6.606   4.726  14.595  0.00  0.00    +0.000 C 
BRANCH  27  28
ATOM     28  N   UNL     1       7.735   5.406  13.941  0.00  0.00    +0.000 NA
ATOM     29  H   UNL     1       7.995   6.241  14.468  0.00  0.00    +0.000 HD
ATOM     30  H   UNL     1       7.421   5.781  13.036  0.00  0.00    +0.000 HD
ENDBRANCH  27  28
BRANCH  27  31
ATOM     31  C   UNL     1       6.356   3.401  13.803  0.00  0.00    +0.000 C 
BRANCH  31  33
ATOM     32  C   UNL     1       6.968   2.439  11.505  0.00  0.00    +0.000 C 
ATOM     33  C   UNL     1       6.226   3.538  12.266  0.00  0.00    +0.000 C 
ATOM     34  C   UNL     1       4.750   3.590  11.854  0.00  0.00    +0.000 C 
ENDBRANCH  31  33
ENDBRANCH  27  31
ENDBRANCH  26  27
ENDBRANCH   1  26
TORSDOF 9
ENDMDL
MODEL 5
REMARK VINA RESULT:      -8.0      1.213      1.800
REMARK  Name = 
REMARK  11 active torsions:
REMARK  status: ('A' for Active; 'I' for Inactive)
REMARK    1  A    between atoms: C_1  and  C_2
REMARK    2  A    between atoms: C_2  and  C_3
REMARK    3  A    between atoms: C_2  and  C_4
REMARK    4  A    between atoms: C_4  and  C_5
REMARK    5  A    between atoms: C_5  and  N_6
REMARK    6  A    between atoms: C_5  and  C_7
REMARK    7  A    between atoms: C_7  and  N_8
REMARK    8  A    between atoms: N_8  and  C_20
REMARK    9  A    between atoms: C_9  and  C_11
REMARK   10  A    between atoms: C_13  and  C_14
REMARK   11  A    between atoms: C_23  and  C_24
REMARK                            x       y       z     vdW  Elec       q    Type
REMARK                         _______ _______ _______ _____ _____    ______ ____
ROOT
ATOM      1  N   UNL     1       5.932   4.818  17.479  0.00  0.00    +0.000 N 
ATOM      2  C   UNL     1       4.590   4.674  17.909  0.00  0.00    +0.000 C 
ATOM      3  O   UNL     1       3.892   3.723  17.594  0.00  0.00    +0.000 OA
ENDROOT
BRANCH   1   4
ATOM      4  C   UNL     1       6.611   6.068  17.600  0.00  0.00    +0.000 A 
ATOM      5  C   UNL     1       7.726   6.147  18.431  0.00  0.00    +0.000 A 
ATOM      6  C   UNL     1       8.354   7.377  18.648  0.00  0.00    +0.000 A 
ATOM      7  C   UNL     1       7.909   8.558  18.022  0.00  0.00    +0.000 A 
ATOM      8  C   UNL     1       6.848   8.428  17.107  0.00  0.00    +0.000 A 
ATOM      9  C   UNL     1       6.198   7.203  16.901  0.00  0.00    +0.000 A 
BRANCH   7  10
ATOM     10  C   UNL     1       8.487   9.881  18.377  0.00  0.00    +0.000 A 
ATOM     11  C   UNL     1       8.273  11.027  17.584  0.00  0.00    +0.000 A 
ATOM     12  C   UNL     1       8.910  12.244  17.858  0.00  0.00    +0.000 A 
ATOM     13  C   UNL     1       9.766  12.351  18.948  0.00  0.00    +0.000 A 
ATOM     14  C   UNL     1       9.963  11.244  19.758  0.00  0.00    +0.000 A 
ATOM     15  F   UNL     1      10.784  11.337  20.813  0.00  0.00    +0.000 F 
ATOM     16  C   UNL     1       9.340  10.027  19.486  0.00  0.00    +0.000 A 
ENDBRANCH   7  10
ENDBRANCH   1   4
BRANCH   2  17
ATOM     17  C   UNL     1       4.048   5.741  18.872  0.00  0.00    +0.000 C 
ATOM     18  C   UNL     1       3.079   5.367  19.969  0.00  0.00    +0.000 C 
ATOM     19  C   UNL     1       2.593   6.216  18.820  0.00  0.00    +0.000 C 
BRANCH  19  20
ATOM     20  C   UNL     1       2.129   7.657  19.083  0.00  0.00    +0.000 A 
ATOM     21  C   UNL     1       2.069   8.672  18.106  0.00  0.00    +0.000 A 
ATOM     22  C   UNL     1       1.471   9.920  18.348  0.00  0.00    +0.000 A 
ATOM     23  C   UNL     1       0.933  10.215  19.597  0.00  0.00    +0.000 A 
ATOM     24  C   UNL     1       1.039   9.268  20.612  0.00  0.00    +0.000 A 
ATOM     25  C   UNL     1       1.625   8.019  20.352  0.00  0.00    +0.000 A 
ENDBRANCH  19  20
ENDBRANCH   2  17
BRANCH   1  26
ATOM     26  C   UNL     1       6.568   3.898  16.493  0.00  0.00    +0.000 C 
BRANCH  26  27
ATOM     27  C   UNL     1       6.176   3.986  14.984  0.00  0.00    +0.000 C 
BRANCH  27  28
ATOM     28  N   UNL     1       4.882   4.646  14.749  0.00  0.00    +0.000 NA
ATOM     29  H   UNL     1       4.312   4.614  15.596  0.00  0.00    +0.000 HD
ATOM     30  H   UNL     1       4.340   4.090  14.074  0.00  0.00    +0.000 HD
ENDBRANCH  27  28
BRANCH  27  31
ATOM     31  C   UNL     1       7.248   4.792  14.181  0.00  0.00    +0.000 C 
BRANCH  31  33
ATOM     32  C   UNL     1       6.370   3.421  12.199  0.00  0.00    +0.000 C 
ATOM     33  C   UNL     1       7.451   4.377  12.703  0.00  0.00    +0.000 C 
ATOM     34  C   UNL     1       7.549   5.616  11.805  0.00  0.00    +0.000 C 
ENDBRANCH  31  33
ENDBRANCH  27  31
ENDBRANCH  26  27
ENDBRANCH   1  26
TORSDOF 9
ENDMDL
MODEL 6
REMARK VINA RESULT:      -8.0      1.116      1.582
REMARK  Name = 
REMARK  11 active torsions:
REMARK  status: ('A' for Active; 'I' for Inactive)
REMARK    1  A    between atoms: C_1  and  C_2
REMARK    2  A    between atoms: C_2  and  C_3
REMARK    3  A    between atoms: C_2  and  C_4
REMARK    4  A    between atoms: C_4  and  C_5
REMARK    5  A    between atoms: C_5  and  N_6
REMARK    6  A    between atoms: C_5  and  C_7
REMARK    7  A    between atoms: C_7  and  N_8
REMARK    8  A    between atoms: N_8  and  C_20
REMARK    9  A    between atoms: C_9  and  C_11
REMARK   10  A    between atoms: C_13  and  C_14
REMARK   11  A    between atoms: C_23  and  C_24
REMARK                            x       y       z     vdW  Elec       q    Type
REMARK                         _______ _______ _______ _____ _____    ______ ____
ROOT
ATOM      1  N   UNL     1       5.755   4.786  17.633  0.00  0.00    +0.000 N 
ATOM      2  C   UNL     1       4.389   4.740  18.011  0.00  0.00    +0.000 C 
ATOM      3  O   UNL     1       3.652   3.812  17.716  0.00  0.00    +0.000 OA
ENDROOT
BRANCH   1   4
ATOM      4  C   UNL     1       6.498   6.002  17.717  0.00  0.00    +0.000 A 
ATOM      5  C   UNL     1       7.635   6.039  18.519  0.00  0.00    +0.000 A 
ATOM      6  C   UNL     1       8.329   7.239  18.699  0.00  0.00    +0.000 A 
ATOM      7  C   UNL     1       7.929   8.431  18.064  0.00  0.00    +0.000 A 
ATOM      8  C   UNL     1       6.839   8.340  17.177  0.00  0.00    +0.000 A 
ATOM      9  C   UNL     1       6.125   7.146  17.009  0.00  0.00    +0.000 A 
BRANCH   7  10
ATOM     10  C   UNL     1       8.580   9.728  18.382  0.00  0.00    +0.000 A 
ATOM     11  C   UNL     1       9.424   9.887  19.501  0.00  0.00    +0.000 A 
ATOM     12  C   UNL     1       9.945  11.136  19.862  0.00  0.00    +0.000 A 
ATOM     13  C   UNL     1       9.650  12.259  19.098  0.00  0.00    +0.000 A 
ATOM     14  C   UNL     1       8.849  12.117  17.977  0.00  0.00    +0.000 A 
ATOM     15  F   UNL     1       8.560  13.194  17.232  0.00  0.00    +0.000 F 
ATOM     16  C   UNL     1       8.319  10.880  17.618  0.00  0.00    +0.000 A 
ENDBRANCH   7  10
ENDBRANCH   1   4
BRANCH   2  17
ATOM     17  C   UNL     1       3.870   5.888  18.889  0.00  0.00    +0.000 C 
ATOM     18  C   UNL     1       2.820   5.634  19.945  0.00  0.00    +0.000 C 
ATOM     19  C   UNL     1       2.455   6.453  18.731  0.00  0.00    +0.000 C 
BRANCH  19  20
ATOM     20  C   UNL     1       2.076   7.932  18.898  0.00  0.00    +0.000 A 
ATOM     21  C   UNL     1       2.210   8.914  17.894  0.00  0.00    +0.000 A 
ATOM     22  C   UNL     1       1.685  10.210  18.029  0.00  0.00    +0.000 A 
ATOM     23  C   UNL     1       1.028  10.587  19.196  0.00  0.00    +0.000 A 
ATOM     24  C   UNL     1       0.940   9.673  20.241  0.00  0.00    +0.000 A 
ATOM     25  C   UNL     1       1.455   8.375  20.087  0.00  0.00    +0.000 A 
ENDBRANCH  19  20
ENDBRANCH   2  17
BRANCH   1  26
ATOM     26  C   UNL     1       6.378   3.779  16.728  0.00  0.00    +0.000 C 
BRANCH  26  27
ATOM     27  C   UNL     1       6.103   3.840  15.192  0.00  0.00    +0.000 C 
BRANCH  27  28
ATOM     28  N   UNL     1       4.913   4.628  14.838  0.00  0.00    +0.000 NA
ATOM     29  H   UNL     1       4.293   4.081  14.238  0.00  0.00    +0.000 HD
ATOM     30  H   UNL     1       5.197   5.413  14.237  0.00  0.00    +0.000 HD
ENDBRANCH  27  28
BRANCH  27  31
ATOM     31  C   UNL     1       7.313   4.482  14.439  0.00  0.00    +0.000 C 
BRANCH  31  33
ATOM     32  C   UNL     1       8.134   5.830  12.417  0.00  0.00    +0.000 C 
ATOM     33  C   UNL     1       7.066   4.883  12.964  0.00  0.00    +0.000 C 
ATOM     34  C   UNL     1       6.936   3.634  12.084  0.00  0.00    +0.000 C 
ENDBRANCH  31  33
ENDBRANCH  27  31
ENDBRANCH  26  27
ENDBRANCH   1  26
TORSDOF 9
ENDMDL
MODEL 7
REMARK VINA RESULT:      -7.9      3.460      7.268
REMARK  Name = 
REMARK  11 active torsions:
REMARK  status: ('A' for Active; 'I' for Inactive)
REMARK    1  A    between atoms: C_1  and  C_2
REMARK    2  A    between atoms: C_2  and  C_3
REMARK    3  A    between atoms: C_2  and  C_4
REMARK    4  A    between atoms: C_4  and  C_5
REMARK    5  A    between atoms: C_5  and  N_6
REMARK    6  A    between atoms: C_5  and  C_7
REMARK    7  A    between atoms: C_7  and  N_8
REMARK    8  A    between atoms: N_8  and  C_20
REMARK    9  A    between atoms: C_9  and  C_11
REMARK   10  A    between atoms: C_13  and  C_14
REMARK   11  A    between atoms: C_23  and  C_24
REMARK                            x       y       z     vdW  Elec       q    Type
REMARK                         _______ _______ _______ _____ _____    ______ ____
ROOT
ATOM      1  N   UNL     1       5.158   5.134  18.625  0.00  0.00    +0.000 N 
ATOM      2  C   UNL     1       6.494   5.596  18.520  0.00  0.00    +0.000 C 
ATOM      3  O   UNL     1       7.461   4.866  18.676  0.00  0.00    +0.000 OA
ENDROOT
BRANCH   1   4
ATOM      4  C   UNL     1       4.073   6.052  18.748  0.00  0.00    +0.000 A 
ATOM      5  C   UNL     1       3.816   6.932  17.700  0.00  0.00    +0.000 A 
ATOM      6  C   UNL     1       2.823   7.908  17.828  0.00  0.00    +0.000 A 
ATOM      7  C   UNL     1       2.038   8.019  18.992  0.00  0.00    +0.000 A 
ATOM      8  C   UNL     1       2.247   7.050  19.992  0.00  0.00    +0.000 A 
ATOM      9  C   UNL     1       3.256   6.083  19.880  0.00  0.00    +0.000 A 
BRANCH   7  10
ATOM     10  C   UNL     1       1.093   9.151  19.177  0.00  0.00    +0.000 A 
ATOM     11  C   UNL     1       0.356   9.693  18.105  0.00  0.00    +0.000 A 
ATOM     12  C   UNL     1      -0.446  10.831  18.259  0.00  0.00    +0.000 A 
ATOM     13  C   UNL     1      -0.546  11.447  19.501  0.00  0.00    +0.000 A 
ATOM     14  C   UNL     1       0.146  10.909  20.575  0.00  0.00    +0.000 A 
ATOM     15  F   UNL     1       0.054  11.494  21.778  0.00  0.00    +0.000 F 
ATOM     16  C   UNL     1       0.953   9.784  20.426  0.00  0.00    +0.000 A 
ENDBRANCH   7  10
ENDBRANCH   1   4
BRANCH   2  17
ATOM     17  C   UNL     1       6.694   7.065  18.120  0.00  0.00    +0.000 C 
ATOM     18  C   UNL     1       7.266   7.423  16.767  0.00  0.00    +0.000 C 
ATOM     19  C   UNL     1       8.087   7.693  18.005  0.00  0.00    +0.000 C 
BRANCH  19  20
ATOM     20  C   UNL     1       8.433   9.139  18.388  0.00  0.00    +0.000 A 
ATOM     21  C   UNL     1       9.181   9.513  19.523  0.00  0.00    +0.000 A 
ATOM     22  C   UNL     1       9.626  10.828  19.737  0.00  0.00    +0.000 A 
ATOM     23  C   UNL     1       9.311  11.836  18.830  0.00  0.00    +0.000 A 
ATOM     24  C   UNL     1       8.511  11.525  17.735  0.00  0.00    +0.000 A 
ATOM     25  C   UNL     1       8.085  10.203  17.525  0.00  0.00    +0.000 A 
ENDBRANCH  19  20
ENDBRANCH   2  17
BRANCH   1  26
ATOM     26  C   UNL     1       4.813   3.754  19.071  0.00  0.00    +0.000 C 
BRANCH  26  27
ATOM     27  C   UNL     1       3.770   2.916  18.267  0.00  0.00    +0.000 C 
BRANCH  27  28
ATOM     28  N   UNL     1       4.366   2.108  17.192  0.00  0.00    +0.000 NA
ATOM     29  H   UNL     1       5.077   1.483  17.575  0.00  0.00    +0.000 HD
ATOM     30  H   UNL     1       4.901   2.724  16.566  0.00  0.00    +0.000 HD
ENDBRANCH  27  28
BRANCH  27  31
ATOM     31  C   UNL     1       3.010   1.927  19.209  0.00  0.00    +0.000 C 
BRANCH  31  33
ATOM     32  C   UNL     1       1.713   3.013  21.138  0.00  0.00    +0.000 C 
ATOM     33  C   UNL     1       1.635   2.404  19.737  0.00  0.00    +0.000 C 
ATOM     34  C   UNL     1       0.991   3.383  18.749  0.00  0.00    +0.000 C 
ENDBRANCH  31  33
ENDBRANCH  27  31
ENDBRANCH  26  27
ENDBRANCH   1  26
TORSDOF 9
ENDMDL
MODEL 8
REMARK VINA RESULT:      -7.8      0.970      1.143
REMARK  Name = 
REMARK  11 active torsions:
REMARK  status: ('A' for Active; 'I' for Inactive)
REMARK    1  A    between atoms: C_1  and  C_2
REMARK    2  A    between atoms: C_2  and  C_3
REMARK    3  A    between atoms: C_2  and  C_4
REMARK    4  A    between atoms: C_4  and  C_5
REMARK    5  A    between atoms: C_5  and  N_6
REMARK    6  A    between atoms: C_5  and  C_7
REMARK    7  A    between atoms: C_7  and  N_8
REMARK    8  A    between atoms: N_8  and  C_20
REMARK    9  A    between atoms: C_9  and  C_11
REMARK   10  A    between atoms: C_13  and  C_14
REMARK   11  A    between atoms: C_23  and  C_24
REMARK                            x       y       z     vdW  Elec       q    Type
REMARK                         _______ _______ _______ _____ _____    ______ ____
ROOT
ATOM      1  N   UNL     1       6.202   5.939  16.722  0.00  0.00    +0.000 N 
ATOM      2  C   UNL     1       4.829   5.727  17.003  0.00  0.00    +0.000 C 
ATOM      3  O   UNL     1       4.108   5.038  16.298  0.00  0.00    +0.000 OA
ENDROOT
BRANCH   1   4
ATOM      4  C   UNL     1       6.931   6.981  17.371  0.00  0.00    +0.000 A 
ATOM      5  C   UNL     1       6.698   8.300  16.990  0.00  0.00    +0.000 A 
ATOM      6  C   UNL     1       7.464   9.334  17.536  0.00  0.00    +0.000 A 
ATOM      7  C   UNL     1       8.464   9.089  18.497  0.00  0.00    +0.000 A 
ATOM      8  C   UNL     1       8.604   7.760  18.940  0.00  0.00    +0.000 A 
ATOM      9  C   UNL     1       7.856   6.715  18.381  0.00  0.00    +0.000 A 
BRANCH   7  10
ATOM     10  C   UNL     1       9.371  10.173  18.956  0.00  0.00    +0.000 A 
ATOM     11  C   UNL     1       9.389  10.617  20.294  0.00  0.00    +0.000 A 
ATOM     12  C   UNL     1      10.162  11.714  20.699  0.00  0.00    +0.000 A 
ATOM     13  C   UNL     1      10.956  12.383  19.774  0.00  0.00    +0.000 A 
ATOM     14  C   UNL     1      10.976  11.941  18.461  0.00  0.00    +0.000 A 
ATOM     15  F   UNL     1      11.740  12.578  17.563  0.00  0.00    +0.000 F 
ATOM     16  C   UNL     1      10.202  10.858  18.050  0.00  0.00    +0.000 A 
ENDBRANCH   7  10
ENDBRANCH   1   4
BRANCH   2  17
ATOM     17  C   UNL     1       4.278   6.347  18.296  0.00  0.00    +0.000 C 
ATOM     18  C   UNL     1       3.592   5.485  19.330  0.00  0.00    +0.000 C 
ATOM     19  C   UNL     1       2.775   6.488  18.551  0.00  0.00    +0.000 C 
BRANCH  19  20
ATOM     20  C   UNL     1       2.115   7.664  19.286  0.00  0.00    +0.000 A 
ATOM     21  C   UNL     1       1.737   8.880  18.678  0.00  0.00    +0.000 A 
ATOM     22  C   UNL     1       0.976   9.854  19.346  0.00  0.00    +0.000 A 
ATOM     23  C   UNL     1       0.587   9.662  20.668  0.00  0.00    +0.000 A 
ATOM     24  C   UNL     1       1.003   8.510  21.328  0.00  0.00    +0.000 A 
ATOM     25  C   UNL     1       1.750   7.537  20.645  0.00  0.00    +0.000 A 
ENDBRANCH  19  20
ENDBRANCH   2  17
BRANCH   1  26
ATOM     26  C   UNL     1       6.855   5.457  15.471  0.00  0.00    +0.000 C 
BRANCH  26  27
ATOM     27  C   UNL     1       6.563   4.015  14.948  0.00  0.00    +0.000 C 
BRANCH  27  28
ATOM     28  N   UNL     1       6.065   3.102  15.988  0.00  0.00    +0.000 NA
ATOM     29  H   UNL     1       5.542   2.335  15.563  0.00  0.00    +0.000 HD
ATOM     30  H   UNL     1       5.358   3.590  16.553  0.00  0.00    +0.000 HD
ENDBRANCH  27  28
BRANCH  27  31
ATOM     31  C   UNL     1       5.483   4.046  13.818  0.00  0.00    +0.000 C 
BRANCH  31  33
ATOM     32  C   UNL     1       4.662   3.199  11.541  0.00  0.00    +0.000 C 
ATOM     33  C   UNL     1       5.839   3.296  12.511  0.00  0.00    +0.000 C 
ATOM     34  C   UNL     1       7.055   3.940  11.837  0.00  0.00    +0.000 C 
ENDBRANCH  31  33
ENDBRANCH  27  31
ENDBRANCH  26  27
ENDBRANCH   1  26
TORSDOF 9
ENDMDL
MODEL 9
REMARK VINA RESULT:      -7.8      0.986      1.291
REMARK  Name = 
REMARK  11 active torsions:
REMARK  status: ('A' for Active; 'I' for Inactive)
REMARK    1  A    between atoms: C_1  and  C_2
REMARK    2  A    between atoms: C_2  and  C_3
REMARK    3  A    between atoms: C_2  and  C_4
REMARK    4  A    between atoms: C_4  and  C_5
REMARK    5  A    between atoms: C_5  and  N_6
REMARK    6  A    between atoms: C_5  and  C_7
REMARK    7  A    between atoms: C_7  and  N_8
REMARK    8  A    between atoms: N_8  and  C_20
REMARK    9  A    between atoms: C_9  and  C_11
REMARK   10  A    between atoms: C_13  and  C_14
REMARK   11  A    between atoms: C_23  and  C_24
REMARK                            x       y       z     vdW  Elec       q    Type
REMARK                         _______ _______ _______ _____ _____    ______ ____
ROOT
ATOM      1  N   UNL     1       6.117   5.170  17.246  0.00  0.00    +0.000 N 
ATOM      2  C   UNL     1       4.761   4.941  17.587  0.00  0.00    +0.000 C 
ATOM      3  O   UNL     1       4.072   4.100  17.031  0.00  0.00    +0.000 OA
ENDROOT
BRANCH   1   4
ATOM      4  C   UNL     1       6.795   6.348  17.683  0.00  0.00    +0.000 A 
ATOM      5  C   UNL     1       6.440   7.573  17.125  0.00  0.00    +0.000 A 
ATOM      6  C   UNL     1       7.149   8.730  17.459  0.00  0.00    +0.000 A 
ATOM      7  C   UNL     1       8.214   8.707  18.381  0.00  0.00    +0.000 A 
ATOM      8  C   UNL     1       8.482   7.476  19.008  0.00  0.00    +0.000 A 
ATOM      9  C   UNL     1       7.790   6.307  18.661  0.00  0.00    +0.000 A 
BRANCH   7  10
ATOM     10  C   UNL     1       9.056   9.910  18.613  0.00  0.00    +0.000 A 
ATOM     11  C   UNL     1       9.684  10.598  17.555  0.00  0.00    +0.000 A 
ATOM     12  C   UNL     1      10.568  11.661  17.785  0.00  0.00    +0.000 A 
ATOM     13  C   UNL     1      10.829  12.076  19.086  0.00  0.00    +0.000 A 
ATOM     14  C   UNL     1      10.195  11.434  20.137  0.00  0.00    +0.000 A 
ATOM     15  F   UNL     1      10.439  11.829  21.394  0.00  0.00    +0.000 F 
ATOM     16  C   UNL     1       9.324  10.369  19.915  0.00  0.00    +0.000 A 
ENDBRANCH   7  10
ENDBRANCH   1   4
BRANCH   2  17
ATOM     17  C   UNL     1       4.190   5.754  18.758  0.00  0.00    +0.000 C 
ATOM     18  C   UNL     1       3.341   5.087  19.816  0.00  0.00    +0.000 C 
ATOM     19  C   UNL     1       2.697   6.074  18.872  0.00  0.00    +0.000 C 
BRANCH  19  20
ATOM     20  C   UNL     1       2.118   7.386  19.423  0.00  0.00    +0.000 A 
ATOM     21  C   UNL     1       1.911   8.554  18.661  0.00  0.00    +0.000 A 
ATOM     22  C   UNL     1       1.216   9.668  19.160  0.00  0.00    +0.000 A 
ATOM     23  C   UNL     1       0.723   9.669  20.461  0.00  0.00    +0.000 A 
ATOM     24  C   UNL     1       0.971   8.565  21.272  0.00  0.00    +0.000 A 
ATOM     25  C   UNL     1       1.655   7.452  20.756  0.00  0.00    +0.000 A 
ENDBRANCH  19  20
ENDBRANCH   2  17
BRANCH   1  26
ATOM     26  C   UNL     1       6.784   4.506  16.089  0.00  0.00    +0.000 C 
BRANCH  26  27
ATOM     27  C   UNL     1       6.111   4.541  14.680  0.00  0.00    +0.000 C 
BRANCH  27  28
ATOM     28  N   UNL     1       5.761   5.897  14.229  0.00  0.00    +0.000 NA
ATOM     29  H   UNL     1       5.814   5.954  13.211  0.00  0.00    +0.000 HD
ATOM     30  H   UNL     1       6.487   6.553  14.544  0.00  0.00    +0.000 HD
ENDBRANCH  27  28
BRANCH  27  31
ATOM     31  C   UNL     1       7.064   3.936  13.598  0.00  0.00    +0.000 C 
BRANCH  31  33
ATOM     32  C   UNL     1       7.167   2.572  11.429  0.00  0.00    +0.000 C 
ATOM     33  C   UNL     1       6.436   3.664  12.209  0.00  0.00    +0.000 C 
ATOM     34  C   UNL     1       4.945   3.335  12.349  0.00  0.00    +0.000 C 
ENDBRANCH  31  33
ENDBRANCH  27  31
ENDBRANCH  26  27
ENDBRANCH   1  26
TORSDOF 9
ENDMDL
