MODEL 1
REMARK VINA RESULT:      -7.1      0.000      0.000
REMARK  Name = 
REMARK  6 active torsions:
REMARK  status: ('A' for Active; 'I' for Inactive)
REMARK    1  A    between atoms: N_1  and  CA_2
REMARK    2  A    between atoms: CA_2  and  CB_3
REMARK    3  A    between atoms: CA_2  and  C_10
REMARK    4  A    between atoms: CB_3  and  CG_4
REMARK    5  A    between atoms: CA_16  and  C_17
REMARK    6  A    between atoms: C_17  and  OXT_19
REMARK                            x       y       z     vdW  Elec       q    Type
REMARK                         _______ _______ _______ _____ _____    ______ ____
ROOT
ATOM      1  CA  PHE A   1       3.393   6.193  18.137  0.00  0.00    +0.000 C 
ENDROOT
BRANCH   1   2
ATOM      2  C   PHE A   1       4.369   5.323  17.303  0.00  0.00    +0.000 C 
ATOM      3  O   PHE A   1       3.977   4.631  16.369  0.00  0.00    +0.000 OA
ATOM      4  N   PRO A   2       5.717   5.348  17.637  0.00  0.00    +0.000 N 
ATOM      5  CD  PRO A   2       6.280   5.903  18.862  0.00  0.00    +0.000 C 
ATOM      6  CG  PRO A   2       7.769   5.857  18.596  0.00  0.00    +0.000 C 
ATOM      7  CB  PRO A   2       7.942   4.521  17.877  0.00  0.00    +0.000 C 
ATOM      8  CA  PRO A   2       6.640   4.342  17.074  0.00  0.00    +0.000 C 
BRANCH   8   9
ATOM      9  C   PRO A   2       6.952   4.512  15.581  0.00  0.00    +0.000 C 
ATOM     10  O   PRO A   2       7.562   5.471  15.123  0.00  0.00    +0.000 OA
BRANCH   9  11
ATOM     11  OXT PRO A   2       6.365   3.577  14.798  0.00  0.00    +0.000 OA
ATOM     12  HXT PRO A   2       6.916   3.439  14.001  0.00  0.00    +0.000 HD
ENDBRANCH   9  11
ENDBRANCH   8   9
ENDBRANCH   1   2
BRANCH   1  13
ATOM     13  N   PHE A   1       3.355   7.581  17.609  0.00  0.00    +0.000 NA
ATOM     14  H1  PHE A   1       3.981   7.621  16.801  0.00  0.00    +0.000 HD
ATOM     15  H2  PHE A   1       3.778   8.208  18.296  0.00  0.00    +0.000 HD
ENDBRANCH   1  13
BRANCH   1  16
ATOM     16  CB  PHE A   1       1.970   5.584  18.153  0.00  0.00    +0.000 C 
BRANCH  16  17
ATOM     17  CG  PHE A   1       1.804   4.540  19.241  0.00  0.00    +0.000 A 
ATOM     18  CD1 PHE A   1       2.178   4.814  20.563  0.00  0.00    +0.000 A 
ATOM     19  CE1 PHE A   1       2.091   3.819  21.540  0.00  0.00    +0.000 A 
ATOM     20  CZ  PHE A   1       1.639   2.544  21.204  0.00  0.00    +0.000 A 
ATOM     21  CE2 PHE A   1       1.245   2.268  19.897  0.00  0.00    +0.000 A 
ATOM     22  CD2 PHE A   1       1.317   3.264  18.922  0.00  0.00    +0.000 A 
ENDBRANCH  16  17
ENDBRANCH   1  16
TORSDOF 6
ENDMDL
MODEL 2
REMARK VINA RESULT:      -7.1      0.096      1.108
REMARK  Name = 
REMARK  6 active torsions:
REMARK  status: ('A' for Active; 'I' for Inactive)
REMARK    1  A    between atoms: N_1  and  CA_2
REMARK    2  A    between atoms: CA_2  and  CB_3
REMARK    3  A    between atoms: CA_2  and  C_10
REMARK    4  A    between atoms: CB_3  and  CG_4
REMARK    5  A    between atoms: CA_16  and  C_17
REMARK    6  A    between atoms: C_17  and  OXT_19
REMARK                            x       y       z     vdW  Elec       q    Type
REMARK                         _______ _______ _______ _____ _____    ______ ____
ROOT
ATOM      1  CA  PHE A   1       3.425   6.203  18.163  0.00  0.00    +0.000 C 
ENDROOT
BRANCH   1   2
ATOM      2  C   PHE A   1       4.395   5.334  17.319  0.00  0.00    +0.000 C 
ATOM      3  O   PHE A   1       3.997   4.652  16.381  0.00  0.00    +0.000 OA
ATOM      4  N   PRO A   2       5.744   5.349  17.651  0.00  0.00    +0.000 N 
ATOM      5  CD  PRO A   2       6.312   5.892  18.878  0.00  0.00    +0.000 C 
ATOM      6  CG  PRO A   2       7.801   5.839  18.609  0.00  0.00    +0.000 C 
ATOM      7  CB  PRO A   2       7.964   4.508  17.880  0.00  0.00    +0.000 C 
ATOM      8  CA  PRO A   2       6.660   4.343  17.078  0.00  0.00    +0.000 C 
BRANCH   8   9
ATOM      9  C   PRO A   2       6.969   4.522  15.585  0.00  0.00    +0.000 C 
ATOM     10  O   PRO A   2       7.574   5.486  15.132  0.00  0.00    +0.000 OA
BRANCH   9  11
ATOM     11  OXT PRO A   2       6.387   3.589  14.798  0.00  0.00    +0.000 OA
ATOM     12  HXT PRO A   2       6.354   2.739  15.283  0.00  0.00    +0.000 HD
ENDBRANCH   9  11
ENDBRANCH   8   9
ENDBRANCH   1   2
BRANCH   1  13
ATOM     13  N   PHE A   1       3.369   7.587  17.626  0.00  0.00    +0.000 NA
ATOM     14  H1  PHE A   1       4.320   7.850  17.351  0.00  0.00    +0.000 HD
ATOM     15  H2  PHE A   1       3.134   8.228  18.387  0.00  0.00    +0.000 HD
ENDBRANCH   1  13
BRANCH   1  16
ATOM     16  CB  PHE A   1       2.007   5.584  18.204  0.00  0.00    +0.000 C 
BRANCH  16  17
ATOM     17  CG  PHE A   1       1.876   4.519  19.276  0.00  0.00    +0.000 A 
ATOM     18  CD1 PHE A   1       1.236   3.303  19.004  0.00  0.00    +0.000 A 
ATOM     19  CE1 PHE A   1       1.054   2.360  20.020  0.00  0.00    +0.000 A 
ATOM     20  CZ  PHE A   1       1.500   2.629  21.313  0.00  0.00    +0.000 A 
ATOM     21  CE2 PHE A   1       2.155   3.827  21.588  0.00  0.00    +0.000 A 
ATOM     22  CD2 PHE A   1       2.351   4.763  20.571  0.00  0.00    +0.000 A 
ENDBRANCH  16  17
ENDBRANCH   1  16
TORSDOF 6
ENDMDL
MODEL 3
REMARK VINA RESULT:      -6.9      2.240      3.242
REMARK  Name = 
REMARK  6 active torsions:
REMARK  status: ('A' for Active; 'I' for Inactive)
REMARK    1  A    between atoms: N_1  and  CA_2
REMARK    2  A    between atoms: CA_2  and  CB_3
REMARK    3  A    between atoms: CA_2  and  C_10
REMARK    4  A    between atoms: CB_3  and  CG_4
REMARK    5  A    between atoms: CA_16  and  C_17
REMARK    6  A    between atoms: C_17  and  OXT_19
REMARK                            x       y       z     vdW  Elec       q    Type
REMARK                         _______ _______ _______ _____ _____    ______ ____
ROOT
ATOM      1  CA  PHE A   1       3.585   2.537  17.598  0.00  0.00    +0.000 C 
ENDROOT
BRANCH   1   2
ATOM      2  C   PHE A   1       4.729   3.453  18.110  0.00  0.00    +0.000 C 
ATOM      3  O   PHE A   1       5.021   3.514  19.299  0.00  0.00    +0.000 OA
ATOM      4  N   PRO A   2       5.429   4.208  17.177  0.00  0.00    +0.000 N 
ATOM      5  CD  PRO A   2       5.031   4.434  15.794  0.00  0.00    +0.000 C 
ATOM      6  CG  PRO A   2       6.244   5.123  15.206  0.00  0.00    +0.000 C 
ATOM      7  CB  PRO A   2       6.683   6.053  16.334  0.00  0.00    +0.000 C 
ATOM      8  CA  PRO A   2       6.324   5.294  17.624  0.00  0.00    +0.000 C 
BRANCH   8   9
ATOM      9  C   PRO A   2       7.621   4.828  18.302  0.00  0.00    +0.000 C 
ATOM     10  O   PRO A   2       8.436   4.088  17.764  0.00  0.00    +0.000 OA
BRANCH   9  11
ATOM     11  OXT PRO A   2       7.711   5.193  19.601  0.00  0.00    +0.000 OA
ATOM     12  HXT PRO A   2       6.939   4.838  20.086  0.00  0.00    +0.000 HD
ENDBRANCH   9  11
ENDBRANCH   8   9
ENDBRANCH   1   2
BRANCH   1  13
ATOM     13  N   PHE A   1       3.362   1.411  18.540  0.00  0.00    +0.000 NA
ATOM     14  H1  PHE A   1       3.931   0.624  18.221  0.00  0.00    +0.000 HD
ATOM     15  H2  PHE A   1       2.397   1.087  18.446  0.00  0.00    +0.000 HD
ENDBRANCH   1  13
BRANCH   1  16
ATOM     16  CB  PHE A   1       2.275   3.336  17.393  0.00  0.00    +0.000 C 
BRANCH  16  17
ATOM     17  CG  PHE A   1       2.073   4.393  18.462  0.00  0.00    +0.000 A 
ATOM     18  CD1 PHE A   1       2.454   5.722  18.239  0.00  0.00    +0.000 A 
ATOM     19  CE1 PHE A   1       2.333   6.671  19.258  0.00  0.00    +0.000 A 
ATOM     20  CZ  PHE A   1       1.840   6.297  20.508  0.00  0.00    +0.000 A 
ATOM     21  CE2 PHE A   1       1.440   4.982  20.733  0.00  0.00    +0.000 A 
ATOM     22  CD2 PHE A   1       1.546   4.037  19.711  0.00  0.00    +0.000 A 
ENDBRANCH  16  17
ENDBRANCH   1  16
TORSDOF 6
ENDMDL
MODEL 4
REMARK VINA RESULT:      -6.8      2.234      3.239
REMARK  Name = 
REMARK  6 active torsions:
REMARK  status: ('A' for Active; 'I' for Inactive)
REMARK    1  A    between atoms: N_1  and  CA_2
REMARK    2  A    between atoms: CA_2  and  CB_3
REMARK    3  A    between atoms: CA_2  and  C_10
REMARK    4  A    between atoms: CB_3  and  CG_4
REMARK    5  A    between atoms: CA_16  and  C_17
REMARK    6  A    between atoms: C_17  and  OXT_19
REMARK                            x       y       z     vdW  Elec       q    Type
REMARK                         _______ _______ _______ _____ _____    ______ ____
ROOT
ATOM      1  CA  PHE A   1       3.592   2.592  17.634  0.00  0.00    +0.000 C 
ENDROOT
BRANCH   1   2
ATOM      2  C   PHE A   1       4.740   3.484  18.176  0.00  0.00    +0.000 C 
ATOM      3  O   PHE A   1       5.029   3.508  19.367  0.00  0.00    +0.000 OA
ATOM      4  N   PRO A   2       5.448   4.262  17.268  0.00  0.00    +0.000 N 
ATOM      5  CD  PRO A   2       5.055   4.532  15.891  0.00  0.00    +0.000 C 
ATOM      6  CG  PRO A   2       6.274   5.230  15.326  0.00  0.00    +0.000 C 
ATOM      7  CB  PRO A   2       6.716   6.123  16.483  0.00  0.00    +0.000 C 
ATOM      8  CA  PRO A   2       6.349   5.328  17.749  0.00  0.00    +0.000 C 
BRANCH   8   9
ATOM      9  C   PRO A   2       7.641   4.833  18.415  0.00  0.00    +0.000 C 
ATOM     10  O   PRO A   2       8.064   5.271  19.478  0.00  0.00    +0.000 OA
BRANCH   9  11
ATOM     11  OXT PRO A   2       8.346   3.970  17.648  0.00  0.00    +0.000 OA
ATOM     12  HXT PRO A   2       8.241   3.066  18.007  0.00  0.00    +0.000 HD
ENDBRANCH   9  11
ENDBRANCH   8   9
ENDBRANCH   1   2
BRANCH   1  13
ATOM     13  N   PHE A   1       3.400   1.407  18.508  0.00  0.00    +0.000 NA
ATOM     14  H1  PHE A   1       4.315   1.153  18.888  0.00  0.00    +0.000 HD
ATOM     15  H2  PHE A   1       3.131   0.609  17.929  0.00  0.00    +0.000 HD
ENDBRANCH   1  13
BRANCH   1  16
ATOM     16  CB  PHE A   1       2.271   3.390  17.512  0.00  0.00    +0.000 C 
BRANCH  16  17
ATOM     17  CG  PHE A   1       2.155   4.475  18.565  0.00  0.00    +0.000 A 
ATOM     18  CD1 PHE A   1       1.665   4.184  19.845  0.00  0.00    +0.000 A 
ATOM     19  CE1 PHE A   1       1.491   5.207  20.782  0.00  0.00    +0.000 A 
ATOM     20  CZ  PHE A   1       1.796   6.525  20.445  0.00  0.00    +0.000 A 
ATOM     21  CE2 PHE A   1       2.302   6.821  19.182  0.00  0.00    +0.000 A 
ATOM     22  CD2 PHE A   1       2.491   5.799  18.250  0.00  0.00    +0.000 A 
ENDBRANCH  16  17
ENDBRANCH   1  16
TORSDOF 6
ENDMDL
MODEL 5
REMARK VINA RESULT:      -6.7      2.786      5.707
REMARK  Name = 
REMARK  6 active torsions:
REMARK  status: ('A' for Active; 'I' for Inactive)
REMARK    1  A    between atoms: N_1  and  CA_2
REMARK    2  A    between atoms: CA_2  and  CB_3
REMARK    3  A    between atoms: CA_2  and  C_10
REMARK    4  A    between atoms: CB_3  and  CG_4
REMARK    5  A    between atoms: CA_16  and  C_17
REMARK    6  A    between atoms: C_17  and  OXT_19
REMARK                            x       y       z     vdW  Elec       q    Type
REMARK                         _______ _______ _______ _____ _____    ______ ____
ROOT
ATOM      1  CA  PHE A   1       3.002   6.627  17.842  0.00  0.00    +0.000 C 
ENDROOT
BRANCH   1   2
ATOM      2  C   PHE A   1       2.902   5.647  19.041  0.00  0.00    +0.000 C 
ATOM      3  O   PHE A   1       2.977   6.039  20.201  0.00  0.00    +0.000 OA
ATOM      4  N   PRO A   2       2.718   4.297  18.769  0.00  0.00    +0.000 N 
ATOM      5  CD  PRO A   2       2.873   3.664  17.466  0.00  0.00    +0.000 C 
ATOM      6  CG  PRO A   2       2.349   2.265  17.710  0.00  0.00    +0.000 C 
ATOM      7  CB  PRO A   2       2.887   1.942  19.102  0.00  0.00    +0.000 C 
ATOM      8  CA  PRO A   2       2.897   3.294  19.837  0.00  0.00    +0.000 C 
BRANCH   8   9
ATOM      9  C   PRO A   2       1.797   3.284  20.908  0.00  0.00    +0.000 C 
ATOM     10  O   PRO A   2       2.012   3.081  22.096  0.00  0.00    +0.000 OA
BRANCH   9  11
ATOM     11  OXT PRO A   2       0.547   3.376  20.397  0.00  0.00    +0.000 OA
ATOM     12  HXT PRO A   2       0.063   2.547  20.588  0.00  0.00    +0.000 HD
ENDBRANCH   9  11
ENDBRANCH   8   9
ENDBRANCH   1   2
BRANCH   1  13
ATOM     13  N   PHE A   1       2.062   7.763  18.022  0.00  0.00    +0.000 NA
ATOM     14  H1  PHE A   1       2.334   8.257  18.876  0.00  0.00    +0.000 HD
ATOM     15  H2  PHE A   1       1.130   7.393  18.223  0.00  0.00    +0.000 HD
ENDBRANCH   1  13
BRANCH   1  16
ATOM     16  CB  PHE A   1       4.448   7.149  17.662  0.00  0.00    +0.000 C 
BRANCH  16  17
ATOM     17  CG  PHE A   1       5.337   6.146  16.952  0.00  0.00    +0.000 A 
ATOM     18  CD1 PHE A   1       6.329   5.445  17.650  0.00  0.00    +0.000 A 
ATOM     19  CE1 PHE A   1       7.191   4.580  16.970  0.00  0.00    +0.000 A 
ATOM     20  CZ  PHE A   1       7.076   4.417  15.590  0.00  0.00    +0.000 A 
ATOM     21  CE2 PHE A   1       6.079   5.095  14.891  0.00  0.00    +0.000 A 
ATOM     22  CD2 PHE A   1       5.208   5.947  15.571  0.00  0.00    +0.000 A 
ENDBRANCH  16  17
ENDBRANCH   1  16
TORSDOF 6
ENDMDL
MODEL 6
REMARK VINA RESULT:      -6.7      2.806      5.791
REMARK  Name = 
REMARK  6 active torsions:
REMARK  status: ('A' for Active; 'I' for Inactive)
REMARK    1  A    between atoms: N_1  and  CA_2
REMARK    2  A    between atoms: CA_2  and  CB_3
REMARK    3  A    between atoms: CA_2  and  C_10
REMARK    4  A    between atoms: CB_3  and  CG_4
REMARK    5  A    between atoms: CA_16  and  C_17
REMARK    6  A    between atoms: C_17  and  OXT_19
REMARK                            x       y       z     vdW  Elec       q    Type
REMARK                         _______ _______ _______ _____ _____    ______ ____
ROOT
ATOM      1  CA  PHE A   1       3.035   6.601  17.879  0.00  0.00    +0.000 C 
ENDROOT
BRANCH   1   2
ATOM      2  C   PHE A   1       2.874   5.622  19.072  0.00  0.00    +0.000 C 
ATOM      3  O   PHE A   1       2.883   6.016  20.233  0.00  0.00    +0.000 OA
ATOM      4  N   PRO A   2       2.712   4.271  18.793  0.00  0.00    +0.000 N 
ATOM      5  CD  PRO A   2       2.941   3.636  17.501  0.00  0.00    +0.000 C 
ATOM      6  CG  PRO A   2       2.411   2.235  17.719  0.00  0.00    +0.000 C 
ATOM      7  CB  PRO A   2       2.873   1.917  19.139  0.00  0.00    +0.000 C 
ATOM      8  CA  PRO A   2       2.837   3.270  19.871  0.00  0.00    +0.000 C 
BRANCH   8   9
ATOM      9  C   PRO A   2       1.679   3.257  20.880  0.00  0.00    +0.000 C 
ATOM     10  O   PRO A   2       1.756   2.745  21.990  0.00  0.00    +0.000 OA
BRANCH   9  11
ATOM     11  OXT PRO A   2       0.519   3.734  20.375  0.00  0.00    +0.000 OA
ATOM     12  HXT PRO A   2       0.617   4.693  20.204  0.00  0.00    +0.000 HD
ENDBRANCH   9  11
ENDBRANCH   8   9
ENDBRANCH   1   2
BRANCH   1  13
ATOM     13  N   PHE A   1       2.072   7.725  17.997  0.00  0.00    +0.000 NA
ATOM     14  H1  PHE A   1       1.212   7.446  17.518  0.00  0.00    +0.000 HD
ATOM     15  H2  PHE A   1       2.422   8.519  17.457  0.00  0.00    +0.000 HD
ENDBRANCH   1  13
BRANCH   1  16
ATOM     16  CB  PHE A   1       4.483   7.140  17.786  0.00  0.00    +0.000 C 
BRANCH  16  17
ATOM     17  CG  PHE A   1       5.391   6.216  16.996  0.00  0.00    +0.000 A 
ATOM     18  CD1 PHE A   1       5.198   6.021  15.622  0.00  0.00    +0.000 A 
ATOM     19  CE1 PHE A   1       5.993   5.110  14.922  0.00  0.00    +0.000 A 
ATOM     20  CZ  PHE A   1       6.977   4.381  15.588  0.00  0.00    +0.000 A 
ATOM     21  CE2 PHE A   1       7.190   4.584  16.950  0.00  0.00    +0.000 A 
ATOM     22  CD2 PHE A   1       6.408   5.505  17.648  0.00  0.00    +0.000 A 
ENDBRANCH  16  17
ENDBRANCH   1  16
TORSDOF 6
ENDMDL
MODEL 7
REMARK VINA RESULT:      -6.6      2.232      3.455
REMARK  Name = 
REMARK  6 active torsions:
REMARK  status: ('A' for Active; 'I' for Inactive)
REMARK    1  A    between atoms: N_1  and  CA_2
REMARK    2  A    between atoms: CA_2  and  CB_3
REMARK    3  A    between atoms: CA_2  and  C_10
REMARK    4  A    between atoms: CB_3  and  CG_4
REMARK    5  A    between atoms: CA_16  and  C_17
REMARK    6  A    between atoms: C_17  and  OXT_19
REMARK                            x       y       z     vdW  Elec       q    Type
REMARK                         _______ _______ _______ _____ _____    ______ ____
ROOT
ATOM      1  CA  PHE A   1       3.529   2.793  18.112  0.00  0.00    +0.000 C 
ENDROOT
BRANCH   1   2
ATOM      2  C   PHE A   1       4.769   3.658  18.459  0.00  0.00    +0.000 C 
ATOM      3  O   PHE A   1       5.167   3.778  19.613  0.00  0.00    +0.000 OA
ATOM      4  N   PRO A   2       5.433   4.298  17.420  0.00  0.00    +0.000 N 
ATOM      5  CD  PRO A   2       4.930   4.459  16.061  0.00  0.00    +0.000 C 
ATOM      6  CG  PRO A   2       6.129   5.020  15.326  0.00  0.00    +0.000 C 
ATOM      7  CB  PRO A   2       6.724   5.990  16.344  0.00  0.00    +0.000 C 
ATOM      8  CA  PRO A   2       6.431   5.346  17.711  0.00  0.00    +0.000 C 
BRANCH   8   9
ATOM      9  C   PRO A   2       7.749   4.836  18.311  0.00  0.00    +0.000 C 
ATOM     10  O   PRO A   2       8.484   4.035  17.746  0.00  0.00    +0.000 OA
BRANCH   9  11
ATOM     11  OXT PRO A   2       7.955   5.243  19.585  0.00  0.00    +0.000 OA
ATOM     12  HXT PRO A   2       7.990   6.221  19.605  0.00  0.00    +0.000 HD
ENDBRANCH   9  11
ENDBRANCH   8   9
ENDBRANCH   1   2
BRANCH   1  13
ATOM     13  N   PHE A   1       3.805   1.359  18.382  0.00  0.00    +0.000 NA
ATOM     14  H1  PHE A   1       4.429   1.312  19.192  0.00  0.00    +0.000 HD
ATOM     15  H2  PHE A   1       4.354   0.976  17.610  0.00  0.00    +0.000 HD
ENDBRANCH   1  13
BRANCH   1  16
ATOM     16  CB  PHE A   1       2.281   3.259  18.900  0.00  0.00    +0.000 C 
BRANCH  16  17
ATOM     17  CG  PHE A   1       2.260   4.761  19.108  0.00  0.00    +0.000 A 
ATOM     18  CD1 PHE A   1       2.074   5.306  20.386  0.00  0.00    +0.000 A 
ATOM     19  CE1 PHE A   1       1.981   6.690  20.554  0.00  0.00    +0.000 A 
ATOM     20  CZ  PHE A   1       2.062   7.538  19.449  0.00  0.00    +0.000 A 
ATOM     21  CE2 PHE A   1       2.267   7.006  18.179  0.00  0.00    +0.000 A 
ATOM     22  CD2 PHE A   1       2.376   5.625  18.010  0.00  0.00    +0.000 A 
ENDBRANCH  16  17
ENDBRANCH   1  16
TORSDOF 6
ENDMDL
MODEL 8
REMARK VINA RESULT:      -6.5      0.790      1.119
REMARK  Name = 
REMARK  6 active torsions:
REMARK  status: ('A' for Active; 'I' for Inactive)
REMARK    1  A    between atoms: N_1  and  CA_2
REMARK    2  A    between atoms: CA_2  and  CB_3
REMARK    3  A    between atoms: CA_2  and  C_10
REMARK    4  A    between atoms: CB_3  and  CG_4
REMARK    5  A    between atoms: CA_16  and  C_17
REMARK    6  A    between atoms: C_17  and  OXT_19
REMARK                            x       y       z     vdW  Elec       q    Type
REMARK                         _______ _______ _______ _____ _____    ______ ____
ROOT
ATOM      1  CA  PHE A   1       3.242   6.248  18.186  0.00  0.00    +0.000 C 
ENDROOT
BRANCH   1   2
ATOM      2  C   PHE A   1       4.445   5.829  17.302  0.00  0.00    +0.000 C 
ATOM      3  O   PHE A   1       4.334   5.688  16.089  0.00  0.00    +0.000 OA
ATOM      4  N   PRO A   2       5.671   5.619  17.921  0.00  0.00    +0.000 N 
ATOM      5  CD  PRO A   2       5.888   5.495  19.357  0.00  0.00    +0.000 C 
ATOM      6  CG  PRO A   2       7.398   5.500  19.468  0.00  0.00    +0.000 C 
ATOM      7  CB  PRO A   2       7.827   4.661  18.267  0.00  0.00    +0.000 C 
ATOM      8  CA  PRO A   2       6.768   4.956  17.190  0.00  0.00    +0.000 C 
BRANCH   8   9
ATOM      9  C   PRO A   2       7.412   5.799  16.080  0.00  0.00    +0.000 C 
ATOM     10  O   PRO A   2       7.664   5.366  14.962  0.00  0.00    +0.000 OA
BRANCH   9  11
ATOM     11  OXT PRO A   2       7.807   7.024  16.496  0.00  0.00    +0.000 OA
ATOM     12  HXT PRO A   2       8.467   6.920  17.211  0.00  0.00    +0.000 HD
ENDBRANCH   9  11
ENDBRANCH   8   9
ENDBRANCH   1   2
BRANCH   1  13
ATOM     13  N   PHE A   1       2.833   7.642  17.879  0.00  0.00    +0.000 NA
ATOM     14  H1  PHE A   1       2.044   7.874  18.489  0.00  0.00    +0.000 HD
ATOM     15  H2  PHE A   1       2.445   7.673  16.934  0.00  0.00    +0.000 HD
ENDBRANCH   1  13
BRANCH   1  16
ATOM     16  CB  PHE A   1       2.046   5.283  18.001  0.00  0.00    +0.000 C 
BRANCH  16  17
ATOM     17  CG  PHE A   1       1.824   4.402  19.216  0.00  0.00    +0.000 A 
ATOM     18  CD1 PHE A   1       2.337   4.764  20.468  0.00  0.00    +0.000 A 
ATOM     19  CE1 PHE A   1       2.192   3.907  21.563  0.00  0.00    +0.000 A 
ATOM     20  CZ  PHE A   1       1.543   2.682  21.413  0.00  0.00    +0.000 A 
ATOM     21  CE2 PHE A   1       1.012   2.323  20.176  0.00  0.00    +0.000 A 
ATOM     22  CD2 PHE A   1       1.143   3.184  19.085  0.00  0.00    +0.000 A 
ENDBRANCH  16  17
ENDBRANCH   1  16
TORSDOF 6
ENDMDL
MODEL 9
REMARK VINA RESULT:      -6.5      2.667      6.456
REMARK  Name = 
REMARK  6 active torsions:
REMARK  status: ('A' for Active; 'I' for Inactive)
REMARK    1  A    between atoms: N_1  and  CA_2
REMARK    2  A    between atoms: CA_2  and  CB_3
REMARK    3  A    between atoms: CA_2  and  C_10
REMARK    4  A    between atoms: CB_3  and  CG_4
REMARK    5  A    between atoms: CA_16  and  C_17
REMARK    6  A    between atoms: C_17  and  OXT_19
REMARK                            x       y       z     vdW  Elec       q    Type
REMARK                         _______ _______ _______ _____ _____    ______ ____
ROOT
ATOM      1  CA  PHE A   1       5.283   5.179  16.916  0.00  0.00    +0.000 C 
ENDROOT
BRANCH   1   2
ATOM      2  C   PHE A   1       5.053   4.093  18.000  0.00  0.00    +0.000 C 
ATOM      3  O   PHE A   1       5.969   3.683  18.704  0.00  0.00    +0.000 OA
ATOM      4  N   PRO A   2       3.767   3.593  18.162  0.00  0.00    +0.000 N 
ATOM      5  CD  PRO A   2       2.656   3.789  17.241  0.00  0.00    +0.000 C 
ATOM      6  CG  PRO A   2       1.480   3.225  18.011  0.00  0.00    +0.000 C 
ATOM      7  CB  PRO A   2       2.078   1.992  18.683  0.00  0.00    +0.000 C 
ATOM      8  CA  PRO A   2       3.541   2.376  18.967  0.00  0.00    +0.000 C 
BRANCH   8   9
ATOM      9  C   PRO A   2       3.720   2.558  20.481  0.00  0.00    +0.000 C 
ATOM     10  O   PRO A   2       2.947   3.202  21.181  0.00  0.00    +0.000 OA
BRANCH   9  11
ATOM     11  OXT PRO A   2       4.888   2.062  20.949  0.00  0.00    +0.000 OA
ATOM     12  HXT PRO A   2       4.742   1.695  21.845  0.00  0.00    +0.000 HD
ENDBRANCH   9  11
ENDBRANCH   8   9
ENDBRANCH   1   2
BRANCH   1  13
ATOM     13  N   PHE A   1       5.038   6.532  17.477  0.00  0.00    +0.000 NA
ATOM     14  H1  PHE A   1       4.436   7.035  16.819  0.00  0.00    +0.000 HD
ATOM     15  H2  PHE A   1       5.916   7.055  17.475  0.00  0.00    +0.000 HD
ENDBRANCH   1  13
BRANCH   1  16
ATOM     16  CB  PHE A   1       6.712   5.091  16.327  0.00  0.00    +0.000 C 
BRANCH  16  17
ATOM     17  CG  PHE A   1       6.704   4.775  14.843  0.00  0.00    +0.000 A 
ATOM     18  CD1 PHE A   1       5.797   3.850  14.311  0.00  0.00    +0.000 A 
ATOM     19  CE1 PHE A   1       5.850   3.510  12.956  0.00  0.00    +0.000 A 
ATOM     20  CZ  PHE A   1       6.813   4.085  12.127  0.00  0.00    +0.000 A 
ATOM     21  CE2 PHE A   1       7.705   5.022  12.643  0.00  0.00    +0.000 A 
ATOM     22  CD2 PHE A   1       7.644   5.373  13.993  0.00  0.00    +0.000 A 
ENDBRANCH  16  17
ENDBRANCH   1  16
TORSDOF 6
ENDMDL
