MODEL 1
REMARK VINA RESULT:      -8.0      0.000      0.000
REMARK  Name = 
REMARK  8 active torsions:
REMARK  status: ('A' for Active; 'I' for Inactive)
REMARK    1  A    between atoms: C_2  and  C_4
REMARK    2  A    between atoms: C_8  and  N_9
REMARK    3  A    between atoms: C_10  and  C_12
REMARK    4  A    between atoms: C_12  and  O_13
REMARK    5  A    between atoms: O_13  and  C_14
REMARK    6  A    between atoms: C_14  and  C_16
REMARK    7  A    between atoms: C_17  and  C_18
REMARK    8  A    between atoms: C_21  and  N_22
REMARK                            x       y       z     vdW  Elec       q    Type
REMARK                         _______ _______ _______ _____ _____    ______ ____
ROOT
ATOM      1  C   UNL     1       7.148   5.587  19.401  0.00  0.00    +0.000 C 
ENDROOT
BRANCH   1   3
ATOM      2  N   UNL     1       5.601   3.822  18.763  0.00  0.00    +0.000 N 
ATOM      3  C   UNL     1       5.698   5.129  19.213  0.00  0.00    +0.000 C 
ATOM      4  O   UNL     1       4.751   5.846  19.535  0.00  0.00    +0.000 OA
ATOM      5  H   UNL     1       6.381   3.224  19.000  0.00  0.00    +0.000 HD
BRANCH   2  10
ATOM      6  C   UNL     1       3.607   2.419  19.448  0.00  0.00    +0.000 A 
ATOM      7  C   UNL     1       2.429   1.983  18.738  0.00  0.00    +0.000 A 
ATOM      8  C   UNL     1       2.357   2.478  17.454  0.00  0.00    +0.000 A 
ATOM      9  S   UNL     1       3.652   3.536  17.113  0.00  0.00    +0.000 S 
ATOM     10  C   UNL     1       4.374   3.219  18.619  0.00  0.00    +0.000 A 
BRANCH   6  12
ATOM     11  N   UNL     1       2.868   2.361  21.719  0.00  0.00    +0.000 N 
ATOM     12  C   UNL     1       3.908   2.158  20.853  0.00  0.00    +0.000 C 
ATOM     13  O   UNL     1       5.012   1.827  21.272  0.00  0.00    +0.000 OA
ATOM     14  H   UNL     1       3.033   2.074  22.675  0.00  0.00    +0.000 HD
ATOM     15  H   UNL     1       1.915   2.375  21.387  0.00  0.00    +0.000 HD
ENDBRANCH   6  12
ENDBRANCH   2  10
ENDBRANCH   1   3
BRANCH   1  16
ATOM     16  O   UNL     1       7.789   5.871  18.147  0.00  0.00    +0.000 OA
BRANCH  16  17
ATOM     17  C   UNL     1       7.447   7.048  17.568  0.00  0.00    +0.000 C 
ATOM     18  O   UNL     1       6.673   7.213  16.646  0.00  0.00    +0.000 OA
BRANCH  17  19
ATOM     19  C   UNL     1       8.205   8.126  18.244  0.00  0.00    +0.000 C 
ATOM     20  C   UNL     1       8.102   9.386  17.792  0.00  0.00    +0.000 C 
BRANCH  20  21
ATOM     21  C   UNL     1       8.838  10.540  18.331  0.00  0.00    +0.000 A 
ATOM     22  C   UNL     1       9.648  10.346  19.460  0.00  0.00    +0.000 A 
ATOM     23  C   UNL     1      10.391  11.400  20.005  0.00  0.00    +0.000 A 
ATOM     24  C   UNL     1      10.327  12.664  19.410  0.00  0.00    +0.000 A 
ATOM     25  C   UNL     1       9.535  12.875  18.276  0.00  0.00    +0.000 A 
ATOM     26  C   UNL     1       8.801  11.811  17.737  0.00  0.00    +0.000 A 
BRANCH  24  27
ATOM     27  N   UNL     1      11.101  13.777  19.976  0.00  0.00    +0.000 N 
ATOM     28  O   UNL     1      10.488  14.633  20.628  0.00  0.00    +0.000 OA
ATOM     29  O   UNL     1      12.323  13.793  19.768  0.00  0.00    +0.000 OA
ENDBRANCH  24  27
ENDBRANCH  20  21
ENDBRANCH  17  19
ENDBRANCH  16  17
ENDBRANCH   1  16
TORSDOF 8
ENDMDL
MODEL 2
REMARK VINA RESULT:      -7.8      1.321      1.671
REMARK  Name = 
REMARK  8 active torsions:
REMARK  status: ('A' for Active; 'I' for Inactive)
REMARK    1  A    between atoms: C_2  and  C_4
REMARK    2  A    between atoms: C_8  and  N_9
REMARK    3  A    between atoms: C_10  and  C_12
REMARK    4  A    between atoms: C_12  and  O_13
REMARK    5  A    between atoms: O_13  and  C_14
REMARK    6  A    between atoms: C_14  and  C_16
REMARK    7  A    between atoms: C_17  and  C_18
REMARK    8  A    between atoms: C_21  and  N_22
REMARK                            x       y       z     vdW  Elec       q    Type
REMARK                         _______ _______ _______ _____ _____    ______ ____
ROOT
ATOM      1  C   UNL     1       7.420   5.881  19.425  0.00  0.00    +0.000 C 
ENDROOT
BRANCH   1   3
ATOM      2  N   UNL     1       5.036   5.404  19.464  0.00  0.00    +0.000 N 
ATOM      3  C   UNL     1       6.260   4.995  18.961  0.00  0.00    +0.000 C 
ATOM      4  O   UNL     1       6.430   4.088  18.146  0.00  0.00    +0.000 OA
ATOM      5  H   UNL     1       4.970   6.386  19.698  0.00  0.00    +0.000 HD
BRANCH   2  10
ATOM      6  C   UNL     1       3.332   3.534  19.366  0.00  0.00    +0.000 A 
ATOM      7  C   UNL     1       2.115   3.358  18.611  0.00  0.00    +0.000 A 
ATOM      8  C   UNL     1       1.798   4.453  17.835  0.00  0.00    +0.000 A 
ATOM      9  S   UNL     1       2.905   5.731  18.067  0.00  0.00    +0.000 S 
ATOM     10  C   UNL     1       3.875   4.775  19.084  0.00  0.00    +0.000 A 
BRANCH   6  12
ATOM     11  N   UNL     1       4.952   1.879  19.952  0.00  0.00    +0.000 N 
ATOM     12  C   UNL     1       3.866   2.606  20.359  0.00  0.00    +0.000 C 
ATOM     13  O   UNL     1       3.378   2.426  21.470  0.00  0.00    +0.000 OA
ATOM     14  H   UNL     1       5.397   1.319  20.668  0.00  0.00    +0.000 HD
ATOM     15  H   UNL     1       5.515   2.184  19.172  0.00  0.00    +0.000 HD
ENDBRANCH   6  12
ENDBRANCH   2  10
ENDBRANCH   1   3
BRANCH   1  16
ATOM     16  O   UNL     1       8.064   6.542  18.324  0.00  0.00    +0.000 OA
BRANCH  16  17
ATOM     17  C   UNL     1       7.326   7.492  17.698  0.00  0.00    +0.000 C 
ATOM     18  O   UNL     1       6.215   7.361  17.223  0.00  0.00    +0.000 OA
BRANCH  17  19
ATOM     19  C   UNL     1       8.122   8.741  17.667  0.00  0.00    +0.000 C 
ATOM     20  C   UNL     1       8.600   9.244  18.817  0.00  0.00    +0.000 C 
BRANCH  20  21
ATOM     21  C   UNL     1       9.355  10.501  18.939  0.00  0.00    +0.000 A 
ATOM     22  C   UNL     1       9.193  11.475  17.943  0.00  0.00    +0.000 A 
ATOM     23  C   UNL     1       9.867  12.701  18.016  0.00  0.00    +0.000 A 
ATOM     24  C   UNL     1      10.709  12.957  19.102  0.00  0.00    +0.000 A 
ATOM     25  C   UNL     1      10.873  12.003  20.113  0.00  0.00    +0.000 A 
ATOM     26  C   UNL     1      10.190  10.783  20.031  0.00  0.00    +0.000 A 
BRANCH  24  27
ATOM     27  N   UNL     1      11.421  14.239  19.186  0.00  0.00    +0.000 N 
ATOM     28  O   UNL     1      11.203  14.957  20.172  0.00  0.00    +0.000 OA
ATOM     29  O   UNL     1      12.200  14.526  18.266  0.00  0.00    +0.000 OA
ENDBRANCH  24  27
ENDBRANCH  20  21
ENDBRANCH  17  19
ENDBRANCH  16  17
ENDBRANCH   1  16
TORSDOF 8
ENDMDL
MODEL 3
REMARK VINA RESULT:      -7.8      1.964      2.656
REMARK  Name = 
REMARK  8 active torsions:
REMARK  status: ('A' for Active; 'I' for Inactive)
REMARK    1  A    between atoms: C_2  and  C_4
REMARK    2  A    between atoms: C_8  and  N_9
REMARK    3  A    between atoms: C_10  and  C_12
REMARK    4  A    between atoms: C_12  and  O_13
REMARK    5  A    between atoms: O_13  and  C_14
REMARK    6  A    between atoms: C_14  and  C_16
REMARK    7  A    between atoms: C_17  and  C_18
REMARK    8  A    between atoms: C_21  and  N_22
REMARK                            x       y       z     vdW  Elec       q    Type
REMARK                         _______ _______ _______ _____ _____    ______ ____
ROOT
ATOM      1  C   UNL     1       6.622   5.588  16.880  0.00  0.00    +0.000 C 
ENDROOT
BRANCH   1   3
ATOM      2  N   UNL     1       4.260   5.183  17.289  0.00  0.00    +0.000 N 
ATOM      3  C   UNL     1       5.538   5.004  17.791  0.00  0.00    +0.000 C 
ATOM      4  O   UNL     1       5.826   4.363  18.802  0.00  0.00    +0.000 OA
ATOM      5  H   UNL     1       4.198   5.273  16.283  0.00  0.00    +0.000 HD
BRANCH   2  10
ATOM      6  C   UNL     1       2.353   5.104  18.953  0.00  0.00    +0.000 A 
ATOM      7  C   UNL     1       1.407   4.074  19.307  0.00  0.00    +0.000 A 
ATOM      8  C   UNL     1       1.540   2.932  18.545  0.00  0.00    +0.000 A 
ATOM      9  S   UNL     1       2.739   3.112  17.345  0.00  0.00    +0.000 S 
ATOM     10  C   UNL     1       3.171   4.648  17.934  0.00  0.00    +0.000 A 
BRANCH   6  12
ATOM     11  N   UNL     1       1.992   6.574  20.801  0.00  0.00    +0.000 N 
ATOM     12  C   UNL     1       2.389   6.458  19.496  0.00  0.00    +0.000 C 
ATOM     13  O   UNL     1       2.701   7.453  18.849  0.00  0.00    +0.000 OA
ATOM     14  H   UNL     1       2.122   7.486  21.218  0.00  0.00    +0.000 HD
ATOM     15  H   UNL     1       1.986   5.771  21.412  0.00  0.00    +0.000 HD
ENDBRANCH   6  12
ENDBRANCH   2  10
ENDBRANCH   1   3
BRANCH   1  16
ATOM     16  O   UNL     1       6.805   6.997  17.097  0.00  0.00    +0.000 OA
BRANCH  16  17
ATOM     17  C   UNL     1       7.743   7.331  18.017  0.00  0.00    +0.000 C 
ATOM     18  O   UNL     1       8.188   6.624  18.899  0.00  0.00    +0.000 OA
BRANCH  17  19
ATOM     19  C   UNL     1       8.134   8.740  17.778  0.00  0.00    +0.000 C 
ATOM     20  C   UNL     1       8.879   9.379  18.694  0.00  0.00    +0.000 C 
BRANCH  20  21
ATOM     21  C   UNL     1       9.291  10.790  18.613  0.00  0.00    +0.000 A 
ATOM     22  C   UNL     1       8.516  11.666  17.838  0.00  0.00    +0.000 A 
ATOM     23  C   UNL     1       8.844  13.024  17.740  0.00  0.00    +0.000 A 
ATOM     24  C   UNL     1       9.957  13.513  18.431  0.00  0.00    +0.000 A 
ATOM     25  C   UNL     1      10.735  12.656  19.219  0.00  0.00    +0.000 A 
ATOM     26  C   UNL     1      10.394  11.302  19.313  0.00  0.00    +0.000 A 
BRANCH  24  27
ATOM     27  N   UNL     1      10.310  14.935  18.333  0.00  0.00    +0.000 N 
ATOM     28  O   UNL     1      10.300  15.605  19.375  0.00  0.00    +0.000 OA
ATOM     29  O   UNL     1      10.597  15.381  17.213  0.00  0.00    +0.000 OA
ENDBRANCH  24  27
ENDBRANCH  20  21
ENDBRANCH  17  19
ENDBRANCH  16  17
ENDBRANCH   1  16
TORSDOF 8
ENDMDL
MODEL 4
REMARK VINA RESULT:      -7.8      2.054      2.665
REMARK  Name = 
REMARK  8 active torsions:
REMARK  status: ('A' for Active; 'I' for Inactive)
REMARK    1  A    between atoms: C_2  and  C_4
REMARK    2  A    between atoms: C_8  and  N_9
REMARK    3  A    between atoms: C_10  and  C_12
REMARK    4  A    between atoms: C_12  and  O_13
REMARK    5  A    between atoms: O_13  and  C_14
REMARK    6  A    between atoms: C_14  and  C_16
REMARK    7  A    between atoms: C_17  and  C_18
REMARK    8  A    between atoms: C_21  and  N_22
REMARK                            x       y       z     vdW  Elec       q    Type
REMARK                         _______ _______ _______ _____ _____    ______ ____
ROOT
ATOM      1  C   UNL     1       6.628   5.041  18.255  0.00  0.00    +0.000 C 
ENDROOT
BRANCH   1   3
ATOM      2  N   UNL     1       4.674   4.547  19.615  0.00  0.00    +0.000 N 
ATOM      3  C   UNL     1       5.133   4.712  18.319  0.00  0.00    +0.000 C 
ATOM      4  O   UNL     1       4.433   4.706  17.307  0.00  0.00    +0.000 OA
ATOM      5  H   UNL     1       5.200   5.037  20.327  0.00  0.00    +0.000 HD
BRANCH   2  10
ATOM      6  C   UNL     1       2.262   5.176  20.064  0.00  0.00    +0.000 A 
ATOM      7  C   UNL     1       1.092   4.396  20.384  0.00  0.00    +0.000 A 
ATOM      8  C   UNL     1       1.332   3.038  20.388  0.00  0.00    +0.000 A 
ATOM      9  S   UNL     1       2.936   2.681  19.929  0.00  0.00    +0.000 S 
ATOM     10  C   UNL     1       3.340   4.331  19.865  0.00  0.00    +0.000 A 
BRANCH   6  12
ATOM     11  N   UNL     1       1.761   7.362  20.888  0.00  0.00    +0.000 N 
ATOM     12  C   UNL     1       2.302   6.623  19.871  0.00  0.00    +0.000 C 
ATOM     13  O   UNL     1       2.736   7.173  18.864  0.00  0.00    +0.000 OA
ATOM     14  H   UNL     1       1.886   8.363  20.815  0.00  0.00    +0.000 HD
ATOM     15  H   UNL     1       1.643   6.966  21.808  0.00  0.00    +0.000 HD
ENDBRANCH   6  12
ENDBRANCH   2  10
ENDBRANCH   1   3
BRANCH   1  16
ATOM     16  O   UNL     1       6.874   6.450  18.391  0.00  0.00    +0.000 OA
BRANCH  16  17
ATOM     17  C   UNL     1       7.393   7.062  17.297  0.00  0.00    +0.000 C 
ATOM     18  O   UNL     1       7.635   6.555  16.220  0.00  0.00    +0.000 OA
BRANCH  17  19
ATOM     19  C   UNL     1       7.640   8.481  17.644  0.00  0.00    +0.000 C 
ATOM     20  C   UNL     1       8.698   8.795  18.409  0.00  0.00    +0.000 C 
BRANCH  20  21
ATOM     21  C   UNL     1       9.031  10.151  18.874  0.00  0.00    +0.000 A 
ATOM     22  C   UNL     1       8.971  11.205  17.950  0.00  0.00    +0.000 A 
ATOM     23  C   UNL     1       9.254  12.521  18.337  0.00  0.00    +0.000 A 
ATOM     24  C   UNL     1       9.596  12.786  19.666  0.00  0.00    +0.000 A 
ATOM     25  C   UNL     1       9.649  11.750  20.606  0.00  0.00    +0.000 A 
ATOM     26  C   UNL     1       9.359  10.439  20.207  0.00  0.00    +0.000 A 
BRANCH  24  27
ATOM     27  N   UNL     1       9.897  14.163  20.082  0.00  0.00    +0.000 N 
ATOM     28  O   UNL     1       9.600  15.079  19.303  0.00  0.00    +0.000 OA
ATOM     29  O   UNL     1      10.432  14.326  21.189  0.00  0.00    +0.000 OA
ENDBRANCH  24  27
ENDBRANCH  20  21
ENDBRANCH  17  19
ENDBRANCH  16  17
ENDBRANCH   1  16
TORSDOF 8
ENDMDL
MODEL 5
REMARK VINA RESULT:      -7.8      1.751      2.198
REMARK  Name = 
REMARK  8 active torsions:
REMARK  status: ('A' for Active; 'I' for Inactive)
REMARK    1  A    between atoms: C_2  and  C_4
REMARK    2  A    between atoms: C_8  and  N_9
REMARK    3  A    between atoms: C_10  and  C_12
REMARK    4  A    between atoms: C_12  and  O_13
REMARK    5  A    between atoms: O_13  and  C_14
REMARK    6  A    between atoms: C_14  and  C_16
REMARK    7  A    between atoms: C_17  and  C_18
REMARK    8  A    between atoms: C_21  and  N_22
REMARK                            x       y       z     vdW  Elec       q    Type
REMARK                         _______ _______ _______ _____ _____    ______ ____
ROOT
ATOM      1  C   UNL     1       6.395   5.652  16.780  0.00  0.00    +0.000 C 
ENDROOT
BRANCH   1   3
ATOM      2  N   UNL     1       5.024   5.114  18.715  0.00  0.00    +0.000 N 
ATOM      3  C   UNL     1       5.120   5.012  17.337  0.00  0.00    +0.000 C 
ATOM      4  O   UNL     1       4.251   4.557  16.593  0.00  0.00    +0.000 OA
ATOM      5  H   UNL     1       5.520   5.894  19.127  0.00  0.00    +0.000 HD
BRANCH   2  10
ATOM      6  C   UNL     1       3.475   3.416  19.778  0.00  0.00    +0.000 A 
ATOM      7  C   UNL     1       2.158   3.523  20.358  0.00  0.00    +0.000 A 
ATOM      8  C   UNL     1       1.682   4.816  20.384  0.00  0.00    +0.000 A 
ATOM      9  S   UNL     1       2.837   5.925  19.794  0.00  0.00    +0.000 S 
ATOM     10  C   UNL     1       3.904   4.669  19.376  0.00  0.00    +0.000 A 
BRANCH   6  12
ATOM     11  N   UNL     1       4.092   1.430  18.602  0.00  0.00    +0.000 N 
ATOM     12  C   UNL     1       4.288   2.205  19.713  0.00  0.00    +0.000 C 
ATOM     13  O   UNL     1       5.066   1.848  20.592  0.00  0.00    +0.000 OA
ATOM     14  H   UNL     1       4.730   0.653  18.494  0.00  0.00    +0.000 HD
ATOM     15  H   UNL     1       3.672   1.817  17.770  0.00  0.00    +0.000 HD
ENDBRANCH   6  12
ENDBRANCH   2  10
ENDBRANCH   1   3
BRANCH   1  16
ATOM     16  O   UNL     1       6.549   7.012  17.216  0.00  0.00    +0.000 OA
BRANCH  16  17
ATOM     17  C   UNL     1       7.576   7.240  18.072  0.00  0.00    +0.000 C 
ATOM     18  O   UNL     1       8.073   6.447  18.846  0.00  0.00    +0.000 OA
BRANCH  17  19
ATOM     19  C   UNL     1       7.990   8.654  17.919  0.00  0.00    +0.000 C 
ATOM     20  C   UNL     1       8.839   9.189  18.810  0.00  0.00    +0.000 C 
BRANCH  20  21
ATOM     21  C   UNL     1       9.290  10.591  18.812  0.00  0.00    +0.000 A 
ATOM     22  C   UNL     1       8.836  11.437  17.790  0.00  0.00    +0.000 A 
ATOM     23  C   UNL     1       9.211  12.786  17.750  0.00  0.00    +0.000 A 
ATOM     24  C   UNL     1      10.045  13.296  18.749  0.00  0.00    +0.000 A 
ATOM     25  C   UNL     1      10.498  12.469  19.785  0.00  0.00    +0.000 A 
ATOM     26  C   UNL     1      10.112  11.124  19.816  0.00  0.00    +0.000 A 
BRANCH  24  27
ATOM     27  N   UNL     1      10.446  14.708  18.716  0.00  0.00    +0.000 N 
ATOM     28  O   UNL     1       9.688  15.510  18.152  0.00  0.00    +0.000 OA
ATOM     29  O   UNL     1      11.520  15.015  19.253  0.00  0.00    +0.000 OA
ENDBRANCH  24  27
ENDBRANCH  20  21
ENDBRANCH  17  19
ENDBRANCH  16  17
ENDBRANCH   1  16
TORSDOF 8
ENDMDL
MODEL 6
REMARK VINA RESULT:      -7.7      1.896      2.588
REMARK  Name = 
REMARK  8 active torsions:
REMARK  status: ('A' for Active; 'I' for Inactive)
REMARK    1  A    between atoms: C_2  and  C_4
REMARK    2  A    between atoms: C_8  and  N_9
REMARK    3  A    between atoms: C_10  and  C_12
REMARK    4  A    between atoms: C_12  and  O_13
REMARK    5  A    between atoms: O_13  and  C_14
REMARK    6  A    between atoms: C_14  and  C_16
REMARK    7  A    between atoms: C_17  and  C_18
REMARK    8  A    between atoms: C_21  and  N_22
REMARK                            x       y       z     vdW  Elec       q    Type
REMARK                         _______ _______ _______ _____ _____    ______ ____
ROOT
ATOM      1  C   UNL     1       6.526   5.031  18.489  0.00  0.00    +0.000 C 
ENDROOT
BRANCH   1   3
ATOM      2  N   UNL     1       4.561   3.716  19.059  0.00  0.00    +0.000 N 
ATOM      3  C   UNL     1       5.111   4.988  19.073  0.00  0.00    +0.000 C 
ATOM      4  O   UNL     1       4.596   5.983  19.582  0.00  0.00    +0.000 OA
ATOM      5  H   UNL     1       5.228   2.956  19.075  0.00  0.00    +0.000 HD
BRANCH   2  10
ATOM      6  C   UNL     1       2.045   3.867  19.292  0.00  0.00    +0.000 A 
ATOM      7  C   UNL     1       1.126   3.398  20.301  0.00  0.00    +0.000 A 
ATOM      8  C   UNL     1       1.744   2.679  21.302  0.00  0.00    +0.000 A 
ATOM      9  S   UNL     1       3.413   2.488  21.002  0.00  0.00    +0.000 S 
ATOM     10  C   UNL     1       3.331   3.477  19.622  0.00  0.00    +0.000 A 
BRANCH   6  12
ATOM     11  N   UNL     1       2.057   5.867  17.986  0.00  0.00    +0.000 N 
ATOM     12  C   UNL     1       1.682   4.553  18.055  0.00  0.00    +0.000 C 
ATOM     13  O   UNL     1       1.047   4.038  17.141  0.00  0.00    +0.000 OA
ATOM     14  H   UNL     1       1.912   6.317  17.091  0.00  0.00    +0.000 HD
ATOM     15  H   UNL     1       2.784   6.229  18.585  0.00  0.00    +0.000 HD
ENDBRANCH   6  12
ENDBRANCH   2  10
ENDBRANCH   1   3
BRANCH   1  16
ATOM     16  O   UNL     1       7.091   6.350  18.546  0.00  0.00    +0.000 OA
BRANCH  16  17
ATOM     17  C   UNL     1       7.427   6.897  17.352  0.00  0.00    +0.000 C 
ATOM     18  O   UNL     1       7.492   6.329  16.280  0.00  0.00    +0.000 OA
BRANCH  17  19
ATOM     19  C   UNL     1       7.728   8.330  17.574  0.00  0.00    +0.000 C 
ATOM     20  C   UNL     1       8.636   8.674  18.501  0.00  0.00    +0.000 C 
BRANCH  20  21
ATOM     21  C   UNL     1       8.991  10.056  18.864  0.00  0.00    +0.000 A 
ATOM     22  C   UNL     1       8.927  11.042  17.869  0.00  0.00    +0.000 A 
ATOM     23  C   UNL     1       9.231  12.379  18.158  0.00  0.00    +0.000 A 
ATOM     24  C   UNL     1       9.597  12.733  19.459  0.00  0.00    +0.000 A 
ATOM     25  C   UNL     1       9.654  11.765  20.469  0.00  0.00    +0.000 A 
ATOM     26  C   UNL     1       9.343  10.433  20.168  0.00  0.00    +0.000 A 
BRANCH  24  27
ATOM     27  N   UNL     1       9.919  14.132  19.772  0.00  0.00    +0.000 N 
ATOM     28  O   UNL     1      11.077  14.392  20.126  0.00  0.00    +0.000 OA
ATOM     29  O   UNL     1       9.013  14.970  19.663  0.00  0.00    +0.000 OA
ENDBRANCH  24  27
ENDBRANCH  20  21
ENDBRANCH  17  19
ENDBRANCH  16  17
ENDBRANCH   1  16
TORSDOF 8
ENDMDL
MODEL 7
REMARK VINA RESULT:      -7.5      1.935      2.503
REMARK  Name = 
REMARK  8 active torsions:
REMARK  status: ('A' for Active; 'I' for Inactive)
REMARK    1  A    between atoms: C_2  and  C_4
REMARK    2  A    between atoms: C_8  and  N_9
REMARK    3  A    between atoms: C_10  and  C_12
REMARK    4  A    between atoms: C_12  and  O_13
REMARK    5  A    between atoms: O_13  and  C_14
REMARK    6  A    between atoms: C_14  and  C_16
REMARK    7  A    between atoms: C_17  and  C_18
REMARK    8  A    between atoms: C_21  and  N_22
REMARK                            x       y       z     vdW  Elec       q    Type
REMARK                         _______ _______ _______ _____ _____    ______ ____
ROOT
ATOM      1  C   UNL     1       6.249   5.941  16.383  0.00  0.00    +0.000 C 
ENDROOT
BRANCH   1   3
ATOM      2  N   UNL     1       3.992   5.518  17.185  0.00  0.00    +0.000 N 
ATOM      3  C   UNL     1       5.331   5.214  17.371  0.00  0.00    +0.000 C 
ATOM      4  O   UNL     1       5.771   4.380  18.162  0.00  0.00    +0.000 OA
ATOM      5  H   UNL     1       3.739   5.806  16.249  0.00  0.00    +0.000 HD
BRANCH   2  10
ATOM      6  C   UNL     1       2.289   5.267  19.041  0.00  0.00    +0.000 A 
ATOM      7  C   UNL     1       1.461   4.163  19.466  0.00  0.00    +0.000 A 
ATOM      8  C   UNL     1       1.590   3.051  18.662  0.00  0.00    +0.000 A 
ATOM      9  S   UNL     1       2.636   3.342  17.346  0.00  0.00    +0.000 S 
ATOM     10  C   UNL     1       3.021   4.892  17.928  0.00  0.00    +0.000 A 
BRANCH   6  12
ATOM     11  N   UNL     1       1.936   6.678  20.936  0.00  0.00    +0.000 N 
ATOM     12  C   UNL     1       2.289   6.609  19.616  0.00  0.00    +0.000 C 
ATOM     13  O   UNL     1       2.536   7.630  18.983  0.00  0.00    +0.000 OA
ATOM     14  H   UNL     1       2.043   7.585  21.371  0.00  0.00    +0.000 HD
ATOM     15  H   UNL     1       1.984   5.862  21.527  0.00  0.00    +0.000 HD
ENDBRANCH   6  12
ENDBRANCH   2  10
ENDBRANCH   1   3
BRANCH   1  16
ATOM     16  O   UNL     1       6.576   7.266  16.829  0.00  0.00    +0.000 OA
BRANCH  16  17
ATOM     17  C   UNL     1       7.569   7.346  17.750  0.00  0.00    +0.000 C 
ATOM     18  O   UNL     1       8.018   6.439  18.422  0.00  0.00    +0.000 OA
BRANCH  17  19
ATOM     19  C   UNL     1       8.013   8.758  17.820  0.00  0.00    +0.000 C 
ATOM     20  C   UNL     1       8.838   9.138  18.808  0.00  0.00    +0.000 C 
BRANCH  20  21
ATOM     21  C   UNL     1       9.312  10.513  19.030  0.00  0.00    +0.000 A 
ATOM     22  C   UNL     1       9.542  10.933  20.349  0.00  0.00    +0.000 A 
ATOM     23  C   UNL     1      10.016  12.223  20.623  0.00  0.00    +0.000 A 
ATOM     24  C   UNL     1      10.267  13.101  19.564  0.00  0.00    +0.000 A 
ATOM     25  C   UNL     1      10.055  12.696  18.241  0.00  0.00    +0.000 A 
ATOM     26  C   UNL     1       9.587  11.402  17.980  0.00  0.00    +0.000 A 
BRANCH  24  27
ATOM     27  N   UNL     1      10.762  14.456  19.842  0.00  0.00    +0.000 N 
ATOM     28  O   UNL     1      10.766  14.839  21.020  0.00  0.00    +0.000 OA
ATOM     29  O   UNL     1      11.146  15.136  18.879  0.00  0.00    +0.000 OA
ENDBRANCH  24  27
ENDBRANCH  20  21
ENDBRANCH  17  19
ENDBRANCH  16  17
ENDBRANCH   1  16
TORSDOF 8
ENDMDL
MODEL 8
REMARK VINA RESULT:      -7.4      1.738      2.015
REMARK  Name = 
REMARK  8 active torsions:
REMARK  status: ('A' for Active; 'I' for Inactive)
REMARK    1  A    between atoms: C_2  and  C_4
REMARK    2  A    between atoms: C_8  and  N_9
REMARK    3  A    between atoms: C_10  and  C_12
REMARK    4  A    between atoms: C_12  and  O_13
REMARK    5  A    between atoms: O_13  and  C_14
REMARK    6  A    between atoms: C_14  and  C_16
REMARK    7  A    between atoms: C_17  and  C_18
REMARK    8  A    between atoms: C_21  and  N_22
REMARK                            x       y       z     vdW  Elec       q    Type
REMARK                         _______ _______ _______ _____ _____    ______ ____
ROOT
ATOM      1  C   UNL     1       7.061   5.141  18.001  0.00  0.00    +0.000 C 
ENDROOT
BRANCH   1   3
ATOM      2  N   UNL     1       4.649   5.067  18.305  0.00  0.00    +0.000 N 
ATOM      3  C   UNL     1       5.871   4.871  18.927  0.00  0.00    +0.000 C 
ATOM      4  O   UNL     1       6.031   4.431  20.066  0.00  0.00    +0.000 OA
ATOM      5  H   UNL     1       4.651   4.950  17.300  0.00  0.00    +0.000 HD
BRANCH   2  10
ATOM      6  C   UNL     1       2.730   3.635  19.128  0.00  0.00    +0.000 A 
ATOM      7  C   UNL     1       1.515   3.945  19.843  0.00  0.00    +0.000 A 
ATOM      8  C   UNL     1       1.417   5.276  20.190  0.00  0.00    +0.000 A 
ATOM      9  S   UNL     1       2.812   6.149  19.739  0.00  0.00    +0.000 S 
ATOM     10  C   UNL     1       3.474   4.789  18.962  0.00  0.00    +0.000 A 
BRANCH   6  12
ATOM     11  N   UNL     1       2.591   1.811  17.592  0.00  0.00    +0.000 N 
ATOM     12  C   UNL     1       3.173   2.302  18.729  0.00  0.00    +0.000 C 
ATOM     13  O   UNL     1       3.971   1.621  19.364  0.00  0.00    +0.000 OA
ATOM     14  H   UNL     1       2.973   0.941  17.246  0.00  0.00    +0.000 HD
ATOM     15  H   UNL     1       2.148   2.429  16.930  0.00  0.00    +0.000 HD
ENDBRANCH   6  12
ENDBRANCH   2  10
ENDBRANCH   1   3
BRANCH   1  16
ATOM     16  O   UNL     1       7.593   6.463  18.181  0.00  0.00    +0.000 OA
BRANCH  16  17
ATOM     17  C   UNL     1       7.144   7.399  17.308  0.00  0.00    +0.000 C 
ATOM     18  O   UNL     1       6.213   7.292  16.535  0.00  0.00    +0.000 OA
BRANCH  17  19
ATOM     19  C   UNL     1       8.008   8.595  17.438  0.00  0.00    +0.000 C 
ATOM     20  C   UNL     1       8.404   8.990  18.658  0.00  0.00    +0.000 C 
BRANCH  20  21
ATOM     21  C   UNL     1       9.214  10.186  18.938  0.00  0.00    +0.000 A 
ATOM     22  C   UNL     1       9.799  10.862  17.857  0.00  0.00    +0.000 A 
ATOM     23  C   UNL     1      10.562  12.019  18.056  0.00  0.00    +0.000 A 
ATOM     24  C   UNL     1      10.736  12.511  19.354  0.00  0.00    +0.000 A 
ATOM     25  C   UNL     1      10.150  11.857  20.444  0.00  0.00    +0.000 A 
ATOM     26  C   UNL     1       9.385  10.704  20.231  0.00  0.00    +0.000 A 
BRANCH  24  27
ATOM     27  N   UNL     1      11.536  13.723  19.574  0.00  0.00    +0.000 N 
ATOM     28  O   UNL     1      11.372  14.337  20.637  0.00  0.00    +0.000 OA
ATOM     29  O   UNL     1      12.328  14.060  18.682  0.00  0.00    +0.000 OA
ENDBRANCH  24  27
ENDBRANCH  20  21
ENDBRANCH  17  19
ENDBRANCH  16  17
ENDBRANCH   1  16
TORSDOF 8
ENDMDL
MODEL 9
REMARK VINA RESULT:      -7.4      2.049      2.463
REMARK  Name = 
REMARK  8 active torsions:
REMARK  status: ('A' for Active; 'I' for Inactive)
REMARK    1  A    between atoms: C_2  and  C_4
REMARK    2  A    between atoms: C_8  and  N_9
REMARK    3  A    between atoms: C_10  and  C_12
REMARK    4  A    between atoms: C_12  and  O_13
REMARK    5  A    between atoms: O_13  and  C_14
REMARK    6  A    between atoms: C_14  and  C_16
REMARK    7  A    between atoms: C_17  and  C_18
REMARK    8  A    between atoms: C_21  and  N_22
REMARK                            x       y       z     vdW  Elec       q    Type
REMARK                         _______ _______ _______ _____ _____    ______ ____
ROOT
ATOM      1  C   UNL     1       6.721   4.889  17.199  0.00  0.00    +0.000 C 
ENDROOT
BRANCH   1   3
ATOM      2  N   UNL     1       4.906   3.935  18.508  0.00  0.00    +0.000 N 
ATOM      3  C   UNL     1       5.262   4.426  17.262  0.00  0.00    +0.000 C 
ATOM      4  O   UNL     1       4.495   4.587  16.312  0.00  0.00    +0.000 OA
ATOM      5  H   UNL     1       5.444   4.296  19.285  0.00  0.00    +0.000 HD
BRANCH   2  10
ATOM      6  C   UNL     1       2.492   4.236  19.209  0.00  0.00    +0.000 A 
ATOM      7  C   UNL     1       1.407   3.305  19.402  0.00  0.00    +0.000 A 
ATOM      8  C   UNL     1       1.746   2.006  19.085  0.00  0.00    +0.000 A 
ATOM      9  S   UNL     1       3.336   1.901  18.476  0.00  0.00    +0.000 S 
ATOM     10  C   UNL     1       3.612   3.553  18.769  0.00  0.00    +0.000 A 
BRANCH   6  12
ATOM     11  N   UNL     1       2.599   6.394  18.192  0.00  0.00    +0.000 N 
ATOM     12  C   UNL     1       2.412   5.687  19.348  0.00  0.00    +0.000 C 
ATOM     13  O   UNL     1       2.239   6.270  20.414  0.00  0.00    +0.000 OA
ATOM     14  H   UNL     1       2.432   7.390  18.257  0.00  0.00    +0.000 HD
ATOM     15  H   UNL     1       2.483   5.954  17.292  0.00  0.00    +0.000 HD
ENDBRANCH   6  12
ENDBRANCH   2  10
ENDBRANCH   1   3
BRANCH   1  16
ATOM     16  O   UNL     1       6.831   6.322  17.218  0.00  0.00    +0.000 OA
BRANCH  16  17
ATOM     17  C   UNL     1       7.688   6.831  18.137  0.00  0.00    +0.000 C 
ATOM     18  O   UNL     1       8.146   6.260  19.106  0.00  0.00    +0.000 OA
BRANCH  17  19
ATOM     19  C   UNL     1       7.966   8.239  17.769  0.00  0.00    +0.000 C 
ATOM     20  C   UNL     1       8.660   9.014  18.617  0.00  0.00    +0.000 C 
BRANCH  20  21
ATOM     21  C   UNL     1       8.960  10.440  18.406  0.00  0.00    +0.000 A 
ATOM     22  C   UNL     1      10.139  10.961  18.959  0.00  0.00    +0.000 A 
ATOM     23  C   UNL     1      10.490  12.304  18.773  0.00  0.00    +0.000 A 
ATOM     24  C   UNL     1       9.654  13.134  18.020  0.00  0.00    +0.000 A 
ATOM     25  C   UNL     1       8.480  12.629  17.450  0.00  0.00    +0.000 A 
ATOM     26  C   UNL     1       8.143  11.283  17.638  0.00  0.00    +0.000 A 
BRANCH  24  27
ATOM     27  N   UNL     1      10.013  14.545  17.822  0.00  0.00    +0.000 N 
ATOM     28  O   UNL     1       9.106  15.386  17.890  0.00  0.00    +0.000 OA
ATOM     29  O   UNL     1      11.203  14.810  17.597  0.00  0.00    +0.000 OA
ENDBRANCH  24  27
ENDBRANCH  20  21
ENDBRANCH  17  19
ENDBRANCH  16  17
ENDBRANCH   1  16
TORSDOF 8
ENDMDL
