MODEL 1
REMARK VINA RESULT:      -6.5      0.000      0.000
REMARK  Name = 
REMARK  11 active torsions:
REMARK  status: ('A' for Active; 'I' for Inactive)
REMARK    1  A    between atoms: C_1  and  O_2
REMARK    2  A    between atoms: O_2  and  C_3
REMARK    3  A    between atoms: C_3  and  C_4
REMARK    4  A    between atoms: C_4  and  C_5
REMARK    5  A    between atoms: C_4  and  C_6
REMARK    6  A    between atoms: C_4  and  N_7
REMARK    7  A    between atoms: C_15  and  C_16
REMARK    8  A    between atoms: C_19  and  C_20
REMARK    9  A    between atoms: C_23  and  O_24
REMARK   10  A    between atoms: O_24  and  C_25
REMARK   11  A    between atoms: C_28  and  C_29
REMARK                            x       y       z     vdW  Elec       q    Type
REMARK                         _______ _______ _______ _____ _____    ______ ____
ROOT
ATOM      1  N   UNL     1       3.210   6.301  19.201  0.00  0.00    +0.000 N 
ATOM      2  C   UNL     1       3.122   7.261  18.229  0.00  0.00    +0.000 C 
ATOM      3  O   UNL     1       3.738   7.188  17.168  0.00  0.00    +0.000 OA
ATOM      4  N   UNL     1       2.262   8.314  18.505  0.00  0.00    +0.000 N 
ATOM      5  C   UNL     1       2.052   9.306  17.460  0.00  0.00    +0.000 C 
ATOM      6  C   UNL     1       1.934  10.707  18.042  0.00  0.00    +0.000 C 
ATOM      7  N   UNL     1       1.144  10.765  19.258  0.00  0.00    +0.000 N 
ATOM      8  C   UNL     1       0.807   9.639  19.963  0.00  0.00    +0.000 A 
ATOM      9  C   UNL     1       0.130  10.025  21.127  0.00  0.00    +0.000 A 
ATOM     10  C   UNL     1       0.117  11.482  21.126  0.00  0.00    +0.000 A 
ATOM     11  C   UNL     1       0.812  11.891  19.977  0.00  0.00    +0.000 A 
ATOM     12  C   UNL     1       1.205   8.260  19.506  0.00  0.00    +0.000 C 
ATOM     13  H   UNL     1       3.010   6.587  20.147  0.00  0.00    +0.000 HD
ENDROOT
BRANCH  10  14
ATOM     14  C   UNL     1      -0.528  12.429  22.073  0.00  0.00    +0.000 A 
ATOM     15  C   UNL     1      -1.710  12.123  22.749  0.00  0.00    +0.000 A 
ATOM     16  C   UNL     1      -2.335  13.052  23.594  0.00  0.00    +0.000 A 
ATOM     17  C   UNL     1      -1.738  14.277  23.871  0.00  0.00    +0.000 A 
ATOM     18  C   UNL     1      -0.549  14.600  23.231  0.00  0.00    +0.000 A 
ATOM     19  C   UNL     1       0.013  13.707  22.307  0.00  0.00    +0.000 A 
BRANCH  17  20
ATOM     20  O   UNL     1      -2.420  15.098  24.723  0.00  0.00    +0.000 OA
ATOM     21  C   UNL     1      -1.650  15.632  25.795  0.00  0.00    +0.000 C 
ENDBRANCH  17  20
ENDBRANCH  10  14
BRANCH   9  22
ATOM     22  C   UNL     1      -0.398   9.074  22.115  0.00  0.00    +0.000 C 
ATOM     23  N   UNL     1      -0.054   9.286  23.423  0.00  0.00    +0.000 N 
ATOM     24  O   UNL     1      -1.139   8.128  21.868  0.00  0.00    +0.000 OA
ATOM     25  H   UNL     1       0.727   9.866  23.683  0.00  0.00    +0.000 HD
ATOM     26  H   UNL     1      -0.360   8.570  24.068  0.00  0.00    +0.000 HD
ENDBRANCH   9  22
BRANCH   1  27
ATOM     27  C   UNL     1       4.049   5.087  19.124  0.00  0.00    +0.000 C 
ATOM     28  C   UNL     1       3.840   4.321  17.802  0.00  0.00    +0.000 C 
ATOM     29  C   UNL     1       3.739   4.181  20.324  0.00  0.00    +0.000 C 
BRANCH  27  30
ATOM     30  C   UNL     1       5.545   5.517  19.216  0.00  0.00    +0.000 C 
BRANCH  30  32
ATOM     31  C   UNL     1       7.441   4.777  18.007  0.00  0.00    +0.000 C 
ATOM     32  O   UNL     1       6.400   4.408  18.904  0.00  0.00    +0.000 OA
ENDBRANCH  30  32
ENDBRANCH  27  30
ENDBRANCH   1  27
BRANCH  11  33
ATOM     33  C   UNL     1       1.164  13.355  19.637  0.00  0.00    +0.000 C 
ATOM     34  C   UNL     1       1.728  13.881  18.341  0.00  0.00    +0.000 C 
ATOM     35  C   UNL     1       0.271  14.044  18.622  0.00  0.00    +0.000 C 
ENDBRANCH  11  33
TORSDOF 7
ENDMDL
MODEL 2
REMARK VINA RESULT:      -6.4      0.899      1.805
REMARK  Name = 
REMARK  11 active torsions:
REMARK  status: ('A' for Active; 'I' for Inactive)
REMARK    1  A    between atoms: C_1  and  O_2
REMARK    2  A    between atoms: O_2  and  C_3
REMARK    3  A    between atoms: C_3  and  C_4
REMARK    4  A    between atoms: C_4  and  C_5
REMARK    5  A    between atoms: C_4  and  C_6
REMARK    6  A    between atoms: C_4  and  N_7
REMARK    7  A    between atoms: C_15  and  C_16
REMARK    8  A    between atoms: C_19  and  C_20
REMARK    9  A    between atoms: C_23  and  O_24
REMARK   10  A    between atoms: O_24  and  C_25
REMARK   11  A    between atoms: C_28  and  C_29
REMARK                            x       y       z     vdW  Elec       q    Type
REMARK                         _______ _______ _______ _____ _____    ______ ____
ROOT
ATOM      1  N   UNL     1       3.259   6.287  19.293  0.00  0.00    +0.000 N 
ATOM      2  C   UNL     1       3.159   7.230  18.305  0.00  0.00    +0.000 C 
ATOM      3  O   UNL     1       3.779   7.149  17.247  0.00  0.00    +0.000 OA
ATOM      4  N   UNL     1       2.285   8.275  18.564  0.00  0.00    +0.000 N 
ATOM      5  C   UNL     1       2.063   9.248  17.502  0.00  0.00    +0.000 C 
ATOM      6  C   UNL     1       1.926  10.656  18.062  0.00  0.00    +0.000 C 
ATOM      7  N   UNL     1       1.132  10.723  19.276  0.00  0.00    +0.000 N 
ATOM      8  C   UNL     1       0.810   9.603  19.997  0.00  0.00    +0.000 A 
ATOM      9  C   UNL     1       0.125   9.998  21.155  0.00  0.00    +0.000 A 
ATOM     10  C   UNL     1       0.093  11.455  21.130  0.00  0.00    +0.000 A 
ATOM     11  C   UNL     1       0.784  11.855  19.976  0.00  0.00    +0.000 A 
ATOM     12  C   UNL     1       1.227   8.223  19.563  0.00  0.00    +0.000 C 
ATOM     13  H   UNL     1       3.054   6.585  20.234  0.00  0.00    +0.000 HD
ENDROOT
BRANCH  10  14
ATOM     14  C   UNL     1      -0.566  12.409  22.061  0.00  0.00    +0.000 A 
ATOM     15  C   UNL     1      -0.034  13.668  22.342  0.00  0.00    +0.000 A 
ATOM     16  C   UNL     1      -0.640  14.532  23.266  0.00  0.00    +0.000 A 
ATOM     17  C   UNL     1      -1.855  14.204  23.857  0.00  0.00    +0.000 A 
ATOM     18  C   UNL     1      -2.422  12.967  23.578  0.00  0.00    +0.000 A 
ATOM     19  C   UNL     1      -1.754  12.068  22.734  0.00  0.00    +0.000 A 
BRANCH  17  20
ATOM     20  O   UNL     1      -2.368  15.124  24.725  0.00  0.00    +0.000 OA
ATOM     21  C   UNL     1      -1.449  15.623  25.693  0.00  0.00    +0.000 C 
ENDBRANCH  17  20
ENDBRANCH  10  14
BRANCH   9  22
ATOM     22  C   UNL     1      -0.391   9.057  22.157  0.00  0.00    +0.000 C 
ATOM     23  N   UNL     1      -0.134   9.348  23.470  0.00  0.00    +0.000 N 
ATOM     24  O   UNL     1      -1.053   8.052  21.915  0.00  0.00    +0.000 OA
ATOM     25  H   UNL     1       0.591   9.991  23.743  0.00  0.00    +0.000 HD
ATOM     26  H   UNL     1      -0.426   8.640  24.131  0.00  0.00    +0.000 HD
ENDBRANCH   9  22
BRANCH   1  27
ATOM     27  C   UNL     1       4.114   5.083  19.236  0.00  0.00    +0.000 C 
ATOM     28  C   UNL     1       5.612   5.428  19.366  0.00  0.00    +0.000 C 
ATOM     29  C   UNL     1       3.849   4.336  17.921  0.00  0.00    +0.000 C 
BRANCH  27  30
ATOM     30  C   UNL     1       3.718   4.143  20.415  0.00  0.00    +0.000 C 
BRANCH  30  32
ATOM     31  C   UNL     1       1.785   2.777  20.495  0.00  0.00    +0.000 C 
ATOM     32  O   UNL     1       2.291   4.105  20.561  0.00  0.00    +0.000 OA
ENDBRANCH  30  32
ENDBRANCH  27  30
ENDBRANCH   1  27
BRANCH  11  33
ATOM     33  C   UNL     1       1.117  13.318  19.613  0.00  0.00    +0.000 C 
ATOM     34  C   UNL     1       1.612  13.840  18.287  0.00  0.00    +0.000 C 
ATOM     35  C   UNL     1       0.172  14.003  18.643  0.00  0.00    +0.000 C 
ENDBRANCH  11  33
TORSDOF 7
ENDMDL
MODEL 3
REMARK VINA RESULT:      -6.4      0.973      1.691
REMARK  Name = 
REMARK  11 active torsions:
REMARK  status: ('A' for Active; 'I' for Inactive)
REMARK    1  A    between atoms: C_1  and  O_2
REMARK    2  A    between atoms: O_2  and  C_3
REMARK    3  A    between atoms: C_3  and  C_4
REMARK    4  A    between atoms: C_4  and  C_5
REMARK    5  A    between atoms: C_4  and  C_6
REMARK    6  A    between atoms: C_4  and  N_7
REMARK    7  A    between atoms: C_15  and  C_16
REMARK    8  A    between atoms: C_19  and  C_20
REMARK    9  A    between atoms: C_23  and  O_24
REMARK   10  A    between atoms: O_24  and  C_25
REMARK   11  A    between atoms: C_28  and  C_29
REMARK                            x       y       z     vdW  Elec       q    Type
REMARK                         _______ _______ _______ _____ _____    ______ ____
ROOT
ATOM      1  N   UNL     1       3.315   6.284  19.219  0.00  0.00    +0.000 N 
ATOM      2  C   UNL     1       3.214   7.236  18.240  0.00  0.00    +0.000 C 
ATOM      3  O   UNL     1       3.842   7.172  17.185  0.00  0.00    +0.000 OA
ATOM      4  N   UNL     1       2.328   8.271  18.503  0.00  0.00    +0.000 N 
ATOM      5  C   UNL     1       2.104   9.252  17.449  0.00  0.00    +0.000 C 
ATOM      6  C   UNL     1       1.949  10.653  18.022  0.00  0.00    +0.000 C 
ATOM      7  N   UNL     1       1.146  10.700  19.231  0.00  0.00    +0.000 N 
ATOM      8  C   UNL     1       0.830   9.570  19.939  0.00  0.00    +0.000 A 
ATOM      9  C   UNL     1       0.133   9.947  21.095  0.00  0.00    +0.000 A 
ATOM     10  C   UNL     1       0.087  11.403  21.085  0.00  0.00    +0.000 A 
ATOM     11  C   UNL     1       0.783  11.821  19.940  0.00  0.00    +0.000 A 
ATOM     12  C   UNL     1       1.263   8.198  19.494  0.00  0.00    +0.000 C 
ATOM     13  H   UNL     1       3.100   6.571  20.161  0.00  0.00    +0.000 HD
ENDROOT
BRANCH  10  14
ATOM     14  C   UNL     1      -0.589  12.341  22.020  0.00  0.00    +0.000 A 
ATOM     15  C   UNL     1      -1.815  12.047  22.618  0.00  0.00    +0.000 A 
ATOM     16  C   UNL     1      -2.465  12.969  23.453  0.00  0.00    +0.000 A 
ATOM     17  C   UNL     1      -1.854  14.170  23.798  0.00  0.00    +0.000 A 
ATOM     18  C   UNL     1      -0.623  14.480  23.237  0.00  0.00    +0.000 A 
ATOM     19  C   UNL     1      -0.031  13.598  22.321  0.00  0.00    +0.000 A 
BRANCH  17  20
ATOM     20  O   UNL     1      -2.564  14.985  24.633  0.00  0.00    +0.000 OA
ATOM     21  C   UNL     1      -3.730  15.571  24.061  0.00  0.00    +0.000 C 
ENDBRANCH  17  20
ENDBRANCH  10  14
BRANCH   9  22
ATOM     22  C   UNL     1      -0.382   8.990  22.084  0.00  0.00    +0.000 C 
ATOM     23  N   UNL     1      -0.210   9.311  23.403  0.00  0.00    +0.000 N 
ATOM     24  O   UNL     1      -0.974   7.947  21.824  0.00  0.00    +0.000 OA
ATOM     25  H   UNL     1       0.464   9.998  23.703  0.00  0.00    +0.000 HD
ATOM     26  H   UNL     1      -0.496   8.597  24.059  0.00  0.00    +0.000 HD
ENDBRANCH   9  22
BRANCH   1  27
ATOM     27  C   UNL     1       4.182   5.089  19.156  0.00  0.00    +0.000 C 
ATOM     28  C   UNL     1       5.671   5.441  19.348  0.00  0.00    +0.000 C 
ATOM     29  C   UNL     1       3.968   4.380  17.812  0.00  0.00    +0.000 C 
BRANCH  27  30
ATOM     30  C   UNL     1       3.754   4.112  20.293  0.00  0.00    +0.000 C 
BRANCH  30  32
ATOM     31  C   UNL     1       1.816   3.427  21.469  0.00  0.00    +0.000 C 
ATOM     32  O   UNL     1       2.345   3.852  20.218  0.00  0.00    +0.000 OA
ENDBRANCH  30  32
ENDBRANCH  27  30
ENDBRANCH   1  27
BRANCH  11  33
ATOM     33  C   UNL     1       1.104  13.291  19.594  0.00  0.00    +0.000 C 
ATOM     34  C   UNL     1       1.504  13.846  18.250  0.00  0.00    +0.000 C 
ATOM     35  C   UNL     1       0.096  14.013  18.718  0.00  0.00    +0.000 C 
ENDBRANCH  11  33
TORSDOF 7
ENDMDL
MODEL 4
REMARK VINA RESULT:      -6.4      1.868      2.546
REMARK  Name = 
REMARK  11 active torsions:
REMARK  status: ('A' for Active; 'I' for Inactive)
REMARK    1  A    between atoms: C_1  and  O_2
REMARK    2  A    between atoms: O_2  and  C_3
REMARK    3  A    between atoms: C_3  and  C_4
REMARK    4  A    between atoms: C_4  and  C_5
REMARK    5  A    between atoms: C_4  and  C_6
REMARK    6  A    between atoms: C_4  and  N_7
REMARK    7  A    between atoms: C_15  and  C_16
REMARK    8  A    between atoms: C_19  and  C_20
REMARK    9  A    between atoms: C_23  and  O_24
REMARK   10  A    between atoms: O_24  and  C_25
REMARK   11  A    between atoms: C_28  and  C_29
REMARK                            x       y       z     vdW  Elec       q    Type
REMARK                         _______ _______ _______ _____ _____    ______ ____
ROOT
ATOM      1  N   UNL     1       2.135   7.005  19.670  0.00  0.00    +0.000 N 
ATOM      2  C   UNL     1       2.314   7.860  18.615  0.00  0.00    +0.000 C 
ATOM      3  O   UNL     1       2.849   7.513  17.564  0.00  0.00    +0.000 OA
ATOM      4  N   UNL     1       1.823   9.145  18.797  0.00  0.00    +0.000 N 
ATOM      5  C   UNL     1       1.893  10.061  17.667  0.00  0.00    +0.000 C 
ATOM      6  C   UNL     1       2.224  11.475  18.121  0.00  0.00    +0.000 C 
ATOM      7  N   UNL     1       1.523  11.875  19.329  0.00  0.00    +0.000 N 
ATOM      8  C   UNL     1       0.882  10.969  20.132  0.00  0.00    +0.000 A 
ATOM      9  C   UNL     1       0.387  11.640  21.258  0.00  0.00    +0.000 A 
ATOM     10  C   UNL     1       0.817  13.026  21.126  0.00  0.00    +0.000 A 
ATOM     11  C   UNL     1       1.570  13.105  19.944  0.00  0.00    +0.000 A 
ATOM     12  C   UNL     1       0.829   9.500  19.800  0.00  0.00    +0.000 C 
ATOM     13  H   UNL     1       2.059   7.418  20.586  0.00  0.00    +0.000 HD
ENDROOT
BRANCH  10  14
ATOM     14  C   UNL     1       0.518  14.203  21.985  0.00  0.00    +0.000 A 
ATOM     15  C   UNL     1      -0.706  14.360  22.637  0.00  0.00    +0.000 A 
ATOM     16  C   UNL     1      -0.992  15.505  23.396  0.00  0.00    +0.000 A 
ATOM     17  C   UNL     1      -0.020  16.476  23.613  0.00  0.00    +0.000 A 
ATOM     18  C   UNL     1       1.216  16.334  22.996  0.00  0.00    +0.000 A 
ATOM     19  C   UNL     1       1.454  15.239  22.153  0.00  0.00    +0.000 A 
BRANCH  17  20
ATOM     20  O   UNL     1      -0.396  17.538  24.385  0.00  0.00    +0.000 OA
ATOM     21  C   UNL     1      -1.087  17.202  25.584  0.00  0.00    +0.000 C 
ENDBRANCH  17  20
ENDBRANCH  10  14
BRANCH   9  22
ATOM     22  C   UNL     1      -0.375  10.984  22.329  0.00  0.00    +0.000 C 
ATOM     23  N   UNL     1      -1.717  11.247  22.384  0.00  0.00    +0.000 N 
ATOM     24  O   UNL     1       0.086  10.202  23.154  0.00  0.00    +0.000 OA
ATOM     25  H   UNL     1      -2.125  12.044  21.922  0.00  0.00    +0.000 HD
ATOM     26  H   UNL     1      -2.200  10.852  23.180  0.00  0.00    +0.000 HD
ENDBRANCH   9  22
BRANCH   1  27
ATOM     27  C   UNL     1       2.563   5.592  19.700  0.00  0.00    +0.000 C 
ATOM     28  C   UNL     1       4.091   5.444  19.557  0.00  0.00    +0.000 C 
ATOM     29  C   UNL     1       1.843   4.821  18.584  0.00  0.00    +0.000 C 
BRANCH  27  30
ATOM     30  C   UNL     1       2.133   4.977  21.067  0.00  0.00    +0.000 C 
BRANCH  30  32
ATOM     31  C   UNL     1       1.541   2.735  21.546  0.00  0.00    +0.000 C 
ATOM     32  O   UNL     1       1.177   3.928  20.860  0.00  0.00    +0.000 OA
ENDBRANCH  30  32
ENDBRANCH  27  30
ENDBRANCH   1  27
BRANCH  11  33
ATOM     33  C   UNL     1       2.340  14.357  19.472  0.00  0.00    +0.000 C 
ATOM     34  C   UNL     1       2.869  14.636  18.088  0.00  0.00    +0.000 C 
ATOM     35  C   UNL     1       1.600  15.287  18.529  0.00  0.00    +0.000 C 
ENDBRANCH  11  33
TORSDOF 7
ENDMDL
MODEL 5
REMARK VINA RESULT:      -6.3      0.705      1.106
REMARK  Name = 
REMARK  11 active torsions:
REMARK  status: ('A' for Active; 'I' for Inactive)
REMARK    1  A    between atoms: C_1  and  O_2
REMARK    2  A    between atoms: O_2  and  C_3
REMARK    3  A    between atoms: C_3  and  C_4
REMARK    4  A    between atoms: C_4  and  C_5
REMARK    5  A    between atoms: C_4  and  C_6
REMARK    6  A    between atoms: C_4  and  N_7
REMARK    7  A    between atoms: C_15  and  C_16
REMARK    8  A    between atoms: C_19  and  C_20
REMARK    9  A    between atoms: C_23  and  O_24
REMARK   10  A    between atoms: O_24  and  C_25
REMARK   11  A    between atoms: C_28  and  C_29
REMARK                            x       y       z     vdW  Elec       q    Type
REMARK                         _______ _______ _______ _____ _____    ______ ____
ROOT
ATOM      1  N   UNL     1       3.276   6.277  19.271  0.00  0.00    +0.000 N 
ATOM      2  C   UNL     1       3.176   7.221  18.284  0.00  0.00    +0.000 C 
ATOM      3  O   UNL     1       3.795   7.140  17.225  0.00  0.00    +0.000 OA
ATOM      4  N   UNL     1       2.303   8.267  18.544  0.00  0.00    +0.000 N 
ATOM      5  C   UNL     1       2.081   9.241  17.484  0.00  0.00    +0.000 C 
ATOM      6  C   UNL     1       1.946  10.649  18.045  0.00  0.00    +0.000 C 
ATOM      7  N   UNL     1       1.153  10.715  19.260  0.00  0.00    +0.000 N 
ATOM      8  C   UNL     1       0.830   9.595  19.980  0.00  0.00    +0.000 A 
ATOM      9  C   UNL     1       0.146   9.989  21.138  0.00  0.00    +0.000 A 
ATOM     10  C   UNL     1       0.115  11.446  21.116  0.00  0.00    +0.000 A 
ATOM     11  C   UNL     1       0.806  11.846  19.962  0.00  0.00    +0.000 A 
ATOM     12  C   UNL     1       1.246   8.214  19.544  0.00  0.00    +0.000 C 
ATOM     13  H   UNL     1       3.071   6.574  20.212  0.00  0.00    +0.000 HD
ENDROOT
BRANCH  10  14
ATOM     14  C   UNL     1      -0.543  12.399  22.048  0.00  0.00    +0.000 A 
ATOM     15  C   UNL     1      -1.743  12.103  22.696  0.00  0.00    +0.000 A 
ATOM     16  C   UNL     1      -2.379  13.038  23.527  0.00  0.00    +0.000 A 
ATOM     17  C   UNL     1      -1.777  14.257  23.818  0.00  0.00    +0.000 A 
ATOM     18  C   UNL     1      -0.570  14.570  23.206  0.00  0.00    +0.000 A 
ATOM     19  C   UNL     1       0.004  13.672  22.295  0.00  0.00    +0.000 A 
BRANCH  17  20
ATOM     20  O   UNL     1      -2.471  15.084  24.655  0.00  0.00    +0.000 OA
ATOM     21  C   UNL     1      -3.857  15.223  24.357  0.00  0.00    +0.000 C 
ENDBRANCH  17  20
ENDBRANCH  10  14
BRANCH   9  22
ATOM     22  C   UNL     1      -0.371   9.047  22.140  0.00  0.00    +0.000 C 
ATOM     23  N   UNL     1      -0.116   9.338  23.453  0.00  0.00    +0.000 N 
ATOM     24  O   UNL     1      -1.031   8.042  21.897  0.00  0.00    +0.000 OA
ATOM     25  H   UNL     1       0.608   9.982  23.727  0.00  0.00    +0.000 HD
ATOM     26  H   UNL     1      -0.407   8.630  24.114  0.00  0.00    +0.000 HD
ENDBRANCH   9  22
BRANCH   1  27
ATOM     27  C   UNL     1       4.130   5.073  19.212  0.00  0.00    +0.000 C 
ATOM     28  C   UNL     1       3.752   4.039  20.291  0.00  0.00    +0.000 C 
ATOM     29  C   UNL     1       5.601   5.488  19.360  0.00  0.00    +0.000 C 
BRANCH  27  30
ATOM     30  C   UNL     1       3.953   4.413  17.810  0.00  0.00    +0.000 C 
BRANCH  30  32
ATOM     31  C   UNL     1       5.284   4.184  15.865  0.00  0.00    +0.000 C 
ATOM     32  O   UNL     1       5.228   4.028  17.279  0.00  0.00    +0.000 OA
ENDBRANCH  30  32
ENDBRANCH  27  30
ENDBRANCH   1  27
BRANCH  11  33
ATOM     33  C   UNL     1       1.140  13.310  19.600  0.00  0.00    +0.000 C 
ATOM     34  C   UNL     1       1.622  13.834  18.271  0.00  0.00    +0.000 C 
ATOM     35  C   UNL     1       0.187  14.001  18.644  0.00  0.00    +0.000 C 
ENDBRANCH  11  33
TORSDOF 7
ENDMDL
MODEL 6
REMARK VINA RESULT:      -6.2      1.682      1.996
REMARK  Name = 
REMARK  11 active torsions:
REMARK  status: ('A' for Active; 'I' for Inactive)
REMARK    1  A    between atoms: C_1  and  O_2
REMARK    2  A    between atoms: O_2  and  C_3
REMARK    3  A    between atoms: C_3  and  C_4
REMARK    4  A    between atoms: C_4  and  C_5
REMARK    5  A    between atoms: C_4  and  C_6
REMARK    6  A    between atoms: C_4  and  N_7
REMARK    7  A    between atoms: C_15  and  C_16
REMARK    8  A    between atoms: C_19  and  C_20
REMARK    9  A    between atoms: C_23  and  O_24
REMARK   10  A    between atoms: O_24  and  C_25
REMARK   11  A    between atoms: C_28  and  C_29
REMARK                            x       y       z     vdW  Elec       q    Type
REMARK                         _______ _______ _______ _____ _____    ______ ____
ROOT
ATOM      1  N   UNL     1       2.105   6.946  19.703  0.00  0.00    +0.000 N 
ATOM      2  C   UNL     1       2.295   7.780  18.634  0.00  0.00    +0.000 C 
ATOM      3  O   UNL     1       2.819   7.406  17.587  0.00  0.00    +0.000 OA
ATOM      4  N   UNL     1       1.827   9.077  18.797  0.00  0.00    +0.000 N 
ATOM      5  C   UNL     1       1.909   9.972  17.651  0.00  0.00    +0.000 C 
ATOM      6  C   UNL     1       2.267  11.388  18.080  0.00  0.00    +0.000 C 
ATOM      7  N   UNL     1       1.579  11.820  19.284  0.00  0.00    +0.000 N 
ATOM      8  C   UNL     1       0.924  10.939  20.104  0.00  0.00    +0.000 A 
ATOM      9  C   UNL     1       0.446  11.638  21.221  0.00  0.00    +0.000 A 
ATOM     10  C   UNL     1       0.901  13.013  21.065  0.00  0.00    +0.000 A 
ATOM     11  C   UNL     1       1.650  13.059  19.879  0.00  0.00    +0.000 A 
ATOM     12  C   UNL     1       0.844   9.466  19.797  0.00  0.00    +0.000 C 
ATOM     13  H   UNL     1       2.040   7.376  20.613  0.00  0.00    +0.000 HD
ENDROOT
BRANCH  10  14
ATOM     14  C   UNL     1       0.626  14.209  21.905  0.00  0.00    +0.000 A 
ATOM     15  C   UNL     1      -0.640  14.481  22.427  0.00  0.00    +0.000 A 
ATOM     16  C   UNL     1      -0.893  15.644  23.169  0.00  0.00    +0.000 A 
ATOM     17  C   UNL     1       0.139  16.515  23.502  0.00  0.00    +0.000 A 
ATOM     18  C   UNL     1       1.414  16.258  23.017  0.00  0.00    +0.000 A 
ATOM     19  C   UNL     1       1.634  15.149  22.187  0.00  0.00    +0.000 A 
BRANCH  17  20
ATOM     20  O   UNL     1      -0.213  17.605  24.246  0.00  0.00    +0.000 OA
ATOM     21  C   UNL     1      -1.562  18.036  24.089  0.00  0.00    +0.000 C 
ENDBRANCH  17  20
ENDBRANCH  10  14
BRANCH   9  22
ATOM     22  C   UNL     1      -0.323  11.013  22.305  0.00  0.00    +0.000 C 
ATOM     23  N   UNL     1      -1.667  11.272  22.339  0.00  0.00    +0.000 N 
ATOM     24  O   UNL     1       0.133  10.261  23.160  0.00  0.00    +0.000 OA
ATOM     25  H   UNL     1      -2.074  12.051  21.848  0.00  0.00    +0.000 HD
ATOM     26  H   UNL     1      -2.155  10.900  23.143  0.00  0.00    +0.000 HD
ENDBRANCH   9  22
BRANCH   1  27
ATOM     27  C   UNL     1       2.508   5.526  19.755  0.00  0.00    +0.000 C 
ATOM     28  C   UNL     1       1.858   4.696  18.630  0.00  0.00    +0.000 C 
ATOM     29  C   UNL     1       2.140   4.946  21.129  0.00  0.00    +0.000 C 
BRANCH  27  30
ATOM     30  C   UNL     1       4.057   5.449  19.597  0.00  0.00    +0.000 C 
BRANCH  30  32
ATOM     31  C   UNL     1       5.643   4.892  17.929  0.00  0.00    +0.000 C 
ATOM     32  O   UNL     1       4.403   4.547  18.536  0.00  0.00    +0.000 OA
ENDBRANCH  30  32
ENDBRANCH  27  30
ENDBRANCH   1  27
BRANCH  11  33
ATOM     33  C   UNL     1       2.440  14.289  19.384  0.00  0.00    +0.000 C 
ATOM     34  C   UNL     1       2.853  14.600  17.967  0.00  0.00    +0.000 C 
ATOM     35  C   UNL     1       1.668  15.295  18.550  0.00  0.00    +0.000 C 
ENDBRANCH  11  33
TORSDOF 7
ENDMDL
MODEL 7
REMARK VINA RESULT:      -6.2      6.068      8.598
REMARK  Name = 
REMARK  11 active torsions:
REMARK  status: ('A' for Active; 'I' for Inactive)
REMARK    1  A    between atoms: C_1  and  O_2
REMARK    2  A    between atoms: O_2  and  C_3
REMARK    3  A    between atoms: C_3  and  C_4
REMARK    4  A    between atoms: C_4  and  C_5
REMARK    5  A    between atoms: C_4  and  C_6
REMARK    6  A    between atoms: C_4  and  N_7
REMARK    7  A    between atoms: C_15  and  C_16
REMARK    8  A    between atoms: C_19  and  C_20
REMARK    9  A    between atoms: C_23  and  O_24
REMARK   10  A    between atoms: O_24  and  C_25
REMARK   11  A    between atoms: C_28  and  C_29
REMARK                            x       y       z     vdW  Elec       q    Type
REMARK                         _______ _______ _______ _____ _____    ______ ____
ROOT
ATOM      1  N   UNL     1      -5.301  12.050  19.690  0.00  0.00    +0.000 N 
ATOM      2  C   UNL     1      -6.159  12.524  20.646  0.00  0.00    +0.000 C 
ATOM      3  O   UNL     1      -7.381  12.494  20.514  0.00  0.00    +0.000 OA
ATOM      4  N   UNL     1      -5.558  13.016  21.796  0.00  0.00    +0.000 N 
ATOM      5  C   UNL     1      -6.429  13.434  22.886  0.00  0.00    +0.000 C 
ATOM      6  C   UNL     1      -5.887  14.673  23.583  0.00  0.00    +0.000 C 
ATOM      7  N   UNL     1      -4.449  14.644  23.782  0.00  0.00    +0.000 N 
ATOM      8  C   UNL     1      -3.643  13.744  23.135  0.00  0.00    +0.000 A 
ATOM      9  C   UNL     1      -2.308  14.025  23.458  0.00  0.00    +0.000 A 
ATOM     10  C   UNL     1      -2.337  15.206  24.311  0.00  0.00    +0.000 A 
ATOM     11  C   UNL     1      -3.683  15.585  24.431  0.00  0.00    +0.000 A 
ATOM     12  C   UNL     1      -4.196  12.700  22.200  0.00  0.00    +0.000 C 
ATOM     13  H   UNL     1      -4.371  12.436  19.677  0.00  0.00    +0.000 HD
ENDROOT
BRANCH  10  14
ATOM     14  C   UNL     1      -1.226  15.904  25.010  0.00  0.00    +0.000 A 
ATOM     15  C   UNL     1      -0.321  16.728  24.340  0.00  0.00    +0.000 A 
ATOM     16  C   UNL     1       0.756  17.332  25.006  0.00  0.00    +0.000 A 
ATOM     17  C   UNL     1       0.896  17.215  26.385  0.00  0.00    +0.000 A 
ATOM     18  C   UNL     1      -0.004  16.421  27.083  0.00  0.00    +0.000 A 
ATOM     19  C   UNL     1      -1.014  15.736  26.391  0.00  0.00    +0.000 A 
BRANCH  17  20
ATOM     20  O   UNL     1       1.966  17.859  26.936  0.00  0.00    +0.000 OA
ATOM     21  C   UNL     1       2.922  17.015  27.570  0.00  0.00    +0.000 C 
ENDBRANCH  17  20
ENDBRANCH  10  14
BRANCH   9  22
ATOM     22  C   UNL     1      -1.167  13.247  22.957  0.00  0.00    +0.000 C 
ATOM     23  N   UNL     1      -1.203  11.895  23.162  0.00  0.00    +0.000 N 
ATOM     24  O   UNL     1      -0.205  13.706  22.350  0.00  0.00    +0.000 OA
ATOM     25  H   UNL     1      -1.808  11.473  23.848  0.00  0.00    +0.000 HD
ATOM     26  H   UNL     1      -0.368  11.396  22.884  0.00  0.00    +0.000 HD
ENDBRANCH   9  22
BRANCH   1  27
ATOM     27  C   UNL     1      -5.710  11.469  18.394  0.00  0.00    +0.000 C 
ATOM     28  C   UNL     1      -6.139  12.551  17.382  0.00  0.00    +0.000 C 
ATOM     29  C   UNL     1      -6.852  10.469  18.625  0.00  0.00    +0.000 C 
BRANCH  27  30
ATOM     30  C   UNL     1      -4.497  10.690  17.801  0.00  0.00    +0.000 C 
BRANCH  30  32
ATOM     31  C   UNL     1      -2.316  11.456  17.288  0.00  0.00    +0.000 C 
ATOM     32  O   UNL     1      -3.702  11.558  16.982  0.00  0.00    +0.000 OA
ENDBRANCH  30  32
ENDBRANCH  27  30
ENDBRANCH   1  27
BRANCH  11  33
ATOM     33  C   UNL     1      -4.177  16.867  25.136  0.00  0.00    +0.000 C 
ATOM     34  C   UNL     1      -3.518  18.223  25.133  0.00  0.00    +0.000 C 
ATOM     35  C   UNL     1      -4.685  17.978  24.235  0.00  0.00    +0.000 C 
ENDBRANCH  11  33
TORSDOF 7
ENDMDL
MODEL 8
REMARK VINA RESULT:      -6.1      1.807      2.480
REMARK  Name = 
REMARK  11 active torsions:
REMARK  status: ('A' for Active; 'I' for Inactive)
REMARK    1  A    between atoms: C_1  and  O_2
REMARK    2  A    between atoms: O_2  and  C_3
REMARK    3  A    between atoms: C_3  and  C_4
REMARK    4  A    between atoms: C_4  and  C_5
REMARK    5  A    between atoms: C_4  and  C_6
REMARK    6  A    between atoms: C_4  and  N_7
REMARK    7  A    between atoms: C_15  and  C_16
REMARK    8  A    between atoms: C_19  and  C_20
REMARK    9  A    between atoms: C_23  and  O_24
REMARK   10  A    between atoms: O_24  and  C_25
REMARK   11  A    between atoms: C_28  and  C_29
REMARK                            x       y       z     vdW  Elec       q    Type
REMARK                         _______ _______ _______ _____ _____    ______ ____
ROOT
ATOM      1  N   UNL     1       2.153   6.946  19.745  0.00  0.00    +0.000 N 
ATOM      2  C   UNL     1       2.333   7.778  18.672  0.00  0.00    +0.000 C 
ATOM      3  O   UNL     1       2.863   7.406  17.627  0.00  0.00    +0.000 OA
ATOM      4  N   UNL     1       1.851   9.069  18.830  0.00  0.00    +0.000 N 
ATOM      5  C   UNL     1       1.923   9.961  17.681  0.00  0.00    +0.000 C 
ATOM      6  C   UNL     1       2.264  11.383  18.104  0.00  0.00    +0.000 C 
ATOM      7  N   UNL     1       1.570  11.812  19.306  0.00  0.00    +0.000 N 
ATOM      8  C   UNL     1       0.925  10.926  20.129  0.00  0.00    +0.000 A 
ATOM      9  C   UNL     1       0.438  11.624  21.243  0.00  0.00    +0.000 A 
ATOM     10  C   UNL     1       0.876  13.004  21.081  0.00  0.00    +0.000 A 
ATOM     11  C   UNL     1       1.626  13.054  19.895  0.00  0.00    +0.000 A 
ATOM     12  C   UNL     1       0.862   9.452  19.828  0.00  0.00    +0.000 C 
ATOM     13  H   UNL     1       2.082   7.379  20.653  0.00  0.00    +0.000 HD
ENDROOT
BRANCH  10  14
ATOM     14  C   UNL     1       0.587  14.200  21.916  0.00  0.00    +0.000 A 
ATOM     15  C   UNL     1       1.533  15.201  22.143  0.00  0.00    +0.000 A 
ATOM     16  C   UNL     1       1.261  16.292  22.981  0.00  0.00    +0.000 A 
ATOM     17  C   UNL     1      -0.004  16.470  23.530  0.00  0.00    +0.000 A 
ATOM     18  C   UNL     1      -0.973  15.503  23.302  0.00  0.00    +0.000 A 
ATOM     19  C   UNL     1      -0.658  14.362  22.551  0.00  0.00    +0.000 A 
BRANCH  17  20
ATOM     20  O   UNL     1      -0.167  17.577  24.313  0.00  0.00    +0.000 OA
ATOM     21  C   UNL     1      -0.687  17.327  25.615  0.00  0.00    +0.000 C 
ENDBRANCH  17  20
ENDBRANCH  10  14
BRANCH   9  22
ATOM     22  C   UNL     1      -0.325  10.994  22.329  0.00  0.00    +0.000 C 
ATOM     23  N   UNL     1      -1.671  11.241  22.363  0.00  0.00    +0.000 N 
ATOM     24  O   UNL     1       0.139  10.249  23.185  0.00  0.00    +0.000 OA
ATOM     25  H   UNL     1      -2.086  12.015  21.870  0.00  0.00    +0.000 HD
ATOM     26  H   UNL     1      -2.156  10.866  23.168  0.00  0.00    +0.000 HD
ENDBRANCH   9  22
BRANCH   1  27
ATOM     27  C   UNL     1       2.572   5.531  19.803  0.00  0.00    +0.000 C 
ATOM     28  C   UNL     1       2.141   4.851  21.118  0.00  0.00    +0.000 C 
ATOM     29  C   UNL     1       4.096   5.448  19.631  0.00  0.00    +0.000 C 
BRANCH  27  30
ATOM     30  C   UNL     1       1.909   4.773  18.613  0.00  0.00    +0.000 C 
BRANCH  30  32
ATOM     31  C   UNL     1       2.327   2.553  17.904  0.00  0.00    +0.000 C 
ATOM     32  O   UNL     1       2.850   3.872  18.013  0.00  0.00    +0.000 OA
ENDBRANCH  30  32
ENDBRANCH  27  30
ENDBRANCH   1  27
BRANCH  11  33
ATOM     33  C   UNL     1       2.402  14.291  19.396  0.00  0.00    +0.000 C 
ATOM     34  C   UNL     1       2.865  14.572  17.988  0.00  0.00    +0.000 C 
ATOM     35  C   UNL     1       1.638  15.249  18.501  0.00  0.00    +0.000 C 
ENDBRANCH  11  33
TORSDOF 7
ENDMDL
MODEL 9
REMARK VINA RESULT:      -6.1      5.579      8.795
REMARK  Name = 
REMARK  11 active torsions:
REMARK  status: ('A' for Active; 'I' for Inactive)
REMARK    1  A    between atoms: C_1  and  O_2
REMARK    2  A    between atoms: O_2  and  C_3
REMARK    3  A    between atoms: C_3  and  C_4
REMARK    4  A    between atoms: C_4  and  C_5
REMARK    5  A    between atoms: C_4  and  C_6
REMARK    6  A    between atoms: C_4  and  N_7
REMARK    7  A    between atoms: C_15  and  C_16
REMARK    8  A    between atoms: C_19  and  C_20
REMARK    9  A    between atoms: C_23  and  O_24
REMARK   10  A    between atoms: O_24  and  C_25
REMARK   11  A    between atoms: C_28  and  C_29
REMARK                            x       y       z     vdW  Elec       q    Type
REMARK                         _______ _______ _______ _____ _____    ______ ____
ROOT
ATOM      1  N   UNL     1      -5.437  12.240  20.010  0.00  0.00    +0.000 N 
ATOM      2  C   UNL     1      -5.217  12.843  21.220  0.00  0.00    +0.000 C 
ATOM      3  O   UNL     1      -6.102  12.983  22.061  0.00  0.00    +0.000 OA
ATOM      4  N   UNL     1      -3.914  13.261  21.451  0.00  0.00    +0.000 N 
ATOM      5  C   UNL     1      -3.605  13.811  22.763  0.00  0.00    +0.000 C 
ATOM      6  C   UNL     1      -2.625  14.971  22.660  0.00  0.00    +0.000 C 
ATOM      7  N   UNL     1      -1.555  14.742  21.705  0.00  0.00    +0.000 N 
ATOM      8  C   UNL     1      -1.606  13.729  20.783  0.00  0.00    +0.000 A 
ATOM      9  C   UNL     1      -0.483  13.824  19.951  0.00  0.00    +0.000 A 
ATOM     10  C   UNL     1       0.247  15.009  20.386  0.00  0.00    +0.000 A 
ATOM     11  C   UNL     1      -0.493  15.575  21.436  0.00  0.00    +0.000 A 
ATOM     12  C   UNL     1      -2.759  12.762  20.719  0.00  0.00    +0.000 C 
ATOM     13  H   UNL     1      -4.820  12.492  19.254  0.00  0.00    +0.000 HD
ENDROOT
BRANCH  10  14
ATOM     14  C   UNL     1       1.548  15.552  19.917  0.00  0.00    +0.000 A 
ATOM     15  C   UNL     1       1.649  16.412  18.822  0.00  0.00    +0.000 A 
ATOM     16  C   UNL     1       2.891  16.869  18.358  0.00  0.00    +0.000 A 
ATOM     17  C   UNL     1       4.063  16.564  19.043  0.00  0.00    +0.000 A 
ATOM     18  C   UNL     1       3.992  15.729  20.150  0.00  0.00    +0.000 A 
ATOM     19  C   UNL     1       2.756  15.192  20.542  0.00  0.00    +0.000 A 
BRANCH  17  20
ATOM     20  O   UNL     1       5.215  17.076  18.519  0.00  0.00    +0.000 OA
ATOM     21  C   UNL     1       6.314  17.145  19.422  0.00  0.00    +0.000 C 
ENDBRANCH  17  20
ENDBRANCH  10  14
BRANCH   9  22
ATOM     22  C   UNL     1      -0.198  12.887  18.856  0.00  0.00    +0.000 C 
ATOM     23  N   UNL     1      -0.913  13.050  17.700  0.00  0.00    +0.000 N 
ATOM     24  O   UNL     1       0.643  11.994  18.884  0.00  0.00    +0.000 OA
ATOM     25  H   UNL     1      -1.772  13.576  17.672  0.00  0.00    +0.000 HD
ATOM     26  H   UNL     1      -0.759  12.340  16.996  0.00  0.00    +0.000 HD
ENDBRANCH   9  22
BRANCH   1  27
ATOM     27  C   UNL     1      -6.736  11.706  19.550  0.00  0.00    +0.000 C 
ATOM     28  C   UNL     1      -7.775  12.822  19.322  0.00  0.00    +0.000 C 
ATOM     29  C   UNL     1      -7.257  10.690  20.577  0.00  0.00    +0.000 C 
BRANCH  27  30
ATOM     30  C   UNL     1      -6.509  10.957  18.201  0.00  0.00    +0.000 C 
BRANCH  30  32
ATOM     31  C   UNL     1      -4.676  11.391  16.767  0.00  0.00    +0.000 C 
ATOM     32  O   UNL     1      -5.941  11.847  17.230  0.00  0.00    +0.000 OA
ENDBRANCH  30  32
ENDBRANCH  27  30
ENDBRANCH   1  27
BRANCH  11  33
ATOM     33  C   UNL     1      -0.167  16.922  22.115  0.00  0.00    +0.000 C 
ATOM     34  C   UNL     1      -0.510  17.342  23.523  0.00  0.00    +0.000 C 
ATOM     35  C   UNL     1       0.878  16.887  23.215  0.00  0.00    +0.000 C 
ENDBRANCH  11  33
TORSDOF 7
ENDMDL
