MODEL 1
REMARK VINA RESULT:      -7.7      0.000      0.000
REMARK  Name = 
REMARK  10 active torsions:
REMARK  status: ('A' for Active; 'I' for Inactive)
REMARK    1  A    between atoms: C_1  and  O_2
REMARK    2  A    between atoms: O_2  and  C_3
REMARK    3  A    between atoms: C_8  and  N_9
REMARK    4  A    between atoms: C_10  and  C_12
REMARK    5  A    between atoms: C_12  and  C_13
REMARK    6  A    between atoms: C_16  and  C_17
REMARK    7  A    between atoms: C_17  and  S_18
REMARK    8  A    between atoms: S_18  and  C_19
REMARK    9  A    between atoms: C_22  and  C_23
REMARK   10  A    between atoms: N_24  and  C_25
REMARK                            x       y       z     vdW  Elec       q    Type
REMARK                         _______ _______ _______ _____ _____    ______ ____
ROOT
ATOM      1  C   UNL     1       7.337   6.019  17.577  0.00  0.00    +0.000 A 
ATOM      2  N   UNL     1       7.926   6.057  18.780  0.00  0.00    +0.000 NA
ATOM      3  O   UNL     1       8.334   7.385  18.901  0.00  0.00    +0.000 OA
ATOM      4  C   UNL     1       7.980   8.009  17.738  0.00  0.00    +0.000 A 
ATOM      5  N   UNL     1       7.373   7.205  16.884  0.00  0.00    +0.000 NA
ENDROOT
BRANCH   1   6
ATOM      6  C   UNL     1       6.767   4.778  17.011  0.00  0.00    +0.000 C 
BRANCH   6   8
ATOM      7  N   UNL     1       5.114   4.607  18.816  0.00  0.00    +0.000 N 
ATOM      8  C   UNL     1       5.335   4.562  17.446  0.00  0.00    +0.000 C 
ATOM      9  O   UNL     1       4.459   4.432  16.590  0.00  0.00    +0.000 OA
ATOM     10  H   UNL     1       5.881   4.872  19.430  0.00  0.00    +0.000 HD
BRANCH   7  16
ATOM     11  C   UNL     1       3.002   5.385  19.785  0.00  0.00    +0.000 A 
ATOM     12  C   UNL     1       1.822   5.116  20.496  0.00  0.00    +0.000 A 
ATOM     13  C   UNL     1       1.495   3.814  20.870  0.00  0.00    +0.000 A 
ATOM     14  C   UNL     1       2.350   2.768  20.553  0.00  0.00    +0.000 A 
ATOM     15  C   UNL     1       3.543   3.027  19.872  0.00  0.00    +0.000 A 
ATOM     16  C   UNL     1       3.889   4.328  19.482  0.00  0.00    +0.000 A 
BRANCH  11  18
ATOM     17  C   UNL     1       2.247   7.489  19.003  0.00  0.00    +0.000 C 
ATOM     18  O   UNL     1       3.349   6.648  19.357  0.00  0.00    +0.000 OA
ENDBRANCH  11  18
ENDBRANCH   7  16
ENDBRANCH   6   8
ENDBRANCH   1   6
BRANCH   4  19
ATOM     19  C   UNL     1       8.248   9.468  17.650  0.00  0.00    +0.000 C 
BRANCH  19  20
ATOM     20  S   UNL     1       9.061  10.104  19.158  0.00  0.00    +0.000 S 
BRANCH  20  21
ATOM     21  C   UNL     1      10.139  11.271  18.471  0.00  0.00    +0.000 A 
ATOM     22  N   UNL     1      11.444  11.172  18.404  0.00  0.00    +0.000 NA
ATOM     23  N   UNL     1      11.917  12.316  17.801  0.00  0.00    +0.000 NA
ATOM     24  C   UNL     1      10.888  13.084  17.507  0.00  0.00    +0.000 A 
ATOM     25  C   UNL     1      10.948  14.416  16.861  0.00  0.00    +0.000 C 
ATOM     26  N   UNL     1       9.734  12.454  17.910  0.00  0.00    +0.000 N 
ATOM     27  C   UNL     1       8.387  12.936  17.765  0.00  0.00    +0.000 C 
ENDBRANCH  20  21
ENDBRANCH  19  20
ENDBRANCH   4  19
TORSDOF 7
ENDMDL
MODEL 2
REMARK VINA RESULT:      -7.6      1.411      2.120
REMARK  Name = 
REMARK  10 active torsions:
REMARK  status: ('A' for Active; 'I' for Inactive)
REMARK    1  A    between atoms: C_1  and  O_2
REMARK    2  A    between atoms: O_2  and  C_3
REMARK    3  A    between atoms: C_8  and  N_9
REMARK    4  A    between atoms: C_10  and  C_12
REMARK    5  A    between atoms: C_12  and  C_13
REMARK    6  A    between atoms: C_16  and  C_17
REMARK    7  A    between atoms: C_17  and  S_18
REMARK    8  A    between atoms: S_18  and  C_19
REMARK    9  A    between atoms: C_22  and  C_23
REMARK   10  A    between atoms: N_24  and  C_25
REMARK                            x       y       z     vdW  Elec       q    Type
REMARK                         _______ _______ _______ _____ _____    ______ ____
ROOT
ATOM      1  C   UNL     1       7.382   6.707  17.700  0.00  0.00    +0.000 A 
ATOM      2  N   UNL     1       8.122   6.583  18.810  0.00  0.00    +0.000 NA
ATOM      3  O   UNL     1       8.639   7.864  19.001  0.00  0.00    +0.000 OA
ATOM      4  C   UNL     1       8.187   8.626  17.961  0.00  0.00    +0.000 A 
ATOM      5  N   UNL     1       7.417   7.955  17.125  0.00  0.00    +0.000 NA
ENDROOT
BRANCH   1   6
ATOM      6  C   UNL     1       6.652   5.570  17.101  0.00  0.00    +0.000 C 
BRANCH   6   8
ATOM      7  N   UNL     1       4.998   5.148  18.863  0.00  0.00    +0.000 N 
ATOM      8  C   UNL     1       5.207   5.527  17.543  0.00  0.00    +0.000 C 
ATOM      9  O   UNL     1       4.327   5.884  16.760  0.00  0.00    +0.000 OA
ATOM     10  H   UNL     1       5.802   5.020  19.472  0.00  0.00    +0.000 HD
BRANCH   7  16
ATOM     11  C   UNL     1       3.271   3.604  19.660  0.00  0.00    +0.000 A 
ATOM     12  C   UNL     1       2.002   3.387  20.221  0.00  0.00    +0.000 A 
ATOM     13  C   UNL     1       1.216   4.458  20.644  0.00  0.00    +0.000 A 
ATOM     14  C   UNL     1       1.682   5.757  20.499  0.00  0.00    +0.000 A 
ATOM     15  C   UNL     1       2.931   5.987  19.915  0.00  0.00    +0.000 A 
ATOM     16  C   UNL     1       3.739   4.925  19.486  0.00  0.00    +0.000 A 
BRANCH  11  18
ATOM     17  C   UNL     1       3.550   1.701  18.278  0.00  0.00    +0.000 C 
ATOM     18  O   UNL     1       4.101   2.578  19.265  0.00  0.00    +0.000 OA
ENDBRANCH  11  18
ENDBRANCH   7  16
ENDBRANCH   6   8
ENDBRANCH   1   6
BRANCH   4  19
ATOM     19  C   UNL     1       8.551  10.067  17.977  0.00  0.00    +0.000 C 
BRANCH  19  20
ATOM     20  S   UNL     1       9.456  10.526  19.496  0.00  0.00    +0.000 S 
BRANCH  20  21
ATOM     21  C   UNL     1      10.430  11.828  18.906  0.00  0.00    +0.000 A 
ATOM     22  N   UNL     1      10.967  11.914  17.713  0.00  0.00    +0.000 NA
ATOM     23  N   UNL     1      11.672  13.095  17.658  0.00  0.00    +0.000 NA
ATOM     24  C   UNL     1      11.544  13.707  18.817  0.00  0.00    +0.000 A 
ATOM     25  C   UNL     1      12.154  15.004  19.193  0.00  0.00    +0.000 C 
ATOM     26  N   UNL     1      10.755  12.939  19.641  0.00  0.00    +0.000 N 
ATOM     27  C   UNL     1      10.351  13.244  20.987  0.00  0.00    +0.000 C 
ENDBRANCH  20  21
ENDBRANCH  19  20
ENDBRANCH   4  19
TORSDOF 7
ENDMDL
MODEL 3
REMARK VINA RESULT:      -7.5      1.521      2.440
REMARK  Name = 
REMARK  10 active torsions:
REMARK  status: ('A' for Active; 'I' for Inactive)
REMARK    1  A    between atoms: C_1  and  O_2
REMARK    2  A    between atoms: O_2  and  C_3
REMARK    3  A    between atoms: C_8  and  N_9
REMARK    4  A    between atoms: C_10  and  C_12
REMARK    5  A    between atoms: C_12  and  C_13
REMARK    6  A    between atoms: C_16  and  C_17
REMARK    7  A    between atoms: C_17  and  S_18
REMARK    8  A    between atoms: S_18  and  C_19
REMARK    9  A    between atoms: C_22  and  C_23
REMARK   10  A    between atoms: N_24  and  C_25
REMARK                            x       y       z     vdW  Elec       q    Type
REMARK                         _______ _______ _______ _____ _____    ______ ____
ROOT
ATOM      1  C   UNL     1       7.161   6.871  17.589  0.00  0.00    +0.000 A 
ATOM      2  N   UNL     1       7.953   6.589  18.632  0.00  0.00    +0.000 NA
ATOM      3  O   UNL     1       8.622   7.789  18.868  0.00  0.00    +0.000 OA
ATOM      4  C   UNL     1       8.191   8.669  17.914  0.00  0.00    +0.000 A 
ATOM      5  N   UNL     1       7.298   8.145  17.094  0.00  0.00    +0.000 NA
ENDROOT
BRANCH   1   6
ATOM      6  C   UNL     1       6.272   5.864  16.972  0.00  0.00    +0.000 C 
BRANCH   6   8
ATOM      7  N   UNL     1       4.628   4.852  18.487  0.00  0.00    +0.000 N 
ATOM      8  C   UNL     1       4.890   5.876  17.585  0.00  0.00    +0.000 C 
ATOM      9  O   UNL     1       4.120   6.799  17.317  0.00  0.00    +0.000 OA
ATOM     10  H   UNL     1       5.384   4.227  18.755  0.00  0.00    +0.000 HD
BRANCH   7  16
ATOM     11  C   UNL     1       2.640   3.440  18.722  0.00  0.00    +0.000 A 
ATOM     12  C   UNL     1       1.380   3.204  19.296  0.00  0.00    +0.000 A 
ATOM     13  C   UNL     1       0.871   4.055  20.275  0.00  0.00    +0.000 A 
ATOM     14  C   UNL     1       1.606   5.160  20.680  0.00  0.00    +0.000 A 
ATOM     15  C   UNL     1       2.848   5.423  20.094  0.00  0.00    +0.000 A 
ATOM     16  C   UNL     1       3.381   4.578  19.111  0.00  0.00    +0.000 A 
BRANCH  11  18
ATOM     17  C   UNL     1       3.698   1.364  18.295  0.00  0.00    +0.000 C 
ATOM     18  O   UNL     1       3.204   2.606  17.782  0.00  0.00    +0.000 OA
ENDBRANCH  11  18
ENDBRANCH   7  16
ENDBRANCH   6   8
ENDBRANCH   1   6
BRANCH   4  19
ATOM     19  C   UNL     1       8.713  10.057  17.997  0.00  0.00    +0.000 C 
BRANCH  19  20
ATOM     20  S   UNL     1       9.334  10.455  19.669  0.00  0.00    +0.000 S 
BRANCH  20  21
ATOM     21  C   UNL     1       9.760  12.119  19.464  0.00  0.00    +0.000 A 
ATOM     22  N   UNL     1       8.926  13.116  19.295  0.00  0.00    +0.000 NA
ATOM     23  N   UNL     1       9.672  14.264  19.157  0.00  0.00    +0.000 NA
ATOM     24  C   UNL     1      10.946  13.943  19.251  0.00  0.00    +0.000 A 
ATOM     25  C   UNL     1      12.093  14.875  19.145  0.00  0.00    +0.000 C 
ATOM     26  N   UNL     1      11.049  12.586  19.454  0.00  0.00    +0.000 N 
ATOM     27  C   UNL     1      12.256  11.824  19.627  0.00  0.00    +0.000 C 
ENDBRANCH  20  21
ENDBRANCH  19  20
ENDBRANCH   4  19
TORSDOF 7
ENDMDL
MODEL 4
REMARK VINA RESULT:      -7.4      1.206      2.080
REMARK  Name = 
REMARK  10 active torsions:
REMARK  status: ('A' for Active; 'I' for Inactive)
REMARK    1  A    between atoms: C_1  and  O_2
REMARK    2  A    between atoms: O_2  and  C_3
REMARK    3  A    between atoms: C_8  and  N_9
REMARK    4  A    between atoms: C_10  and  C_12
REMARK    5  A    between atoms: C_12  and  C_13
REMARK    6  A    between atoms: C_16  and  C_17
REMARK    7  A    between atoms: C_17  and  S_18
REMARK    8  A    between atoms: S_18  and  C_19
REMARK    9  A    between atoms: C_22  and  C_23
REMARK   10  A    between atoms: N_24  and  C_25
REMARK                            x       y       z     vdW  Elec       q    Type
REMARK                         _______ _______ _______ _____ _____    ______ ____
ROOT
ATOM      1  C   UNL     1       7.434   6.210  17.737  0.00  0.00    +0.000 A 
ATOM      2  N   UNL     1       7.115   6.955  16.671  0.00  0.00    +0.000 NA
ATOM      3  O   UNL     1       7.644   8.208  16.979  0.00  0.00    +0.000 OA
ATOM      4  C   UNL     1       8.200   8.101  18.223  0.00  0.00    +0.000 A 
ATOM      5  N   UNL     1       8.085   6.890  18.738  0.00  0.00    +0.000 NA
ENDROOT
BRANCH   1   6
ATOM      6  C   UNL     1       7.044   4.789  17.858  0.00  0.00    +0.000 C 
BRANCH   6   8
ATOM      7  N   UNL     1       5.071   4.722  19.315  0.00  0.00    +0.000 N 
ATOM      8  C   UNL     1       5.550   4.622  18.015  0.00  0.00    +0.000 C 
ATOM      9  O   UNL     1       4.851   4.483  17.010  0.00  0.00    +0.000 OA
ATOM     10  H   UNL     1       5.712   4.990  20.057  0.00  0.00    +0.000 HD
BRANCH   7  16
ATOM     11  C   UNL     1       3.247   3.174  19.844  0.00  0.00    +0.000 A 
ATOM     12  C   UNL     1       1.908   2.954  20.205  0.00  0.00    +0.000 A 
ATOM     13  C   UNL     1       1.064   4.023  20.500  0.00  0.00    +0.000 A 
ATOM     14  C   UNL     1       1.543   5.323  20.423  0.00  0.00    +0.000 A 
ATOM     15  C   UNL     1       2.865   5.557  20.036  0.00  0.00    +0.000 A 
ATOM     16  C   UNL     1       3.733   4.496  19.739  0.00  0.00    +0.000 A 
BRANCH  11  18
ATOM     17  C   UNL     1       3.773   1.308  18.483  0.00  0.00    +0.000 C 
ATOM     18  O   UNL     1       4.131   2.150  19.584  0.00  0.00    +0.000 OA
ENDBRANCH  11  18
ENDBRANCH   7  16
ENDBRANCH   6   8
ENDBRANCH   1   6
BRANCH   4  19
ATOM     19  C   UNL     1       8.898   9.302  18.751  0.00  0.00    +0.000 C 
BRANCH  19  20
ATOM     20  S   UNL     1       8.204  10.849  18.073  0.00  0.00    +0.000 S 
BRANCH  20  21
ATOM     21  C   UNL     1       9.637  11.807  17.930  0.00  0.00    +0.000 A 
ATOM     22  N   UNL     1      10.858  11.354  17.781  0.00  0.00    +0.000 NA
ATOM     23  N   UNL     1      11.701  12.440  17.724  0.00  0.00    +0.000 NA
ATOM     24  C   UNL     1      10.975  13.533  17.835  0.00  0.00    +0.000 A 
ATOM     25  C   UNL     1      11.483  14.925  17.837  0.00  0.00    +0.000 C 
ATOM     26  N   UNL     1       9.652  13.177  17.961  0.00  0.00    +0.000 N 
ATOM     27  C   UNL     1       8.524  14.060  18.090  0.00  0.00    +0.000 C 
ENDBRANCH  20  21
ENDBRANCH  19  20
ENDBRANCH   4  19
TORSDOF 7
ENDMDL
MODEL 5
REMARK VINA RESULT:      -7.4      1.704      2.487
REMARK  Name = 
REMARK  10 active torsions:
REMARK  status: ('A' for Active; 'I' for Inactive)
REMARK    1  A    between atoms: C_1  and  O_2
REMARK    2  A    between atoms: O_2  and  C_3
REMARK    3  A    between atoms: C_8  and  N_9
REMARK    4  A    between atoms: C_10  and  C_12
REMARK    5  A    between atoms: C_12  and  C_13
REMARK    6  A    between atoms: C_16  and  C_17
REMARK    7  A    between atoms: C_17  and  S_18
REMARK    8  A    between atoms: S_18  and  C_19
REMARK    9  A    between atoms: C_22  and  C_23
REMARK   10  A    between atoms: N_24  and  C_25
REMARK                            x       y       z     vdW  Elec       q    Type
REMARK                         _______ _______ _______ _____ _____    ______ ____
ROOT
ATOM      1  C   UNL     1       7.307   6.345  17.619  0.00  0.00    +0.000 A 
ATOM      2  N   UNL     1       6.986   7.263  16.697  0.00  0.00    +0.000 NA
ATOM      3  O   UNL     1       7.604   8.423  17.164  0.00  0.00    +0.000 OA
ATOM      4  C   UNL     1       8.207   8.094  18.346  0.00  0.00    +0.000 A 
ATOM      5  N   UNL     1       8.042   6.826  18.675  0.00  0.00    +0.000 NA
ENDROOT
BRANCH   1   6
ATOM      6  C   UNL     1       6.837   4.946  17.543  0.00  0.00    +0.000 C 
BRANCH   6   8
ATOM      7  N   UNL     1       5.016   4.676  19.166  0.00  0.00    +0.000 N 
ATOM      8  C   UNL     1       5.356   4.829  17.828  0.00  0.00    +0.000 C 
ATOM      9  O   UNL     1       4.553   4.942  16.901  0.00  0.00    +0.000 OA
ATOM     10  H   UNL     1       5.746   4.747  19.871  0.00  0.00    +0.000 HD
BRANCH   7  16
ATOM     11  C   UNL     1       3.247   3.109  19.813  0.00  0.00    +0.000 A 
ATOM     12  C   UNL     1       1.939   2.875  20.266  0.00  0.00    +0.000 A 
ATOM     13  C   UNL     1       1.109   3.935  20.626  0.00  0.00    +0.000 A 
ATOM     14  C   UNL     1       1.570   5.240  20.524  0.00  0.00    +0.000 A 
ATOM     15  C   UNL     1       2.860   5.487  20.046  0.00  0.00    +0.000 A 
ATOM     16  C   UNL     1       3.714   4.436  19.682  0.00  0.00    +0.000 A 
BRANCH  11  18
ATOM     17  C   UNL     1       3.745   1.323  18.338  0.00  0.00    +0.000 C 
ATOM     18  O   UNL     1       4.120   2.094  19.485  0.00  0.00    +0.000 OA
ENDBRANCH  11  18
ENDBRANCH   7  16
ENDBRANCH   6   8
ENDBRANCH   1   6
BRANCH   4  19
ATOM     19  C   UNL     1       9.001   9.159  19.013  0.00  0.00    +0.000 C 
BRANCH  19  20
ATOM     20  S   UNL     1       8.874  10.756  18.135  0.00  0.00    +0.000 S 
BRANCH  20  21
ATOM     21  C   UNL     1       9.475  11.835  19.347  0.00  0.00    +0.000 A 
ATOM     22  N   UNL     1       9.462  11.629  20.641  0.00  0.00    +0.000 NA
ATOM     23  N   UNL     1      10.017  12.734  21.245  0.00  0.00    +0.000 NA
ATOM     24  C   UNL     1      10.364  13.588  20.304  0.00  0.00    +0.000 A 
ATOM     25  C   UNL     1      10.986  14.916  20.514  0.00  0.00    +0.000 C 
ATOM     26  N   UNL     1      10.043  13.053  19.078  0.00  0.00    +0.000 N 
ATOM     27  C   UNL     1      10.266  13.647  17.787  0.00  0.00    +0.000 C 
ENDBRANCH  20  21
ENDBRANCH  19  20
ENDBRANCH   4  19
TORSDOF 7
ENDMDL
MODEL 6
REMARK VINA RESULT:      -7.4      4.569      7.465
REMARK  Name = 
REMARK  10 active torsions:
REMARK  status: ('A' for Active; 'I' for Inactive)
REMARK    1  A    between atoms: C_1  and  O_2
REMARK    2  A    between atoms: O_2  and  C_3
REMARK    3  A    between atoms: C_8  and  N_9
REMARK    4  A    between atoms: C_10  and  C_12
REMARK    5  A    between atoms: C_12  and  C_13
REMARK    6  A    between atoms: C_16  and  C_17
REMARK    7  A    between atoms: C_17  and  S_18
REMARK    8  A    between atoms: S_18  and  C_19
REMARK    9  A    between atoms: C_22  and  C_23
REMARK   10  A    between atoms: N_24  and  C_25
REMARK                            x       y       z     vdW  Elec       q    Type
REMARK                         _______ _______ _______ _____ _____    ______ ____
ROOT
ATOM      1  C   UNL     1       2.228   7.506  18.620  0.00  0.00    +0.000 A 
ATOM      2  N   UNL     1       2.302   7.296  19.941  0.00  0.00    +0.000 NA
ATOM      3  O   UNL     1       2.473   5.916  20.042  0.00  0.00    +0.000 OA
ATOM      4  C   UNL     1       2.447   5.426  18.766  0.00  0.00    +0.000 A 
ATOM      5  N   UNL     1       2.286   6.367  17.854  0.00  0.00    +0.000 NA
ENDROOT
BRANCH   1   6
ATOM      6  C   UNL     1       2.019   8.850  18.041  0.00  0.00    +0.000 C 
BRANCH   6   8
ATOM      7  N   UNL     1       1.301  10.043  20.062  0.00  0.00    +0.000 N 
ATOM      8  C   UNL     1       0.954   9.628  18.782  0.00  0.00    +0.000 C 
ATOM      9  O   UNL     1      -0.100   9.903  18.208  0.00  0.00    +0.000 OA
ATOM     10  H   UNL     1       2.253   9.895  20.386  0.00  0.00    +0.000 HD
BRANCH   7  16
ATOM     11  C   UNL     1       0.246  12.083  20.915  0.00  0.00    +0.000 A 
ATOM     12  C   UNL     1      -0.548  12.728  21.876  0.00  0.00    +0.000 A 
ATOM     13  C   UNL     1      -1.174  12.001  22.888  0.00  0.00    +0.000 A 
ATOM     14  C   UNL     1      -1.001  10.627  22.960  0.00  0.00    +0.000 A 
ATOM     15  C   UNL     1      -0.188   9.977  22.026  0.00  0.00    +0.000 A 
ATOM     16  C   UNL     1       0.447  10.688  20.998  0.00  0.00    +0.000 A 
BRANCH  11  18
ATOM     17  C   UNL     1      -0.049  13.384  18.957  0.00  0.00    +0.000 C 
ATOM     18  O   UNL     1       0.851  12.751  19.872  0.00  0.00    +0.000 OA
ENDBRANCH  11  18
ENDBRANCH   7  16
ENDBRANCH   6   8
ENDBRANCH   1   6
BRANCH   4  19
ATOM     19  C   UNL     1       2.681   3.967  18.603  0.00  0.00    +0.000 C 
BRANCH  19  20
ATOM     20  S   UNL     1       4.026   3.621  17.415  0.00  0.00    +0.000 S 
BRANCH  20  21
ATOM     21  C   UNL     1       5.334   4.476  18.156  0.00  0.00    +0.000 A 
ATOM     22  N   UNL     1       5.842   4.238  19.341  0.00  0.00    +0.000 NA
ATOM     23  N   UNL     1       6.851   5.149  19.553  0.00  0.00    +0.000 NA
ATOM     24  C   UNL     1       6.941   5.920  18.489  0.00  0.00    +0.000 A 
ATOM     25  C   UNL     1       7.889   7.044  18.301  0.00  0.00    +0.000 C 
ATOM     26  N   UNL     1       5.998   5.522  17.570  0.00  0.00    +0.000 N 
ATOM     27  C   UNL     1       5.766   6.084  16.267  0.00  0.00    +0.000 C 
ENDBRANCH  20  21
ENDBRANCH  19  20
ENDBRANCH   4  19
TORSDOF 7
ENDMDL
MODEL 7
REMARK VINA RESULT:      -7.3      1.970      2.718
REMARK  Name = 
REMARK  10 active torsions:
REMARK  status: ('A' for Active; 'I' for Inactive)
REMARK    1  A    between atoms: C_1  and  O_2
REMARK    2  A    between atoms: O_2  and  C_3
REMARK    3  A    between atoms: C_8  and  N_9
REMARK    4  A    between atoms: C_10  and  C_12
REMARK    5  A    between atoms: C_12  and  C_13
REMARK    6  A    between atoms: C_16  and  C_17
REMARK    7  A    between atoms: C_17  and  S_18
REMARK    8  A    between atoms: S_18  and  C_19
REMARK    9  A    between atoms: C_22  and  C_23
REMARK   10  A    between atoms: N_24  and  C_25
REMARK                            x       y       z     vdW  Elec       q    Type
REMARK                         _______ _______ _______ _____ _____    ______ ____
ROOT
ATOM      1  C   UNL     1       7.364   6.700  17.703  0.00  0.00    +0.000 A 
ATOM      2  N   UNL     1       8.209   6.715  18.742  0.00  0.00    +0.000 NA
ATOM      3  O   UNL     1       8.584   8.054  18.838  0.00  0.00    +0.000 OA
ATOM      4  C   UNL     1       7.953   8.710  17.819  0.00  0.00    +0.000 A 
ATOM      5  N   UNL     1       7.198   7.915  17.082  0.00  0.00    +0.000 NA
ENDROOT
BRANCH   1   6
ATOM      6  C   UNL     1       6.726   5.459  17.215  0.00  0.00    +0.000 C 
BRANCH   6   8
ATOM      7  N   UNL     1       4.406   5.209  17.974  0.00  0.00    +0.000 N 
ATOM      8  C   UNL     1       5.739   4.899  18.214  0.00  0.00    +0.000 C 
ATOM      9  O   UNL     1       6.145   4.165  19.116  0.00  0.00    +0.000 OA
ATOM     10  H   UNL     1       4.160   5.695  17.115  0.00  0.00    +0.000 HD
BRANCH   7  16
ATOM     11  C   UNL     1       2.615   3.678  18.645  0.00  0.00    +0.000 A 
ATOM     12  C   UNL     1       1.489   3.400  19.438  0.00  0.00    +0.000 A 
ATOM     13  C   UNL     1       1.069   4.296  20.420  0.00  0.00    +0.000 A 
ATOM     14  C   UNL     1       1.758   5.486  20.610  0.00  0.00    +0.000 A 
ATOM     15  C   UNL     1       2.862   5.787  19.807  0.00  0.00    +0.000 A 
ATOM     16  C   UNL     1       3.304   4.899  18.817  0.00  0.00    +0.000 A 
BRANCH  11  18
ATOM     17  C   UNL     1       3.548   1.547  18.197  0.00  0.00    +0.000 C 
ATOM     18  O   UNL     1       3.093   2.807  17.691  0.00  0.00    +0.000 OA
ENDBRANCH  11  18
ENDBRANCH   7  16
ENDBRANCH   6   8
ENDBRANCH   1   6
BRANCH   4  19
ATOM     19  C   UNL     1       8.142  10.182  17.750  0.00  0.00    +0.000 C 
BRANCH  19  20
ATOM     20  S   UNL     1       9.796  10.687  18.337  0.00  0.00    +0.000 S 
BRANCH  20  21
ATOM     21  C   UNL     1       9.377  11.523  19.792  0.00  0.00    +0.000 A 
ATOM     22  N   UNL     1       9.311  11.000  20.992  0.00  0.00    +0.000 NA
ATOM     23  N   UNL     1       8.930  11.998  21.861  0.00  0.00    +0.000 NA
ATOM     24  C   UNL     1       8.779  13.110  21.171  0.00  0.00    +0.000 A 
ATOM     25  C   UNL     1       8.362  14.425  21.713  0.00  0.00    +0.000 C 
ATOM     26  N   UNL     1       9.061  12.856  19.849  0.00  0.00    +0.000 N 
ATOM     27  C   UNL     1       9.035  13.795  18.760  0.00  0.00    +0.000 C 
ENDBRANCH  20  21
ENDBRANCH  19  20
ENDBRANCH   4  19
TORSDOF 7
ENDMDL
MODEL 8
REMARK VINA RESULT:      -7.3      1.455      1.744
REMARK  Name = 
REMARK  10 active torsions:
REMARK  status: ('A' for Active; 'I' for Inactive)
REMARK    1  A    between atoms: C_1  and  O_2
REMARK    2  A    between atoms: O_2  and  C_3
REMARK    3  A    between atoms: C_8  and  N_9
REMARK    4  A    between atoms: C_10  and  C_12
REMARK    5  A    between atoms: C_12  and  C_13
REMARK    6  A    between atoms: C_16  and  C_17
REMARK    7  A    between atoms: C_17  and  S_18
REMARK    8  A    between atoms: S_18  and  C_19
REMARK    9  A    between atoms: C_22  and  C_23
REMARK   10  A    between atoms: N_24  and  C_25
REMARK                            x       y       z     vdW  Elec       q    Type
REMARK                         _______ _______ _______ _____ _____    ______ ____
ROOT
ATOM      1  C   UNL     1       6.576   5.706  16.910  0.00  0.00    +0.000 A 
ATOM      2  N   UNL     1       5.978   6.783  16.383  0.00  0.00    +0.000 NA
ATOM      3  O   UNL     1       6.647   7.851  16.979  0.00  0.00    +0.000 OA
ATOM      4  C   UNL     1       7.560   7.308  17.839  0.00  0.00    +0.000 A 
ATOM      5  N   UNL     1       7.547   5.988  17.841  0.00  0.00    +0.000 NA
ENDROOT
BRANCH   1   6
ATOM      6  C   UNL     1       6.165   4.326  16.575  0.00  0.00    +0.000 C 
BRANCH   6   8
ATOM      7  N   UNL     1       4.687   4.374  18.533  0.00  0.00    +0.000 N 
ATOM      8  C   UNL     1       4.848   3.954  17.219  0.00  0.00    +0.000 C 
ATOM      9  O   UNL     1       3.990   3.380  16.547  0.00  0.00    +0.000 OA
ATOM     10  H   UNL     1       5.395   4.975  18.948  0.00  0.00    +0.000 HD
BRANCH   7  16
ATOM     11  C   UNL     1       2.453   4.888  19.397  0.00  0.00    +0.000 A 
ATOM     12  C   UNL     1       1.403   4.612  20.287  0.00  0.00    +0.000 A 
ATOM     13  C   UNL     1       1.459   3.507  21.135  0.00  0.00    +0.000 A 
ATOM     14  C   UNL     1       2.569   2.675  21.115  0.00  0.00    +0.000 A 
ATOM     15  C   UNL     1       3.634   2.957  20.254  0.00  0.00    +0.000 A 
ATOM     16  C   UNL     1       3.597   4.060  19.390  0.00  0.00    +0.000 A 
BRANCH  11  18
ATOM     17  C   UNL     1       2.537   7.238  19.110  0.00  0.00    +0.000 C 
ATOM     18  O   UNL     1       2.426   5.943  18.511  0.00  0.00    +0.000 OA
ENDBRANCH  11  18
ENDBRANCH   7  16
ENDBRANCH   6   8
ENDBRANCH   1   6
BRANCH   4  19
ATOM     19  C   UNL     1       8.456   8.255  18.552  0.00  0.00    +0.000 C 
BRANCH  19  20
ATOM     20  S   UNL     1       8.490   9.897  17.753  0.00  0.00    +0.000 S 
BRANCH  20  21
ATOM     21  C   UNL     1       9.222  10.845  19.001  0.00  0.00    +0.000 A 
ATOM     22  N   UNL     1       9.374  10.491  20.253  0.00  0.00    +0.000 NA
ATOM     23  N   UNL     1       9.986  11.534  20.911  0.00  0.00    +0.000 NA
ATOM     24  C   UNL     1      10.200  12.500  20.042  0.00  0.00    +0.000 A 
ATOM     25  C   UNL     1      10.826  13.812  20.330  0.00  0.00    +0.000 C 
ATOM     26  N   UNL     1       9.736  12.102  18.810  0.00  0.00    +0.000 N 
ATOM     27  C   UNL     1       9.788  12.847  17.581  0.00  0.00    +0.000 C 
ENDBRANCH  20  21
ENDBRANCH  19  20
ENDBRANCH   4  19
TORSDOF 7
ENDMDL
MODEL 9
REMARK VINA RESULT:      -7.2      4.534      7.514
REMARK  Name = 
REMARK  10 active torsions:
REMARK  status: ('A' for Active; 'I' for Inactive)
REMARK    1  A    between atoms: C_1  and  O_2
REMARK    2  A    between atoms: O_2  and  C_3
REMARK    3  A    between atoms: C_8  and  N_9
REMARK    4  A    between atoms: C_10  and  C_12
REMARK    5  A    between atoms: C_12  and  C_13
REMARK    6  A    between atoms: C_16  and  C_17
REMARK    7  A    between atoms: C_17  and  S_18
REMARK    8  A    between atoms: S_18  and  C_19
REMARK    9  A    between atoms: C_22  and  C_23
REMARK   10  A    between atoms: N_24  and  C_25
REMARK                            x       y       z     vdW  Elec       q    Type
REMARK                         _______ _______ _______ _____ _____    ______ ____
ROOT
ATOM      1  C   UNL     1       2.262   7.494  18.490  0.00  0.00    +0.000 A 
ATOM      2  N   UNL     1       2.267   7.592  19.826  0.00  0.00    +0.000 NA
ATOM      3  O   UNL     1       2.413   6.271  20.249  0.00  0.00    +0.000 OA
ATOM      4  C   UNL     1       2.445   5.502  19.119  0.00  0.00    +0.000 A 
ATOM      5  N   UNL     1       2.343   6.210  18.009  0.00  0.00    +0.000 NA
ENDROOT
BRANCH   1   6
ATOM      6  C   UNL     1       2.101   8.670  17.608  0.00  0.00    +0.000 C 
BRANCH   6   8
ATOM      7  N   UNL     1       0.328   9.605  19.023  0.00  0.00    +0.000 N 
ATOM      8  C   UNL     1       1.513   9.854  18.343  0.00  0.00    +0.000 C 
ATOM      9  O   UNL     1       2.129  10.920  18.358  0.00  0.00    +0.000 OA
ATOM     10  H   UNL     1      -0.020   8.650  19.074  0.00  0.00    +0.000 HD
BRANCH   7  16
ATOM     11  C   UNL     1      -0.417  10.668  21.101  0.00  0.00    +0.000 A 
ATOM     12  C   UNL     1      -1.256  11.576  21.767  0.00  0.00    +0.000 A 
ATOM     13  C   UNL     1      -2.118  12.406  21.052  0.00  0.00    +0.000 A 
ATOM     14  C   UNL     1      -2.163  12.328  19.668  0.00  0.00    +0.000 A 
ATOM     15  C   UNL     1      -1.354  11.408  18.995  0.00  0.00    +0.000 A 
ATOM     16  C   UNL     1      -0.477  10.566  19.694  0.00  0.00    +0.000 A 
BRANCH  11  18
ATOM     17  C   UNL     1       0.124   9.525  23.105  0.00  0.00    +0.000 C 
ATOM     18  O   UNL     1       0.482   9.856  21.759  0.00  0.00    +0.000 OA
ENDBRANCH  11  18
ENDBRANCH   7  16
ENDBRANCH   6   8
ENDBRANCH   1   6
BRANCH   4  19
ATOM     19  C   UNL     1       2.666   4.045  19.306  0.00  0.00    +0.000 C 
BRANCH  19  20
ATOM     20  S   UNL     1       3.947   3.398  18.175  0.00  0.00    +0.000 S 
BRANCH  20  21
ATOM     21  C   UNL     1       5.279   4.425  18.581  0.00  0.00    +0.000 A 
ATOM     22  N   UNL     1       5.916   4.449  19.725  0.00  0.00    +0.000 NA
ATOM     23  N   UNL     1       6.893   5.415  19.638  0.00  0.00    +0.000 NA
ATOM     24  C   UNL     1       6.834   5.954  18.437  0.00  0.00    +0.000 A 
ATOM     25  C   UNL     1       7.698   7.044  17.925  0.00  0.00    +0.000 C 
ATOM     26  N   UNL     1       5.824   5.349  17.727  0.00  0.00    +0.000 N 
ATOM     27  C   UNL     1       5.431   5.625  16.371  0.00  0.00    +0.000 C 
ENDBRANCH  20  21
ENDBRANCH  19  20
ENDBRANCH   4  19
TORSDOF 7
ENDMDL
