MODEL 1
REMARK VINA RESULT:      -6.8      0.000      0.000
REMARK  Name = 
REMARK  11 active torsions:
REMARK  status: ('A' for Active; 'I' for Inactive)
REMARK    1  A    between atoms: C_1  and  C_2
REMARK    2  A    between atoms: C_2  and  C_3
REMARK    3  A    between atoms: C_2  and  C_4
REMARK    4  A    between atoms: C_2  and  N_5
REMARK    5  A    between atoms: C_6  and  C_7
REMARK    6  A    between atoms: C_7  and  CA_8
REMARK    7  A    between atoms: CA_8  and  N_9
REMARK    8  A    between atoms: CA_8  and  C_10
REMARK    9  A    between atoms: C_10  and  OXT_12
REMARK   10  A    between atoms: C_15  and  C_16
REMARK   11  A    between atoms: C_16  and  C_17
REMARK                            x       y       z     vdW  Elec       q    Type
REMARK                         _______ _______ _______ _____ _____    ______ ____
ROOT
ATOM      1  N   UNL     1       5.266   4.696  17.740  0.00  0.00    +0.000 N 
ATOM      2  C   UNL     1       5.044   3.790  16.667  0.00  0.00    +0.000 A 
ATOM      3  C   UNL     1       3.803   3.250  16.925  0.00  0.00    +0.000 A 
ATOM      4  N   UNL     1       3.244   3.790  18.035  0.00  0.00    +0.000 NA
ATOM      5  C   UNL     1       4.085   4.703  18.490  0.00  0.00    +0.000 A 
ENDROOT
BRANCH   1   7
ATOM      6  C   UNL     1       6.569   6.793  17.343  0.00  0.00    +0.000 C 
ATOM      7  C   UNL     1       6.551   5.390  18.001  0.00  0.00    +0.000 C 
ATOM      8  C   UNL     1       7.704   4.473  17.500  0.00  0.00    +0.000 C 
ATOM      9  C   UNL     1       6.925   5.686  19.474  0.00  0.00    +0.000 C 
ENDBRANCH   1   7
BRANCH   2  10
ATOM     10  C   UNL     1       5.965   3.581  15.486  0.00  0.00    +0.000 C 
BRANCH  10  11
ATOM     11  CA  UNL     1       5.840   4.531  14.281  0.00  0.00    +0.000 C 
BRANCH  11  12
ATOM     12  N   UNL     1       7.051   5.370  14.020  0.00  0.00    +0.000 NA
ATOM     13  H1  UNL     1       6.996   6.203  14.617  0.00  0.00    +0.000 HD
ATOM     14  H2  UNL     1       6.984   5.738  13.070  0.00  0.00    +0.000 HD
ENDBRANCH  11  12
BRANCH  11  15
ATOM     15  C   UNL     1       5.615   3.677  13.005  0.00  0.00    +0.000 C 
ATOM     16  O   UNL     1       4.620   3.690  12.299  0.00  0.00    +0.000 OA
BRANCH  15  17
ATOM     17  OXT UNL     1       6.697   2.892  12.746  0.00  0.00    +0.000 OA
ATOM     18  HXT UNL     1       6.994   3.139  11.834  0.00  0.00    +0.000 HD
ENDBRANCH  15  17
ENDBRANCH  11  15
ENDBRANCH  10  11
ENDBRANCH   2  10
BRANCH   5  19
ATOM     19  C   UNL     1       3.661   5.656  19.571  0.00  0.00    +0.000 C 
BRANCH  19  20
ATOM     20  C   UNL     1       2.795   6.841  19.179  0.00  0.00    +0.000 A 
ATOM     21  C   UNL     1       1.997   7.449  20.167  0.00  0.00    +0.000 A 
ATOM     22  C   UNL     1       1.340   8.657  19.919  0.00  0.00    +0.000 A 
ATOM     23  C   UNL     1       1.468   9.276  18.679  0.00  0.00    +0.000 A 
ATOM     24  C   UNL     1       2.230   8.674  17.680  0.00  0.00    +0.000 A 
ATOM     25  C   UNL     1       2.892   7.467  17.929  0.00  0.00    +0.000 A 
ENDBRANCH  19  20
ENDBRANCH   5  19
TORSDOF 8
ENDMDL
MODEL 2
REMARK VINA RESULT:      -6.6      0.263      1.156
REMARK  Name = 
REMARK  11 active torsions:
REMARK  status: ('A' for Active; 'I' for Inactive)
REMARK    1  A    between atoms: C_1  and  C_2
REMARK    2  A    between atoms: C_2  and  C_3
REMARK    3  A    between atoms: C_2  and  C_4
REMARK    4  A    between atoms: C_2  and  N_5
REMARK    5  A    between atoms: C_6  and  C_7
REMARK    6  A    between atoms: C_7  and  CA_8
REMARK    7  A    between atoms: CA_8  and  N_9
REMARK    8  A    between atoms: CA_8  and  C_10
REMARK    9  A    between atoms: C_10  and  OXT_12
REMARK   10  A    between atoms: C_15  and  C_16
REMARK   11  A    between atoms: C_16  and  C_17
REMARK                            x       y       z     vdW  Elec       q    Type
REMARK                         _______ _______ _______ _____ _____    ______ ____
ROOT
ATOM      1  N   UNL     1       5.257   4.723  17.723  0.00  0.00    +0.000 N 
ATOM      2  C   UNL     1       5.026   3.869  16.611  0.00  0.00    +0.000 A 
ATOM      3  C   UNL     1       3.729   3.434  16.777  0.00  0.00    +0.000 A 
ATOM      4  N   UNL     1       3.150   3.991  17.867  0.00  0.00    +0.000 NA
ATOM      5  C   UNL     1       4.037   4.814  18.401  0.00  0.00    +0.000 A 
ENDROOT
BRANCH   1   7
ATOM      6  C   UNL     1       6.755   5.358  19.622  0.00  0.00    +0.000 C 
ATOM      7  C   UNL     1       6.579   5.294  18.084  0.00  0.00    +0.000 C 
ATOM      8  C   UNL     1       6.705   6.687  17.401  0.00  0.00    +0.000 C 
ATOM      9  C   UNL     1       7.844   4.534  17.614  0.00  0.00    +0.000 C 
ENDBRANCH   1   7
BRANCH   2  10
ATOM     10  C   UNL     1       5.997   3.610  15.481  0.00  0.00    +0.000 C 
BRANCH  10  11
ATOM     11  CA  UNL     1       6.047   4.612  14.313  0.00  0.00    +0.000 C 
BRANCH  11  12
ATOM     12  N   UNL     1       7.300   5.425  14.241  0.00  0.00    +0.000 NA
ATOM     13  H1  UNL     1       7.785   5.344  15.142  0.00  0.00    +0.000 HD
ATOM     14  H2  UNL     1       7.038   6.410  14.186  0.00  0.00    +0.000 HD
ENDBRANCH  11  12
BRANCH  11  15
ATOM     15  C   UNL     1       5.962   3.817  12.982  0.00  0.00    +0.000 C 
ATOM     16  O   UNL     1       6.909   3.430  12.316  0.00  0.00    +0.000 OA
BRANCH  15  17
ATOM     17  OXT UNL     1       4.667   3.583  12.636  0.00  0.00    +0.000 OA
ATOM     18  HXT UNL     1       4.639   2.640  12.335  0.00  0.00    +0.000 HD
ENDBRANCH  15  17
ENDBRANCH  11  15
ENDBRANCH  10  11
ENDBRANCH   2  10
BRANCH   5  19
ATOM     19  C   UNL     1       3.629   5.772  19.485  0.00  0.00    +0.000 C 
BRANCH  19  20
ATOM     20  C   UNL     1       2.766   6.961  19.100  0.00  0.00    +0.000 A 
ATOM     21  C   UNL     1       1.942   7.542  20.082  0.00  0.00    +0.000 A 
ATOM     22  C   UNL     1       1.284   8.752  19.846  0.00  0.00    +0.000 A 
ATOM     23  C   UNL     1       1.436   9.399  18.623  0.00  0.00    +0.000 A 
ATOM     24  C   UNL     1       2.225   8.824  17.630  0.00  0.00    +0.000 A 
ATOM     25  C   UNL     1       2.888   7.616  17.866  0.00  0.00    +0.000 A 
ENDBRANCH  19  20
ENDBRANCH   5  19
TORSDOF 8
ENDMDL
MODEL 3
REMARK VINA RESULT:      -6.5      3.265      4.835
REMARK  Name = 
REMARK  11 active torsions:
REMARK  status: ('A' for Active; 'I' for Inactive)
REMARK    1  A    between atoms: C_1  and  C_2
REMARK    2  A    between atoms: C_2  and  C_3
REMARK    3  A    between atoms: C_2  and  C_4
REMARK    4  A    between atoms: C_2  and  N_5
REMARK    5  A    between atoms: C_6  and  C_7
REMARK    6  A    between atoms: C_7  and  CA_8
REMARK    7  A    between atoms: CA_8  and  N_9
REMARK    8  A    between atoms: CA_8  and  C_10
REMARK    9  A    between atoms: C_10  and  OXT_12
REMARK   10  A    between atoms: C_15  and  C_16
REMARK   11  A    between atoms: C_16  and  C_17
REMARK                            x       y       z     vdW  Elec       q    Type
REMARK                         _______ _______ _______ _____ _____    ______ ____
ROOT
ATOM      1  N   UNL     1       3.928   5.205  17.502  0.00  0.00    +0.000 N 
ATOM      2  C   UNL     1       5.005   6.123  17.358  0.00  0.00    +0.000 A 
ATOM      3  C   UNL     1       4.436   7.356  17.586  0.00  0.00    +0.000 A 
ATOM      4  N   UNL     1       3.123   7.252  17.900  0.00  0.00    +0.000 NA
ATOM      5  C   UNL     1       2.828   5.963  17.915  0.00  0.00    +0.000 A 
ENDROOT
BRANCH   1   7
ATOM      6  C   UNL     1       5.091   3.495  16.098  0.00  0.00    +0.000 C 
ATOM      7  C   UNL     1       4.006   3.761  17.171  0.00  0.00    +0.000 C 
ATOM      8  C   UNL     1       2.590   3.291  16.728  0.00  0.00    +0.000 C 
ATOM      9  C   UNL     1       4.384   2.780  18.308  0.00  0.00    +0.000 C 
ENDBRANCH   1   7
BRANCH   2  10
ATOM     10  C   UNL     1       6.449   5.753  17.103  0.00  0.00    +0.000 C 
BRANCH  10  11
ATOM     11  CA  UNL     1       7.219   5.001  18.205  0.00  0.00    +0.000 C 
BRANCH  11  12
ATOM     12  N   UNL     1       8.291   4.087  17.703  0.00  0.00    +0.000 NA
ATOM     13  H1  UNL     1       9.066   4.104  18.375  0.00  0.00    +0.000 HD
ATOM     14  H2  UNL     1       8.686   4.495  16.854  0.00  0.00    +0.000 HD
ENDBRANCH  11  12
BRANCH  11  15
ATOM     15  C   UNL     1       7.922   6.046  19.111  0.00  0.00    +0.000 C 
ATOM     16  O   UNL     1       8.306   7.152  18.766  0.00  0.00    +0.000 OA
BRANCH  15  17
ATOM     17  OXT UNL     1       8.057   5.578  20.382  0.00  0.00    +0.000 OA
ATOM     18  HXT UNL     1       7.411   4.832  20.461  0.00  0.00    +0.000 HD
ENDBRANCH  15  17
ENDBRANCH  11  15
ENDBRANCH  10  11
ENDBRANCH   2  10
BRANCH   5  19
ATOM     19  C   UNL     1       1.510   5.491  18.463  0.00  0.00    +0.000 C 
BRANCH  19  20
ATOM     20  C   UNL     1       1.526   4.591  19.686  0.00  0.00    +0.000 A 
ATOM     21  C   UNL     1       0.853   3.356  19.624  0.00  0.00    +0.000 A 
ATOM     22  C   UNL     1       1.000   2.404  20.636  0.00  0.00    +0.000 A 
ATOM     23  C   UNL     1       1.819   2.672  21.729  0.00  0.00    +0.000 A 
ATOM     24  C   UNL     1       2.470   3.900  21.821  0.00  0.00    +0.000 A 
ATOM     25  C   UNL     1       2.329   4.852  20.806  0.00  0.00    +0.000 A 
ENDBRANCH  19  20
ENDBRANCH   5  19
TORSDOF 8
ENDMDL
MODEL 4
REMARK VINA RESULT:      -6.5      3.367      6.545
REMARK  Name = 
REMARK  11 active torsions:
REMARK  status: ('A' for Active; 'I' for Inactive)
REMARK    1  A    between atoms: C_1  and  C_2
REMARK    2  A    between atoms: C_2  and  C_3
REMARK    3  A    between atoms: C_2  and  C_4
REMARK    4  A    between atoms: C_2  and  N_5
REMARK    5  A    between atoms: C_6  and  C_7
REMARK    6  A    between atoms: C_7  and  CA_8
REMARK    7  A    between atoms: CA_8  and  N_9
REMARK    8  A    between atoms: CA_8  and  C_10
REMARK    9  A    between atoms: C_10  and  OXT_12
REMARK   10  A    between atoms: C_15  and  C_16
REMARK   11  A    between atoms: C_16  and  C_17
REMARK                            x       y       z     vdW  Elec       q    Type
REMARK                         _______ _______ _______ _____ _____    ______ ____
ROOT
ATOM      1  N   UNL     1       4.210   5.020  17.223  0.00  0.00    +0.000 N 
ATOM      2  C   UNL     1       3.070   4.447  17.850  0.00  0.00    +0.000 A 
ATOM      3  C   UNL     1       3.104   3.121  17.477  0.00  0.00    +0.000 A 
ATOM      4  N   UNL     1       4.191   2.843  16.719  0.00  0.00    +0.000 NA
ATOM      5  C   UNL     1       4.891   3.960  16.617  0.00  0.00    +0.000 A 
ENDROOT
BRANCH   1   7
ATOM      6  C   UNL     1       4.756   6.948  15.727  0.00  0.00    +0.000 C 
ATOM      7  C   UNL     1       4.503   6.474  17.181  0.00  0.00    +0.000 C 
ATOM      8  C   UNL     1       5.708   6.750  18.125  0.00  0.00    +0.000 C 
ATOM      9  C   UNL     1       3.407   7.446  17.683  0.00  0.00    +0.000 C 
ENDBRANCH   1   7
BRANCH   2  10
ATOM     10  C   UNL     1       2.124   5.167  18.784  0.00  0.00    +0.000 C 
BRANCH  10  11
ATOM     11  CA  UNL     1       2.472   5.221  20.284  0.00  0.00    +0.000 C 
BRANCH  11  12
ATOM     12  N   UNL     1       2.019   6.463  20.984  0.00  0.00    +0.000 NA
ATOM     13  H1  UNL     1       2.665   6.645  21.760  0.00  0.00    +0.000 HD
ATOM     14  H2  UNL     1       1.128   6.263  21.441  0.00  0.00    +0.000 HD
ENDBRANCH  11  12
BRANCH  11  15
ATOM     15  C   UNL     1       1.767   4.035  20.993  0.00  0.00    +0.000 C 
ATOM     16  O   UNL     1       2.172   3.450  21.985  0.00  0.00    +0.000 OA
BRANCH  15  17
ATOM     17  OXT UNL     1       0.601   3.716  20.369  0.00  0.00    +0.000 OA
ATOM     18  HXT UNL     1       0.442   4.441  19.714  0.00  0.00    +0.000 HD
ENDBRANCH  15  17
ENDBRANCH  11  15
ENDBRANCH  10  11
ENDBRANCH   2  10
BRANCH   5  19
ATOM     19  C   UNL     1       6.279   3.937  16.042  0.00  0.00    +0.000 C 
BRANCH  19  20
ATOM     20  C   UNL     1       6.436   4.153  14.546  0.00  0.00    +0.000 A 
ATOM     21  C   UNL     1       7.455   5.011  14.092  0.00  0.00    +0.000 A 
ATOM     22  C   UNL     1       7.777   5.093  12.735  0.00  0.00    +0.000 A 
ATOM     23  C   UNL     1       7.082   4.320  11.809  0.00  0.00    +0.000 A 
ATOM     24  C   UNL     1       6.051   3.488  12.237  0.00  0.00    +0.000 A 
ATOM     25  C   UNL     1       5.731   3.401  13.596  0.00  0.00    +0.000 A 
ENDBRANCH  19  20
ENDBRANCH   5  19
TORSDOF 8
ENDMDL
MODEL 5
REMARK VINA RESULT:      -6.5      3.577      6.891
REMARK  Name = 
REMARK  11 active torsions:
REMARK  status: ('A' for Active; 'I' for Inactive)
REMARK    1  A    between atoms: C_1  and  C_2
REMARK    2  A    between atoms: C_2  and  C_3
REMARK    3  A    between atoms: C_2  and  C_4
REMARK    4  A    between atoms: C_2  and  N_5
REMARK    5  A    between atoms: C_6  and  C_7
REMARK    6  A    between atoms: C_7  and  CA_8
REMARK    7  A    between atoms: CA_8  and  N_9
REMARK    8  A    between atoms: CA_8  and  C_10
REMARK    9  A    between atoms: C_10  and  OXT_12
REMARK   10  A    between atoms: C_15  and  C_16
REMARK   11  A    between atoms: C_16  and  C_17
REMARK                            x       y       z     vdW  Elec       q    Type
REMARK                         _______ _______ _______ _____ _____    ______ ____
ROOT
ATOM      1  N   UNL     1       4.043   5.260  17.402  0.00  0.00    +0.000 N 
ATOM      2  C   UNL     1       3.679   6.625  17.560  0.00  0.00    +0.000 A 
ATOM      3  C   UNL     1       4.708   7.325  16.970  0.00  0.00    +0.000 A 
ATOM      4  N   UNL     1       5.633   6.495  16.432  0.00  0.00    +0.000 NA
ATOM      5  C   UNL     1       5.209   5.258  16.629  0.00  0.00    +0.000 A 
ENDROOT
BRANCH   1   7
ATOM      6  C   UNL     1       1.833   4.118  17.650  0.00  0.00    +0.000 C 
ATOM      7  C   UNL     1       3.333   4.122  18.038  0.00  0.00    +0.000 C 
ATOM      8  C   UNL     1       3.560   4.211  19.575  0.00  0.00    +0.000 C 
ATOM      9  C   UNL     1       3.796   2.690  17.676  0.00  0.00    +0.000 C 
ENDBRANCH   1   7
BRANCH   2  10
ATOM     10  C   UNL     1       2.388   7.128  18.168  0.00  0.00    +0.000 C 
BRANCH  10  11
ATOM     11  CA  UNL     1       2.275   8.624  18.515  0.00  0.00    +0.000 C 
BRANCH  11  12
ATOM     12  N   UNL     1       1.554   9.448  17.496  0.00  0.00    +0.000 NA
ATOM     13  H1  UNL     1       2.161   9.542  16.674  0.00  0.00    +0.000 HD
ATOM     14  H2  UNL     1       1.471  10.399  17.857  0.00  0.00    +0.000 HD
ENDBRANCH  11  12
BRANCH  11  15
ATOM     15  C   UNL     1       1.473   8.760  19.837  0.00  0.00    +0.000 C 
ATOM     16  O   UNL     1       0.588   9.570  20.059  0.00  0.00    +0.000 OA
BRANCH  15  17
ATOM     17  OXT UNL     1       1.875   7.834  20.750  0.00  0.00    +0.000 OA
ATOM     18  HXT UNL     1       2.856   7.754  20.634  0.00  0.00    +0.000 HD
ENDBRANCH  15  17
ENDBRANCH  11  15
ENDBRANCH  10  11
ENDBRANCH   2  10
BRANCH   5  19
ATOM     19  C   UNL     1       5.883   4.104  15.944  0.00  0.00    +0.000 C 
BRANCH  19  20
ATOM     20  C   UNL     1       6.201   4.239  14.464  0.00  0.00    +0.000 A 
ATOM     21  C   UNL     1       7.315   5.009  14.080  0.00  0.00    +0.000 A 
ATOM     22  C   UNL     1       7.773   5.005  12.760  0.00  0.00    +0.000 A 
ATOM     23  C   UNL     1       7.122   4.234  11.802  0.00  0.00    +0.000 A 
ATOM     24  C   UNL     1       6.001   3.488  12.157  0.00  0.00    +0.000 A 
ATOM     25  C   UNL     1       5.545   3.487  13.479  0.00  0.00    +0.000 A 
ENDBRANCH  19  20
ENDBRANCH   5  19
TORSDOF 8
ENDMDL
MODEL 6
REMARK VINA RESULT:      -6.5      2.331      3.629
REMARK  Name = 
REMARK  11 active torsions:
REMARK  status: ('A' for Active; 'I' for Inactive)
REMARK    1  A    between atoms: C_1  and  C_2
REMARK    2  A    between atoms: C_2  and  C_3
REMARK    3  A    between atoms: C_2  and  C_4
REMARK    4  A    between atoms: C_2  and  N_5
REMARK    5  A    between atoms: C_6  and  C_7
REMARK    6  A    between atoms: C_7  and  CA_8
REMARK    7  A    between atoms: CA_8  and  N_9
REMARK    8  A    between atoms: CA_8  and  C_10
REMARK    9  A    between atoms: C_10  and  OXT_12
REMARK   10  A    between atoms: C_15  and  C_16
REMARK   11  A    between atoms: C_16  and  C_17
REMARK                            x       y       z     vdW  Elec       q    Type
REMARK                         _______ _______ _______ _____ _____    ______ ____
ROOT
ATOM      1  N   UNL     1       3.637   5.210  17.961  0.00  0.00    +0.000 N 
ATOM      2  C   UNL     1       4.558   5.360  16.888  0.00  0.00    +0.000 A 
ATOM      3  C   UNL     1       4.598   6.718  16.659  0.00  0.00    +0.000 A 
ATOM      4  N   UNL     1       3.816   7.396  17.532  0.00  0.00    +0.000 NA
ATOM      5  C   UNL     1       3.290   6.506  18.356  0.00  0.00    +0.000 A 
ENDROOT
BRANCH   1   7
ATOM      6  C   UNL     1       4.202   3.154  19.267  0.00  0.00    +0.000 C 
ATOM      7  C   UNL     1       3.122   3.907  18.450  0.00  0.00    +0.000 C 
ATOM      8  C   UNL     1       2.620   3.096  17.220  0.00  0.00    +0.000 C 
ATOM      9  C   UNL     1       1.904   3.925  19.405  0.00  0.00    +0.000 C 
ENDBRANCH   1   7
BRANCH   2  10
ATOM     10  C   UNL     1       5.353   4.245  16.248  0.00  0.00    +0.000 C 
BRANCH  10  11
ATOM     11  CA  UNL     1       6.886   4.384  16.176  0.00  0.00    +0.000 C 
BRANCH  11  12
ATOM     12  N   UNL     1       7.378   5.309  15.109  0.00  0.00    +0.000 NA
ATOM     13  H1  UNL     1       7.934   4.761  14.443  0.00  0.00    +0.000 HD
ATOM     14  H2  UNL     1       8.052   5.950  15.530  0.00  0.00    +0.000 HD
ENDBRANCH  11  12
BRANCH  11  15
ATOM     15  C   UNL     1       7.388   4.964  17.526  0.00  0.00    +0.000 C 
ATOM     16  O   UNL     1       7.401   4.380  18.597  0.00  0.00    +0.000 OA
BRANCH  15  17
ATOM     17  OXT UNL     1       7.840   6.238  17.372  0.00  0.00    +0.000 OA
ATOM     18  HXT UNL     1       7.082   6.822  17.627  0.00  0.00    +0.000 HD
ENDBRANCH  15  17
ENDBRANCH  11  15
ENDBRANCH  10  11
ENDBRANCH   2  10
BRANCH   5  19
ATOM     19  C   UNL     1       2.564   6.952  19.594  0.00  0.00    +0.000 C 
BRANCH  19  20
ATOM     20  C   UNL     1       1.739   8.226  19.518  0.00  0.00    +0.000 A 
ATOM     21  C   UNL     1       1.485   8.791  18.254  0.00  0.00    +0.000 A 
ATOM     22  C   UNL     1       0.573   9.839  18.103  0.00  0.00    +0.000 A 
ATOM     23  C   UNL     1      -0.097  10.341  19.215  0.00  0.00    +0.000 A 
ATOM     24  C   UNL     1       0.163   9.813  20.477  0.00  0.00    +0.000 A 
ATOM     25  C   UNL     1       1.072   8.761  20.629  0.00  0.00    +0.000 A 
ENDBRANCH  19  20
ENDBRANCH   5  19
TORSDOF 8
ENDMDL
MODEL 7
REMARK VINA RESULT:      -6.5      1.825      3.112
REMARK  Name = 
REMARK  11 active torsions:
REMARK  status: ('A' for Active; 'I' for Inactive)
REMARK    1  A    between atoms: C_1  and  C_2
REMARK    2  A    between atoms: C_2  and  C_3
REMARK    3  A    between atoms: C_2  and  C_4
REMARK    4  A    between atoms: C_2  and  N_5
REMARK    5  A    between atoms: C_6  and  C_7
REMARK    6  A    between atoms: C_7  and  CA_8
REMARK    7  A    between atoms: CA_8  and  N_9
REMARK    8  A    between atoms: CA_8  and  C_10
REMARK    9  A    between atoms: C_10  and  OXT_12
REMARK   10  A    between atoms: C_15  and  C_16
REMARK   11  A    between atoms: C_16  and  C_17
REMARK                            x       y       z     vdW  Elec       q    Type
REMARK                         _______ _______ _______ _____ _____    ______ ____
ROOT
ATOM      1  N   UNL     1       3.445   5.171  18.364  0.00  0.00    +0.000 N 
ATOM      2  C   UNL     1       4.423   5.462  17.374  0.00  0.00    +0.000 A 
ATOM      3  C   UNL     1       4.373   6.831  17.235  0.00  0.00    +0.000 A 
ATOM      4  N   UNL     1       3.483   7.389  18.090  0.00  0.00    +0.000 NA
ATOM      5  C   UNL     1       2.972   6.408  18.814  0.00  0.00    +0.000 A 
ENDROOT
BRANCH   1   7
ATOM      6  C   UNL     1       4.116   3.040  19.486  0.00  0.00    +0.000 C 
ATOM      7  C   UNL     1       3.000   3.803  18.729  0.00  0.00    +0.000 C 
ATOM      8  C   UNL     1       2.550   3.080  17.427  0.00  0.00    +0.000 C 
ATOM      9  C   UNL     1       1.778   3.669  19.671  0.00  0.00    +0.000 C 
ENDBRANCH   1   7
BRANCH   2  10
ATOM     10  C   UNL     1       5.345   4.455  16.724  0.00  0.00    +0.000 C 
BRANCH  10  11
ATOM     11  CA  UNL     1       6.757   4.911  16.312  0.00  0.00    +0.000 C 
BRANCH  11  12
ATOM     12  N   UNL     1       7.871   4.193  17.005  0.00  0.00    +0.000 NA
ATOM     13  H1  UNL     1       8.607   4.876  17.218  0.00  0.00    +0.000 HD
ATOM     14  H2  UNL     1       8.305   3.558  16.334  0.00  0.00    +0.000 HD
ENDBRANCH  11  12
BRANCH  11  15
ATOM     15  C   UNL     1       6.936   4.640  14.794  0.00  0.00    +0.000 C 
ATOM     16  O   UNL     1       6.347   3.793  14.143  0.00  0.00    +0.000 OA
BRANCH  15  17
ATOM     17  OXT UNL     1       7.848   5.491  14.251  0.00  0.00    +0.000 OA
ATOM     18  HXT UNL     1       8.672   4.956  14.128  0.00  0.00    +0.000 HD
ENDBRANCH  15  17
ENDBRANCH  11  15
ENDBRANCH  10  11
ENDBRANCH   2  10
BRANCH   5  19
ATOM     19  C   UNL     1       2.129   6.713  20.021  0.00  0.00    +0.000 C 
BRANCH  19  20
ATOM     20  C   UNL     1       1.511   8.096  20.129  0.00  0.00    +0.000 A 
ATOM     21  C   UNL     1       1.245   8.618  21.409  0.00  0.00    +0.000 A 
ATOM     22  C   UNL     1       0.868   9.953  21.579  0.00  0.00    +0.000 A 
ATOM     23  C   UNL     1       0.748  10.787  20.471  0.00  0.00    +0.000 A 
ATOM     24  C   UNL     1       0.979  10.280  19.195  0.00  0.00    +0.000 A 
ATOM     25  C   UNL     1       1.361   8.946  19.024  0.00  0.00    +0.000 A 
ENDBRANCH  19  20
ENDBRANCH   5  19
TORSDOF 8
ENDMDL
MODEL 8
REMARK VINA RESULT:      -6.4      0.923      1.414
REMARK  Name = 
REMARK  11 active torsions:
REMARK  status: ('A' for Active; 'I' for Inactive)
REMARK    1  A    between atoms: C_1  and  C_2
REMARK    2  A    between atoms: C_2  and  C_3
REMARK    3  A    between atoms: C_2  and  C_4
REMARK    4  A    between atoms: C_2  and  N_5
REMARK    5  A    between atoms: C_6  and  C_7
REMARK    6  A    between atoms: C_7  and  CA_8
REMARK    7  A    between atoms: CA_8  and  N_9
REMARK    8  A    between atoms: CA_8  and  C_10
REMARK    9  A    between atoms: C_10  and  OXT_12
REMARK   10  A    between atoms: C_15  and  C_16
REMARK   11  A    between atoms: C_16  and  C_17
REMARK                            x       y       z     vdW  Elec       q    Type
REMARK                         _______ _______ _______ _____ _____    ______ ____
ROOT
ATOM      1  N   UNL     1       5.080   4.764  17.804  0.00  0.00    +0.000 N 
ATOM      2  C   UNL     1       4.834   3.924  16.683  0.00  0.00    +0.000 A 
ATOM      3  C   UNL     1       3.555   3.452  16.885  0.00  0.00    +0.000 A 
ATOM      4  N   UNL     1       3.000   3.973  18.004  0.00  0.00    +0.000 NA
ATOM      5  C   UNL     1       3.882   4.810  18.523  0.00  0.00    +0.000 A 
ENDROOT
BRANCH   1   7
ATOM      6  C   UNL     1       6.626   5.404  19.662  0.00  0.00    +0.000 C 
ATOM      7  C   UNL     1       6.399   5.363  18.130  0.00  0.00    +0.000 C 
ATOM      8  C   UNL     1       6.464   6.772  17.471  0.00  0.00    +0.000 C 
ATOM      9  C   UNL     1       7.666   4.647  17.603  0.00  0.00    +0.000 C 
ENDBRANCH   1   7
BRANCH   2  10
ATOM     10  C   UNL     1       5.773   3.712  15.517  0.00  0.00    +0.000 C 
BRANCH  10  11
ATOM     11  CA  UNL     1       5.629   4.624  14.285  0.00  0.00    +0.000 C 
BRANCH  11  12
ATOM     12  N   UNL     1       5.286   6.046  14.598  0.00  0.00    +0.000 NA
ATOM     13  H1  UNL     1       6.140   6.517  14.917  0.00  0.00    +0.000 HD
ATOM     14  H2  UNL     1       4.675   6.053  15.416  0.00  0.00    +0.000 HD
ENDBRANCH  11  12
BRANCH  11  15
ATOM     15  C   UNL     1       6.988   4.655  13.536  0.00  0.00    +0.000 C 
ATOM     16  O   UNL     1       7.219   4.154  12.448  0.00  0.00    +0.000 OA
BRANCH  15  17
ATOM     17  OXT UNL     1       7.924   5.337  14.251  0.00  0.00    +0.000 OA
ATOM     18  HXT UNL     1       7.756   6.295  14.064  0.00  0.00    +0.000 HD
ENDBRANCH  15  17
ENDBRANCH  11  15
ENDBRANCH  10  11
ENDBRANCH   2  10
BRANCH   5  19
ATOM     19  C   UNL     1       3.487   5.736  19.639  0.00  0.00    +0.000 C 
BRANCH  19  20
ATOM     20  C   UNL     1       2.622   6.938  19.296  0.00  0.00    +0.000 A 
ATOM     21  C   UNL     1       1.876   7.546  20.324  0.00  0.00    +0.000 A 
ATOM     22  C   UNL     1       1.226   8.765  20.117  0.00  0.00    +0.000 A 
ATOM     23  C   UNL     1       1.308   9.395  18.878  0.00  0.00    +0.000 A 
ATOM     24  C   UNL     1       2.019   8.794  17.842  0.00  0.00    +0.000 A 
ATOM     25  C   UNL     1       2.674   7.576  18.049  0.00  0.00    +0.000 A 
ENDBRANCH  19  20
ENDBRANCH   5  19
TORSDOF 8
ENDMDL
MODEL 9
REMARK VINA RESULT:      -6.4      2.318      3.505
REMARK  Name = 
REMARK  11 active torsions:
REMARK  status: ('A' for Active; 'I' for Inactive)
REMARK    1  A    between atoms: C_1  and  C_2
REMARK    2  A    between atoms: C_2  and  C_3
REMARK    3  A    between atoms: C_2  and  C_4
REMARK    4  A    between atoms: C_2  and  N_5
REMARK    5  A    between atoms: C_6  and  C_7
REMARK    6  A    between atoms: C_7  and  CA_8
REMARK    7  A    between atoms: CA_8  and  N_9
REMARK    8  A    between atoms: CA_8  and  C_10
REMARK    9  A    between atoms: C_10  and  OXT_12
REMARK   10  A    between atoms: C_15  and  C_16
REMARK   11  A    between atoms: C_16  and  C_17
REMARK                            x       y       z     vdW  Elec       q    Type
REMARK                         _______ _______ _______ _____ _____    ______ ____
ROOT
ATOM      1  N   UNL     1       3.608   5.261  17.850  0.00  0.00    +0.000 N 
ATOM      2  C   UNL     1       4.521   5.449  16.777  0.00  0.00    +0.000 A 
ATOM      3  C   UNL     1       4.587   6.816  16.620  0.00  0.00    +0.000 A 
ATOM      4  N   UNL     1       3.829   7.462  17.537  0.00  0.00    +0.000 NA
ATOM      5  C   UNL     1       3.292   6.540  18.318  0.00  0.00    +0.000 A 
ENDROOT
BRANCH   1   7
ATOM      6  C   UNL     1       1.525   3.918  18.174  0.00  0.00    +0.000 C 
ATOM      7  C   UNL     1       3.071   3.944  18.274  0.00  0.00    +0.000 C 
ATOM      8  C   UNL     1       3.589   3.652  19.712  0.00  0.00    +0.000 C 
ATOM      9  C   UNL     1       3.499   2.696  17.464  0.00  0.00    +0.000 C 
ENDBRANCH   1   7
BRANCH   2  10
ATOM     10  C   UNL     1       5.287   4.354  16.069  0.00  0.00    +0.000 C 
BRANCH  10  11
ATOM     11  CA  UNL     1       6.825   4.369  16.142  0.00  0.00    +0.000 C 
BRANCH  11  12
ATOM     12  N   UNL     1       7.488   5.275  15.154  0.00  0.00    +0.000 NA
ATOM     13  H1  UNL     1       7.720   4.723  14.321  0.00  0.00    +0.000 HD
ATOM     14  H2  UNL     1       8.395   5.550  15.533  0.00  0.00    +0.000 HD
ENDBRANCH  11  12
BRANCH  11  15
ATOM     15  C   UNL     1       7.243   4.874  17.549  0.00  0.00    +0.000 C 
ATOM     16  O   UNL     1       7.085   4.277  18.602  0.00  0.00    +0.000 OA
BRANCH  15  17
ATOM     17  OXT UNL     1       7.839   6.095  17.472  0.00  0.00    +0.000 OA
ATOM     18  HXT UNL     1       7.737   6.382  16.530  0.00  0.00    +0.000 HD
ENDBRANCH  15  17
ENDBRANCH  11  15
ENDBRANCH  10  11
ENDBRANCH   2  10
BRANCH   5  19
ATOM     19  C   UNL     1       2.587   6.933  19.585  0.00  0.00    +0.000 C 
BRANCH  19  20
ATOM     20  C   UNL     1       1.684   8.154  19.551  0.00  0.00    +0.000 A 
ATOM     21  C   UNL     1       1.107   8.601  20.755  0.00  0.00    +0.000 A 
ATOM     22  C   UNL     1       0.436   9.825  20.822  0.00  0.00    +0.000 A 
ATOM     23  C   UNL     1       0.329  10.621  19.686  0.00  0.00    +0.000 A 
ATOM     24  C   UNL     1       0.868  10.182  18.479  0.00  0.00    +0.000 A 
ATOM     25  C   UNL     1       1.544   8.960  18.411  0.00  0.00    +0.000 A 
ENDBRANCH  19  20
ENDBRANCH   5  19
TORSDOF 8
ENDMDL
