MODEL 1
REMARK VINA RESULT:      -7.1      0.000      0.000
REMARK  Name = 
REMARK  5 active torsions:
REMARK  status: ('A' for Active; 'I' for Inactive)
REMARK    1  A    between atoms: C_1  and  N_2
REMARK    2  A    between atoms: C_7  and  C_8
REMARK    3  A    between atoms: C_8  and  N_9
REMARK    4  A    between atoms: C_14  and  C_16
REMARK    5  A    between atoms: C_16  and  C_17
REMARK                            x       y       z     vdW  Elec       q    Type
REMARK                         _______ _______ _______ _____ _____    ______ ____
ROOT
ATOM      1  N   UNL     1       5.015   5.143  17.762  0.00  0.00    +0.000 NA
ATOM      2  C   UNL     1       5.424   5.598  19.100  0.00  0.00    +0.000 C 
ATOM      3  C   UNL     1       6.876   5.442  19.572  0.00  0.00    +0.000 C 
ATOM      4  C   UNL     1       8.018   5.885  18.669  0.00  0.00    +0.000 C 
ATOM      5  N   UNL     1       7.645   6.867  17.668  0.00  0.00    +0.000 N 
ATOM      6  C   UNL     1       7.869   8.240  17.746  0.00  0.00    +0.000 C 
ATOM      7  O   UNL     1       7.440   9.013  16.895  0.00  0.00    +0.000 OA
ATOM      8  C   UNL     1       7.022   6.288  16.477  0.00  0.00    +0.000 C 
ATOM      9  C   UNL     1       5.541   5.891  16.611  0.00  0.00    +0.000 C 
ENDROOT
BRANCH   1  10
ATOM     10  C   UNL     1       3.515   5.092  17.661  0.00  0.00    +0.000 C 
BRANCH  10  17
ATOM     11  C   UNL     1       3.021   2.274  19.120  0.00  0.00    +0.000 C 
ATOM     12  N   UNL     1       2.569   3.564  19.561  0.00  0.00    +0.000 N 
ATOM     13  C   UNL     1       1.848   3.804  20.698  0.00  0.00    +0.000 A 
ATOM     14 CL   UNL     1       1.408   2.565  21.782  0.00  0.00    +0.000 Cl
ATOM     15  C   UNL     1       1.624   5.143  20.760  0.00  0.00    +0.000 A 
ATOM     16  N   UNL     1       2.169   5.749  19.662  0.00  0.00    +0.000 NA
ATOM     17  C   UNL     1       2.736   4.801  18.939  0.00  0.00    +0.000 A 
ENDBRANCH  10  17
ENDBRANCH   1  10
BRANCH   6  18
ATOM     18  C   UNL     1       8.704   8.739  18.931  0.00  0.00    +0.000 C 
BRANCH  18  19
ATOM     19  C   UNL     1       8.946  10.247  19.018  0.00  0.00    +0.000 C 
ATOM     20  C   UNL     1       9.471  10.688  20.400  0.00  0.00    +0.000 C 
ATOM     21  C   UNL     1      10.008  12.095  20.161  0.00  0.00    +0.000 C 
ATOM     22  C   UNL     1      10.445  12.129  18.699  0.00  0.00    +0.000 C 
ATOM     23  C   UNL     1      10.051  10.779  18.101  0.00  0.00    +0.000 C 
ENDBRANCH  18  19
ENDBRANCH   6  18
TORSDOF 4
ENDMDL
MODEL 2
REMARK VINA RESULT:      -7.0      0.557      1.304
REMARK  Name = 
REMARK  5 active torsions:
REMARK  status: ('A' for Active; 'I' for Inactive)
REMARK    1  A    between atoms: C_1  and  N_2
REMARK    2  A    between atoms: C_7  and  C_8
REMARK    3  A    between atoms: C_8  and  N_9
REMARK    4  A    between atoms: C_14  and  C_16
REMARK    5  A    between atoms: C_16  and  C_17
REMARK                            x       y       z     vdW  Elec       q    Type
REMARK                         _______ _______ _______ _____ _____    ______ ____
ROOT
ATOM      1  N   UNL     1       5.072   5.122  17.873  0.00  0.00    +0.000 NA
ATOM      2  C   UNL     1       5.557   5.553  19.193  0.00  0.00    +0.000 C 
ATOM      3  C   UNL     1       7.042   5.435  19.560  0.00  0.00    +0.000 C 
ATOM      4  C   UNL     1       8.105   5.942  18.596  0.00  0.00    +0.000 C 
ATOM      5  N   UNL     1       7.632   6.939  17.652  0.00  0.00    +0.000 N 
ATOM      6  C   UNL     1       7.815   8.316  17.757  0.00  0.00    +0.000 C 
ATOM      7  O   UNL     1       7.304   9.097  16.961  0.00  0.00    +0.000 OA
ATOM      8  C   UNL     1       6.947   6.372  16.489  0.00  0.00    +0.000 C 
ATOM      9  C   UNL     1       5.492   5.920  16.712  0.00  0.00    +0.000 C 
ENDROOT
BRANCH   1  10
ATOM     10  C   UNL     1       3.571   5.023  17.872  0.00  0.00    +0.000 C 
BRANCH  10  17
ATOM     11  C   UNL     1       2.279   5.224  20.806  0.00  0.00    +0.000 C 
ATOM     12  N   UNL     1       2.361   4.053  19.979  0.00  0.00    +0.000 N 
ATOM     13  C   UNL     1       1.886   2.814  20.311  0.00  0.00    +0.000 A 
ATOM     14 CL   UNL     1       1.088   2.504  21.784  0.00  0.00    +0.000 Cl
ATOM     15  C   UNL     1       2.152   1.985  19.267  0.00  0.00    +0.000 A 
ATOM     16  N   UNL     1       2.814   2.678  18.291  0.00  0.00    +0.000 NA
ATOM     17  C   UNL     1       2.941   3.921  18.717  0.00  0.00    +0.000 A 
ENDBRANCH  10  17
ENDBRANCH   1  10
BRANCH   6  18
ATOM     18  C   UNL     1       8.713   8.809  18.897  0.00  0.00    +0.000 C 
BRANCH  18  19
ATOM     19  C   UNL     1       8.968  10.316  18.971  0.00  0.00    +0.000 C 
ATOM     20  C   UNL     1       9.503  10.763  20.347  0.00  0.00    +0.000 C 
ATOM     21  C   UNL     1      10.050  12.164  20.096  0.00  0.00    +0.000 C 
ATOM     22  C   UNL     1      10.481  12.184  18.631  0.00  0.00    +0.000 C 
ATOM     23  C   UNL     1      10.073  10.832  18.045  0.00  0.00    +0.000 C 
ENDBRANCH  18  19
ENDBRANCH   6  18
TORSDOF 4
ENDMDL
MODEL 3
REMARK VINA RESULT:      -6.8      3.731      6.027
REMARK  Name = 
REMARK  5 active torsions:
REMARK  status: ('A' for Active; 'I' for Inactive)
REMARK    1  A    between atoms: C_1  and  N_2
REMARK    2  A    between atoms: C_7  and  C_8
REMARK    3  A    between atoms: C_8  and  N_9
REMARK    4  A    between atoms: C_14  and  C_16
REMARK    5  A    between atoms: C_16  and  C_17
REMARK                            x       y       z     vdW  Elec       q    Type
REMARK                         _______ _______ _______ _____ _____    ______ ____
ROOT
ATOM      1  N   UNL     1       3.774   6.445  19.254  0.00  0.00    +0.000 NA
ATOM      2  C   UNL     1       3.434   6.943  17.913  0.00  0.00    +0.000 C 
ATOM      3  C   UNL     1       4.514   7.540  17.000  0.00  0.00    +0.000 C 
ATOM      4  C   UNL     1       5.828   6.800  16.794  0.00  0.00    +0.000 C 
ATOM      5  N   UNL     1       5.761   5.375  17.061  0.00  0.00    +0.000 N 
ATOM      6  C   UNL     1       5.647   4.368  16.105  0.00  0.00    +0.000 C 
ATOM      7  O   UNL     1       5.506   3.191  16.421  0.00  0.00    +0.000 OA
ATOM      8  C   UNL     1       5.873   5.035  18.481  0.00  0.00    +0.000 C 
ATOM      9  C   UNL     1       4.604   5.233  19.328  0.00  0.00    +0.000 C 
ENDROOT
BRANCH   1  10
ATOM     10  C   UNL     1       2.526   6.226  20.064  0.00  0.00    +0.000 C 
BRANCH  10  17
ATOM     11  C   UNL     1       1.409   4.320  17.733  0.00  0.00    +0.000 C 
ATOM     12  N   UNL     1       1.550   3.990  19.123  0.00  0.00    +0.000 N 
ATOM     13  C   UNL     1       1.231   2.785  19.687  0.00  0.00    +0.000 A 
ATOM     14 CL   UNL     1       0.636   1.475  18.773  0.00  0.00    +0.000 Cl
ATOM     15  C   UNL     1       1.512   2.872  21.014  0.00  0.00    +0.000 A 
ATOM     16  N   UNL     1       1.977   4.125  21.302  0.00  0.00    +0.000 NA
ATOM     17  C   UNL     1       1.999   4.799  20.167  0.00  0.00    +0.000 A 
ENDBRANCH  10  17
ENDBRANCH   1  10
BRANCH   6  18
ATOM     18  C   UNL     1       5.738   4.796  14.636  0.00  0.00    +0.000 C 
BRANCH  18  19
ATOM     19  C   UNL     1       6.077   3.704  13.619  0.00  0.00    +0.000 C 
ATOM     20  C   UNL     1       4.902   3.389  12.669  0.00  0.00    +0.000 C 
ATOM     21  C   UNL     1       5.545   2.605  11.530  0.00  0.00    +0.000 C 
ATOM     22  C   UNL     1       6.989   3.096  11.454  0.00  0.00    +0.000 C 
ATOM     23  C   UNL     1       7.174   4.070  12.616  0.00  0.00    +0.000 C 
ENDBRANCH  18  19
ENDBRANCH   6  18
TORSDOF 4
ENDMDL
MODEL 4
REMARK VINA RESULT:      -6.7      4.836      7.901
REMARK  Name = 
REMARK  5 active torsions:
REMARK  status: ('A' for Active; 'I' for Inactive)
REMARK    1  A    between atoms: C_1  and  N_2
REMARK    2  A    between atoms: C_7  and  C_8
REMARK    3  A    between atoms: C_8  and  N_9
REMARK    4  A    between atoms: C_14  and  C_16
REMARK    5  A    between atoms: C_16  and  C_17
REMARK                            x       y       z     vdW  Elec       q    Type
REMARK                         _______ _______ _______ _____ _____    ______ ____
ROOT
ATOM      1  N   UNL     1       5.695   4.455  16.614  0.00  0.00    +0.000 NA
ATOM      2  C   UNL     1       5.024   3.661  17.654  0.00  0.00    +0.000 C 
ATOM      3  C   UNL     1       5.122   4.060  19.133  0.00  0.00    +0.000 C 
ATOM      4  C   UNL     1       4.862   5.501  19.548  0.00  0.00    +0.000 C 
ATOM      5  N   UNL     1       4.060   6.261  18.606  0.00  0.00    +0.000 N 
ATOM      6  C   UNL     1       2.698   6.532  18.724  0.00  0.00    +0.000 C 
ATOM      7  O   UNL     1       2.076   7.105  17.836  0.00  0.00    +0.000 OA
ATOM      8  C   UNL     1       4.824   6.797  17.479  0.00  0.00    +0.000 C 
ATOM      9  C   UNL     1       5.165   5.802  16.355  0.00  0.00    +0.000 C 
ENDROOT
BRANCH   1  10
ATOM     10  C   UNL     1       5.734   3.694  15.317  0.00  0.00    +0.000 C 
BRANCH  10  17
ATOM     11  C   UNL     1       5.398   3.299  12.147  0.00  0.00    +0.000 C 
ATOM     12  N   UNL     1       6.376   4.110  12.816  0.00  0.00    +0.000 N 
ATOM     13  C   UNL     1       7.336   4.864  12.198  0.00  0.00    +0.000 A 
ATOM     14 CL   UNL     1       7.474   4.959  10.502  0.00  0.00    +0.000 Cl
ATOM     15  C   UNL     1       8.055   5.481  13.172  0.00  0.00    +0.000 A 
ATOM     16  N   UNL     1       7.581   5.105  14.399  0.00  0.00    +0.000 NA
ATOM     17  C   UNL     1       6.573   4.280  14.186  0.00  0.00    +0.000 A 
ENDBRANCH  10  17
ENDBRANCH   1  10
BRANCH   6  18
ATOM     18  C   UNL     1       2.019   6.105  20.030  0.00  0.00    +0.000 C 
BRANCH  18  19
ATOM     19  C   UNL     1       1.311   4.748  20.028  0.00  0.00    +0.000 C 
ATOM     20  C   UNL     1       1.466   3.998  18.688  0.00  0.00    +0.000 C 
ATOM     21  C   UNL     1       1.057   2.567  19.015  0.00  0.00    +0.000 C 
ATOM     22  C   UNL     1       1.390   2.367  20.491  0.00  0.00    +0.000 C 
ATOM     23  C   UNL     1       1.882   3.719  21.007  0.00  0.00    +0.000 C 
ENDBRANCH  18  19
ENDBRANCH   6  18
TORSDOF 4
ENDMDL
MODEL 5
REMARK VINA RESULT:      -6.6      1.425      1.910
REMARK  Name = 
REMARK  5 active torsions:
REMARK  status: ('A' for Active; 'I' for Inactive)
REMARK    1  A    between atoms: C_1  and  N_2
REMARK    2  A    between atoms: C_7  and  C_8
REMARK    3  A    between atoms: C_8  and  N_9
REMARK    4  A    between atoms: C_14  and  C_16
REMARK    5  A    between atoms: C_16  and  C_17
REMARK                            x       y       z     vdW  Elec       q    Type
REMARK                         _______ _______ _______ _____ _____    ______ ____
ROOT
ATOM      1  N   UNL     1       5.077   4.851  17.912  0.00  0.00    +0.000 NA
ATOM      2  C   UNL     1       5.544   5.336  19.220  0.00  0.00    +0.000 C 
ATOM      3  C   UNL     1       7.029   5.258  19.601  0.00  0.00    +0.000 C 
ATOM      4  C   UNL     1       8.089   5.751  18.628  0.00  0.00    +0.000 C 
ATOM      5  N   UNL     1       7.605   6.706  17.647  0.00  0.00    +0.000 N 
ATOM      6  C   UNL     1       7.763   8.089  17.706  0.00  0.00    +0.000 C 
ATOM      7  O   UNL     1       7.243   8.833  16.881  0.00  0.00    +0.000 OA
ATOM      8  C   UNL     1       6.940   6.087  16.500  0.00  0.00    +0.000 C 
ATOM      9  C   UNL     1       5.492   5.617  16.728  0.00  0.00    +0.000 C 
ENDROOT
BRANCH   1  10
ATOM     10  C   UNL     1       3.578   4.724  17.905  0.00  0.00    +0.000 C 
BRANCH  10  17
ATOM     11  C   UNL     1       2.680   7.771  18.381  0.00  0.00    +0.000 C 
ATOM     12  N   UNL     1       2.418   6.651  19.240  0.00  0.00    +0.000 N 
ATOM     13  C   UNL     1       1.725   6.701  20.418  0.00  0.00    +0.000 A 
ATOM     14 CL   UNL     1       1.040   8.142  21.017  0.00  0.00    +0.000 Cl
ATOM     15  C   UNL     1       1.693   5.440  20.924  0.00  0.00    +0.000 A 
ATOM     16  N   UNL     1       2.381   4.597  20.094  0.00  0.00    +0.000 NA
ATOM     17  C   UNL     1       2.819   5.324  19.083  0.00  0.00    +0.000 A 
ENDBRANCH  10  17
ENDBRANCH   1  10
BRANCH   6  18
ATOM     18  C   UNL     1       8.643   8.638  18.835  0.00  0.00    +0.000 C 
BRANCH  18  19
ATOM     19  C   UNL     1       8.810  10.158  18.902  0.00  0.00    +0.000 C 
ATOM     20  C   UNL     1       9.379  10.635  20.255  0.00  0.00    +0.000 C 
ATOM     21  C   UNL     1       9.830  12.066  19.983  0.00  0.00    +0.000 C 
ATOM     22  C   UNL     1      10.193  12.112  18.500  0.00  0.00    +0.000 C 
ATOM     23  C   UNL     1       9.840  10.739  17.929  0.00  0.00    +0.000 C 
ENDBRANCH  18  19
ENDBRANCH   6  18
TORSDOF 4
ENDMDL
MODEL 6
REMARK VINA RESULT:      -6.5      5.106      7.641
REMARK  Name = 
REMARK  5 active torsions:
REMARK  status: ('A' for Active; 'I' for Inactive)
REMARK    1  A    between atoms: C_1  and  N_2
REMARK    2  A    between atoms: C_7  and  C_8
REMARK    3  A    between atoms: C_8  and  N_9
REMARK    4  A    between atoms: C_14  and  C_16
REMARK    5  A    between atoms: C_16  and  C_17
REMARK                            x       y       z     vdW  Elec       q    Type
REMARK                         _______ _______ _______ _____ _____    ______ ____
ROOT
ATOM      1  N   UNL     1       2.226   7.559  18.500  0.00  0.00    +0.000 NA
ATOM      2  C   UNL     1       2.134   8.936  17.991  0.00  0.00    +0.000 C 
ATOM      3  C   UNL     1       0.790   9.677  17.971  0.00  0.00    +0.000 C 
ATOM      4  C   UNL     1      -0.090   9.686  19.212  0.00  0.00    +0.000 C 
ATOM      5  N   UNL     1       0.621   9.433  20.453  0.00  0.00    +0.000 N 
ATOM      6  C   UNL     1       1.028  10.396  21.373  0.00  0.00    +0.000 C 
ATOM      7  O   UNL     1       1.705  10.106  22.354  0.00  0.00    +0.000 OA
ATOM      8  C   UNL     1       0.858   8.013  20.717  0.00  0.00    +0.000 C 
ATOM      9  C   UNL     1       2.019   7.364  19.942  0.00  0.00    +0.000 C 
ENDROOT
BRANCH   1  10
ATOM     10  C   UNL     1       3.543   6.944  18.113  0.00  0.00    +0.000 C 
BRANCH  10  17
ATOM     11  C   UNL     1       1.711   4.352  17.622  0.00  0.00    +0.000 C 
ATOM     12  N   UNL     1       2.987   4.394  18.279  0.00  0.00    +0.000 N 
ATOM     13  C   UNL     1       3.642   3.314  18.804  0.00  0.00    +0.000 A 
ATOM     14 CL   UNL     1       3.018   1.731  18.715  0.00  0.00    +0.000 Cl
ATOM     15  C   UNL     1       4.811   3.767  19.330  0.00  0.00    +0.000 A 
ATOM     16  N   UNL     1       4.890   5.123  19.168  0.00  0.00    +0.000 NA
ATOM     17  C   UNL     1       3.794   5.501  18.538  0.00  0.00    +0.000 A 
ENDBRANCH  10  17
ENDBRANCH   1  10
BRANCH   6  18
ATOM     18  C   UNL     1       0.565  11.835  21.119  0.00  0.00    +0.000 C 
BRANCH  18  19
ATOM     19  C   UNL     1      -0.631  12.329  21.937  0.00  0.00    +0.000 C 
ATOM     20  C   UNL     1      -1.896  12.534  21.077  0.00  0.00    +0.000 C 
ATOM     21  C   UNL     1      -3.026  12.631  22.097  0.00  0.00    +0.000 C 
ATOM     22  C   UNL     1      -2.571  11.805  23.298  0.00  0.00    +0.000 C 
ATOM     23  C   UNL     1      -1.148  11.343  22.988  0.00  0.00    +0.000 C 
ENDBRANCH  18  19
ENDBRANCH   6  18
TORSDOF 4
ENDMDL
MODEL 7
REMARK VINA RESULT:      -6.4      3.382      5.770
REMARK  Name = 
REMARK  5 active torsions:
REMARK  status: ('A' for Active; 'I' for Inactive)
REMARK    1  A    between atoms: C_1  and  N_2
REMARK    2  A    between atoms: C_7  and  C_8
REMARK    3  A    between atoms: C_8  and  N_9
REMARK    4  A    between atoms: C_14  and  C_16
REMARK    5  A    between atoms: C_16  and  C_17
REMARK                            x       y       z     vdW  Elec       q    Type
REMARK                         _______ _______ _______ _____ _____    ______ ____
ROOT
ATOM      1  N   UNL     1       4.839   5.580  19.376  0.00  0.00    +0.000 NA
ATOM      2  C   UNL     1       4.055   5.574  18.131  0.00  0.00    +0.000 C 
ATOM      3  C   UNL     1       4.282   6.645  17.055  0.00  0.00    +0.000 C 
ATOM      4  C   UNL     1       5.696   6.971  16.596  0.00  0.00    +0.000 C 
ATOM      5  N   UNL     1       6.662   5.914  16.833  0.00  0.00    +0.000 N 
ATOM      6  C   UNL     1       7.126   5.003  15.886  0.00  0.00    +0.000 C 
ATOM      7  O   UNL     1       7.876   4.081  16.191  0.00  0.00    +0.000 OA
ATOM      8  C   UNL     1       7.186   5.889  18.199  0.00  0.00    +0.000 C 
ATOM      9  C   UNL     1       6.270   5.264  19.266  0.00  0.00    +0.000 C 
ENDROOT
BRANCH   1  10
ATOM     10  C   UNL     1       4.217   4.661  20.391  0.00  0.00    +0.000 C 
BRANCH  10  17
ATOM     11  C   UNL     1       3.347   2.152  18.585  0.00  0.00    +0.000 C 
ATOM     12  N   UNL     1       2.479   3.020  19.329  0.00  0.00    +0.000 N 
ATOM     13  C   UNL     1       1.117   2.912  19.395  0.00  0.00    +0.000 A 
ATOM     14 CL   UNL     1       0.257   1.675  18.599  0.00  0.00    +0.000 Cl
ATOM     15  C   UNL     1       0.670   3.913  20.199  0.00  0.00    +0.000 A 
ATOM     16  N   UNL     1       1.729   4.669  20.619  0.00  0.00    +0.000 NA
ATOM     17  C   UNL     1       2.817   4.135  20.096  0.00  0.00    +0.000 A 
ENDBRANCH  10  17
ENDBRANCH   1  10
BRANCH   6  18
ATOM     18  C   UNL     1       6.678   5.224  14.436  0.00  0.00    +0.000 C 
BRANCH  18  19
ATOM     19  C   UNL     1       6.519   3.975  13.567  0.00  0.00    +0.000 C 
ATOM     20  C   UNL     1       5.085   3.809  13.019  0.00  0.00    +0.000 C 
ATOM     21  C   UNL     1       5.232   2.782  11.902  0.00  0.00    +0.000 C 
ATOM     22  C   UNL     1       6.655   2.943  11.374  0.00  0.00    +0.000 C 
ATOM     23  C   UNL     1       7.329   3.983  12.268  0.00  0.00    +0.000 C 
ENDBRANCH  18  19
ENDBRANCH   6  18
TORSDOF 4
ENDMDL
MODEL 8
REMARK VINA RESULT:      -6.4      3.378      5.962
REMARK  Name = 
REMARK  5 active torsions:
REMARK  status: ('A' for Active; 'I' for Inactive)
REMARK    1  A    between atoms: C_1  and  N_2
REMARK    2  A    between atoms: C_7  and  C_8
REMARK    3  A    between atoms: C_8  and  N_9
REMARK    4  A    between atoms: C_14  and  C_16
REMARK    5  A    between atoms: C_16  and  C_17
REMARK                            x       y       z     vdW  Elec       q    Type
REMARK                         _______ _______ _______ _____ _____    ______ ____
ROOT
ATOM      1  N   UNL     1       4.837   5.742  19.165  0.00  0.00    +0.000 NA
ATOM      2  C   UNL     1       4.084   5.722  17.902  0.00  0.00    +0.000 C 
ATOM      3  C   UNL     1       4.372   6.751  16.800  0.00  0.00    +0.000 C 
ATOM      4  C   UNL     1       5.807   7.017  16.368  0.00  0.00    +0.000 C 
ATOM      5  N   UNL     1       6.732   5.938  16.661  0.00  0.00    +0.000 N 
ATOM      6  C   UNL     1       7.188   4.983  15.754  0.00  0.00    +0.000 C 
ATOM      7  O   UNL     1       7.900   4.048  16.106  0.00  0.00    +0.000 OA
ATOM      8  C   UNL     1       7.221   5.939  18.040  0.00  0.00    +0.000 C 
ATOM      9  C   UNL     1       6.260   5.377  19.102  0.00  0.00    +0.000 C 
ENDROOT
BRANCH   1  10
ATOM     10  C   UNL     1       4.161   4.876  20.192  0.00  0.00    +0.000 C 
BRANCH  10  17
ATOM     11  C   UNL     1       0.985   4.411  20.070  0.00  0.00    +0.000 C 
ATOM     12  N   UNL     1       2.006   3.508  19.620  0.00  0.00    +0.000 N 
ATOM     13  C   UNL     1       1.785   2.284  19.050  0.00  0.00    +0.000 A 
ATOM     14 CL   UNL     1       0.220   1.674  18.767  0.00  0.00    +0.000 Cl
ATOM     15  C   UNL     1       3.000   1.747  18.762  0.00  0.00    +0.000 A 
ATOM     16  N   UNL     1       3.987   2.602  19.169  0.00  0.00    +0.000 NA
ATOM     17  C   UNL     1       3.391   3.660  19.686  0.00  0.00    +0.000 A 
ENDBRANCH  10  17
ENDBRANCH   1  10
BRANCH   6  18
ATOM     18  C   UNL     1       6.784   5.173  14.288  0.00  0.00    +0.000 C 
BRANCH  18  19
ATOM     19  C   UNL     1       6.485   3.904  13.486  0.00  0.00    +0.000 C 
ATOM     20  C   UNL     1       5.050   3.881  12.920  0.00  0.00    +0.000 C 
ATOM     21  C   UNL     1       5.085   2.781  11.865  0.00  0.00    +0.000 C 
ATOM     22  C   UNL     1       6.524   2.739  11.357  0.00  0.00    +0.000 C 
ATOM     23  C   UNL     1       7.308   3.739  12.205  0.00  0.00    +0.000 C 
ENDBRANCH  18  19
ENDBRANCH   6  18
TORSDOF 4
ENDMDL
MODEL 9
REMARK VINA RESULT:      -6.3      5.288      6.537
REMARK  Name = 
REMARK  5 active torsions:
REMARK  status: ('A' for Active; 'I' for Inactive)
REMARK    1  A    between atoms: C_1  and  N_2
REMARK    2  A    between atoms: C_7  and  C_8
REMARK    3  A    between atoms: C_8  and  N_9
REMARK    4  A    between atoms: C_14  and  C_16
REMARK    5  A    between atoms: C_16  and  C_17
REMARK                            x       y       z     vdW  Elec       q    Type
REMARK                         _______ _______ _______ _____ _____    ______ ____
ROOT
ATOM      1  N   UNL     1       1.789   7.801  19.178  0.00  0.00    +0.000 NA
ATOM      2  C   UNL     1       1.964   8.842  18.154  0.00  0.00    +0.000 C 
ATOM      3  C   UNL     1       0.761   9.634  17.625  0.00  0.00    +0.000 C 
ATOM      4  C   UNL     1      -0.234  10.244  18.602  0.00  0.00    +0.000 C 
ATOM      5  N   UNL     1       0.294  10.464  19.936  0.00  0.00    +0.000 N 
ATOM      6  C   UNL     1       0.744  11.679  20.448  0.00  0.00    +0.000 C 
ATOM      7  O   UNL     1       1.261  11.760  21.558  0.00  0.00    +0.000 OA
ATOM      8  C   UNL     1       0.281   9.267  20.780  0.00  0.00    +0.000 C 
ATOM      9  C   UNL     1       1.403   8.246  20.525  0.00  0.00    +0.000 C 
ENDROOT
BRANCH   1  10
ATOM     10  C   UNL     1       3.029   6.956  19.285  0.00  0.00    +0.000 C 
BRANCH  10  17
ATOM     11  C   UNL     1       1.595   4.442  20.675  0.00  0.00    +0.000 C 
ATOM     12  N   UNL     1       2.279   4.454  19.413  0.00  0.00    +0.000 N 
ATOM     13  C   UNL     1       2.426   3.378  18.582  0.00  0.00    +0.000 A 
ATOM     14 CL   UNL     1       1.769   1.847  18.940  0.00  0.00    +0.000 Cl
ATOM     15  C   UNL     1       3.125   3.799  17.494  0.00  0.00    +0.000 A 
ATOM     16  N   UNL     1       3.446   5.121  17.641  0.00  0.00    +0.000 NA
ATOM     17  C   UNL     1       2.940   5.515  18.794  0.00  0.00    +0.000 A 
ENDBRANCH  10  17
ENDBRANCH   1  10
BRANCH   6  18
ATOM     18  C   UNL     1       0.538  12.918  19.570  0.00  0.00    +0.000 C 
BRANCH  18  19
ATOM     19  C   UNL     1       1.748  13.835  19.376  0.00  0.00    +0.000 C 
ATOM     20  C   UNL     1       2.759  13.277  18.352  0.00  0.00    +0.000 C 
ATOM     21  C   UNL     1       3.645  14.472  18.016  0.00  0.00    +0.000 C 
ATOM     22  C   UNL     1       2.768  15.706  18.214  0.00  0.00    +0.000 C 
ATOM     23  C   UNL     1       1.433  15.202  18.762  0.00  0.00    +0.000 C 
ENDBRANCH  18  19
ENDBRANCH   6  18
TORSDOF 4
ENDMDL
