MODEL 1
REMARK VINA RESULT:      -6.7      0.000      0.000
REMARK  Name = 
REMARK  6 active torsions:
REMARK  status: ('A' for Active; 'I' for Inactive)
REMARK    1  A    between atoms: C_1  and  N_2
REMARK    2  A    between atoms: C_6  and  C_7
REMARK    3  A    between atoms: N_9  and  C_10
REMARK    4  A    between atoms: C_10  and  C_11
REMARK    5  A    between atoms: N_18  and  C_19
REMARK    6  A    between atoms: C_19  and  C_20
REMARK                            x       y       z     vdW  Elec       q    Type
REMARK                         _______ _______ _______ _____ _____    ______ ____
ROOT
ATOM      1  C   UNL     1       4.090   5.020  18.629  0.00  0.00    +0.000 A 
ATOM      2  C   UNL     1       4.965   5.206  19.677  0.00  0.00    +0.000 A 
ATOM      3  N   UNL     1       6.259   5.089  19.267  0.00  0.00    +0.000 NA
ATOM      4  C   UNL     1       6.190   4.813  17.977  0.00  0.00    +0.000 A 
ATOM      5  N   UNL     1       4.889   4.577  17.587  0.00  0.00    +0.000 N 
ATOM      6  C   UNL     1       4.451   4.014  16.316  0.00  0.00    +0.000 C 
ATOM      7  C   UNL     1       5.519   3.216  15.513  0.00  0.00    +0.000 C 
ATOM      8  N   UNL     1       6.626   3.958  14.869  0.00  0.00    +0.000 NA
ATOM      9  C   UNL     1       7.016   5.163  15.611  0.00  0.00    +0.000 C 
ATOM     10  C   UNL     1       7.371   4.823  17.063  0.00  0.00    +0.000 C 
ENDROOT
BRANCH   1  11
ATOM     11  C   UNL     1       2.643   5.328  18.571  0.00  0.00    +0.000 C 
BRANCH  11  14
ATOM     12  C   UNL     1       1.941   7.486  19.505  0.00  0.00    +0.000 C 
ATOM     13  O   UNL     1       1.751   7.011  20.619  0.00  0.00    +0.000 OA
ATOM     14  N   UNL     1       2.445   6.745  18.467  0.00  0.00    +0.000 N 
ATOM     15  H   UNL     1       2.557   7.218  17.577  0.00  0.00    +0.000 HD
BRANCH  12  21
ATOM     16  C   UNL     1       0.113   9.403  21.051  0.00  0.00    +0.000 C 
ATOM     17  N   UNL     1       0.841   9.726  19.849  0.00  0.00    +0.000 N 
ATOM     18  C   UNL     1       0.855  10.938  19.219  0.00  0.00    +0.000 A 
ATOM     19  C   UNL     1       1.686  10.766  18.138  0.00  0.00    +0.000 A 
ATOM     20  N   UNL     1       2.194   9.492  18.108  0.00  0.00    +0.000 NA
ATOM     21  C   UNL     1       1.667   8.874  19.157  0.00  0.00    +0.000 A 
ENDBRANCH  12  21
ENDBRANCH  11  14
ENDBRANCH   1  11
BRANCH   8  22
ATOM     22  C   UNL     1       6.431   4.167  13.430  0.00  0.00    +0.000 C 
BRANCH  22  23
ATOM     23  C   UNL     1       5.431   3.202  12.842  0.00  0.00    +0.000 C 
ATOM     24  C   UNL     1       4.665   3.538  11.585  0.00  0.00    +0.000 C 
ATOM     25  C   UNL     1       5.740   2.491  11.544  0.00  0.00    +0.000 C 
ENDBRANCH  22  23
ENDBRANCH   8  22
TORSDOF 5
ENDMDL
MODEL 2
REMARK VINA RESULT:      -6.7      5.370      6.517
REMARK  Name = 
REMARK  6 active torsions:
REMARK  status: ('A' for Active; 'I' for Inactive)
REMARK    1  A    between atoms: C_1  and  N_2
REMARK    2  A    between atoms: C_6  and  C_7
REMARK    3  A    between atoms: N_9  and  C_10
REMARK    4  A    between atoms: C_10  and  C_11
REMARK    5  A    between atoms: N_18  and  C_19
REMARK    6  A    between atoms: C_19  and  C_20
REMARK                            x       y       z     vdW  Elec       q    Type
REMARK                         _______ _______ _______ _____ _____    ______ ____
ROOT
ATOM      1  C   UNL     1       7.738   7.918  18.007  0.00  0.00    +0.000 A 
ATOM      2  C   UNL     1       8.392   7.311  19.057  0.00  0.00    +0.000 A 
ATOM      3  N   UNL     1       8.259   5.956  19.005  0.00  0.00    +0.000 NA
ATOM      4  C   UNL     1       7.510   5.721  17.942  0.00  0.00    +0.000 A 
ATOM      5  N   UNL     1       7.016   6.895  17.413  0.00  0.00    +0.000 N 
ATOM      6  C   UNL     1       5.974   7.021  16.402  0.00  0.00    +0.000 C 
ATOM      7  C   UNL     1       5.042   5.788  16.217  0.00  0.00    +0.000 C 
ATOM      8  N   UNL     1       5.592   4.570  15.581  0.00  0.00    +0.000 NA
ATOM      9  C   UNL     1       7.021   4.375  15.857  0.00  0.00    +0.000 C 
ATOM     10  C   UNL     1       7.292   4.362  17.365  0.00  0.00    +0.000 C 
ENDROOT
BRANCH   1  11
ATOM     11  C   UNL     1       7.855   9.315  17.532  0.00  0.00    +0.000 C 
BRANCH  11  14
ATOM     12  C   UNL     1       9.138  11.325  18.111  0.00  0.00    +0.000 C 
ATOM     13  O   UNL     1       8.320  12.073  17.585  0.00  0.00    +0.000 OA
ATOM     14  N   UNL     1       8.948   9.969  18.191  0.00  0.00    +0.000 N 
ATOM     15  H   UNL     1       9.683   9.428  18.632  0.00  0.00    +0.000 HD
BRANCH  12  21
ATOM     16  C   UNL     1      11.222  13.142  16.784  0.00  0.00    +0.000 C 
ATOM     17  N   UNL     1      11.317  12.588  18.111  0.00  0.00    +0.000 N 
ATOM     18  C   UNL     1      12.333  12.801  18.999  0.00  0.00    +0.000 A 
ATOM     19  C   UNL     1      11.982  12.084  20.118  0.00  0.00    +0.000 A 
ATOM     20  N   UNL     1      10.772  11.463  19.942  0.00  0.00    +0.000 NA
ATOM     21  C   UNL     1      10.384  11.781  18.714  0.00  0.00    +0.000 A 
ENDBRANCH  12  21
ENDBRANCH  11  14
ENDBRANCH   1  11
BRANCH   8  22
ATOM     22  C   UNL     1       5.222   4.429  14.169  0.00  0.00    +0.000 C 
BRANCH  22  23
ATOM     23  C   UNL     1       6.201   3.574  13.403  0.00  0.00    +0.000 C 
ATOM     24  C   UNL     1       5.853   3.011  12.046  0.00  0.00    +0.000 C 
ATOM     25  C   UNL     1       6.863   4.115  12.157  0.00  0.00    +0.000 C 
ENDBRANCH  22  23
ENDBRANCH   8  22
TORSDOF 5
ENDMDL
MODEL 3
REMARK VINA RESULT:      -6.7      1.237      1.474
REMARK  Name = 
REMARK  6 active torsions:
REMARK  status: ('A' for Active; 'I' for Inactive)
REMARK    1  A    between atoms: C_1  and  N_2
REMARK    2  A    between atoms: C_6  and  C_7
REMARK    3  A    between atoms: N_9  and  C_10
REMARK    4  A    between atoms: C_10  and  C_11
REMARK    5  A    between atoms: N_18  and  C_19
REMARK    6  A    between atoms: C_19  and  C_20
REMARK                            x       y       z     vdW  Elec       q    Type
REMARK                         _______ _______ _______ _____ _____    ______ ____
ROOT
ATOM      1  C   UNL     1       5.578   5.009  18.908  0.00  0.00    +0.000 A 
ATOM      2  C   UNL     1       6.791   5.527  19.304  0.00  0.00    +0.000 A 
ATOM      3  N   UNL     1       7.653   5.628  18.253  0.00  0.00    +0.000 NA
ATOM      4  C   UNL     1       6.988   5.158  17.213  0.00  0.00    +0.000 A 
ATOM      5  N   UNL     1       5.790   4.597  17.602  0.00  0.00    +0.000 N 
ATOM      6  C   UNL     1       4.910   3.774  16.781  0.00  0.00    +0.000 C 
ATOM      7  C   UNL     1       5.556   3.111  15.531  0.00  0.00    +0.000 C 
ATOM      8  N   UNL     1       5.921   3.967  14.381  0.00  0.00    +0.000 NA
ATOM      9  C   UNL     1       6.318   5.323  14.779  0.00  0.00    +0.000 C 
ATOM     10  C   UNL     1       7.459   5.283  15.802  0.00  0.00    +0.000 C 
ENDROOT
BRANCH   1  11
ATOM     11  C   UNL     1       4.297   4.992  19.649  0.00  0.00    +0.000 C 
BRANCH  11  14
ATOM     12  C   UNL     1       2.598   6.481  18.691  0.00  0.00    +0.000 C 
ATOM     13  O   UNL     1       2.066   5.571  18.065  0.00  0.00    +0.000 OA
ATOM     14  N   UNL     1       3.651   6.267  19.544  0.00  0.00    +0.000 N 
ATOM     15  H   UNL     1       4.037   7.081  20.010  0.00  0.00    +0.000 HD
BRANCH  12  21
ATOM     16  C   UNL     1       1.239   8.084  20.926  0.00  0.00    +0.000 C 
ATOM     17  N   UNL     1       1.564   8.585  19.614  0.00  0.00    +0.000 N 
ATOM     18  C   UNL     1       1.344   9.855  19.161  0.00  0.00    +0.000 A 
ATOM     19  C   UNL     1       1.822   9.861  17.873  0.00  0.00    +0.000 A 
ATOM     20  N   UNL     1       2.347   8.638  17.540  0.00  0.00    +0.000 NA
ATOM     21  C   UNL     1       2.179   7.874  18.612  0.00  0.00    +0.000 A 
ENDBRANCH  12  21
ENDBRANCH  11  14
ENDBRANCH   1  11
BRANCH   8  22
ATOM     22  C   UNL     1       4.951   3.917  13.282  0.00  0.00    +0.000 C 
BRANCH  22  23
ATOM     23  C   UNL     1       5.597   3.573  11.963  0.00  0.00    +0.000 C 
ATOM     24  C   UNL     1       6.970   2.945  11.905  0.00  0.00    +0.000 C 
ATOM     25  C   UNL     1       5.762   2.126  11.556  0.00  0.00    +0.000 C 
ENDBRANCH  22  23
ENDBRANCH   8  22
TORSDOF 5
ENDMDL
MODEL 4
REMARK VINA RESULT:      -6.6      2.206      8.218
REMARK  Name = 
REMARK  6 active torsions:
REMARK  status: ('A' for Active; 'I' for Inactive)
REMARK    1  A    between atoms: C_1  and  N_2
REMARK    2  A    between atoms: C_6  and  C_7
REMARK    3  A    between atoms: N_9  and  C_10
REMARK    4  A    between atoms: C_10  and  C_11
REMARK    5  A    between atoms: N_18  and  C_19
REMARK    6  A    between atoms: C_19  and  C_20
REMARK                            x       y       z     vdW  Elec       q    Type
REMARK                         _______ _______ _______ _____ _____    ______ ____
ROOT
ATOM      1  C   UNL     1       2.038   7.483  19.293  0.00  0.00    +0.000 A 
ATOM      2  C   UNL     1       2.182   7.175  20.628  0.00  0.00    +0.000 A 
ATOM      3  N   UNL     1       1.528   8.073  21.417  0.00  0.00    +0.000 NA
ATOM      4  C   UNL     1       0.997   8.947  20.581  0.00  0.00    +0.000 A 
ATOM      5  N   UNL     1       1.437   8.732  19.292  0.00  0.00    +0.000 N 
ATOM      6  C   UNL     1       1.264   9.627  18.154  0.00  0.00    +0.000 C 
ATOM      7  C   UNL     1       0.954  11.115  18.490  0.00  0.00    +0.000 C 
ATOM      8  N   UNL     1      -0.378  11.458  19.037  0.00  0.00    +0.000 NA
ATOM      9  C   UNL     1      -0.954  10.385  19.858  0.00  0.00    +0.000 C 
ATOM     10  C   UNL     1       0.001   9.983  20.986  0.00  0.00    +0.000 C 
ENDROOT
BRANCH   1  11
ATOM     11  C   UNL     1       2.339   6.640  18.115  0.00  0.00    +0.000 C 
BRANCH  11  14
ATOM     12  C   UNL     1       4.235   5.132  18.502  0.00  0.00    +0.000 C 
ATOM     13  O   UNL     1       3.506   4.200  18.825  0.00  0.00    +0.000 OA
ATOM     14  N   UNL     1       3.740   6.336  18.072  0.00  0.00    +0.000 N 
ATOM     15  H   UNL     1       4.417   7.054  17.837  0.00  0.00    +0.000 HD
BRANCH  12  21
ATOM     16  C   UNL     1       6.036   4.176  16.210  0.00  0.00    +0.000 C 
ATOM     17  N   UNL     1       6.492   4.634  17.499  0.00  0.00    +0.000 N 
ATOM     18  C   UNL     1       7.793   4.739  17.900  0.00  0.00    +0.000 A 
ATOM     19  C   UNL     1       7.730   5.223  19.185  0.00  0.00    +0.000 A 
ATOM     20  N   UNL     1       6.430   5.436  19.565  0.00  0.00    +0.000 NA
ATOM     21  C   UNL     1       5.690   5.070  18.526  0.00  0.00    +0.000 A 
ENDBRANCH  12  21
ENDBRANCH  11  14
ENDBRANCH   1  11
BRANCH   8  22
ATOM     22  C   UNL     1      -1.295  12.017  18.038  0.00  0.00    +0.000 C 
BRANCH  22  23
ATOM     23  C   UNL     1      -2.303  11.004  17.556  0.00  0.00    +0.000 C 
ATOM     24  C   UNL     1      -3.676  11.426  17.090  0.00  0.00    +0.000 C 
ATOM     25  C   UNL     1      -2.668  10.939  16.090  0.00  0.00    +0.000 C 
ENDBRANCH  22  23
ENDBRANCH   8  22
TORSDOF 5
ENDMDL
MODEL 5
REMARK VINA RESULT:      -6.6      3.109      8.282
REMARK  Name = 
REMARK  6 active torsions:
REMARK  status: ('A' for Active; 'I' for Inactive)
REMARK    1  A    between atoms: C_1  and  N_2
REMARK    2  A    between atoms: C_6  and  C_7
REMARK    3  A    between atoms: N_9  and  C_10
REMARK    4  A    between atoms: C_10  and  C_11
REMARK    5  A    between atoms: N_18  and  C_19
REMARK    6  A    between atoms: C_19  and  C_20
REMARK                            x       y       z     vdW  Elec       q    Type
REMARK                         _______ _______ _______ _____ _____    ______ ____
ROOT
ATOM      1  C   UNL     1       1.176   8.447  21.251  0.00  0.00    +0.000 A 
ATOM      2  C   UNL     1       1.333   8.885  22.548  0.00  0.00    +0.000 A 
ATOM      3  N   UNL     1       0.828  10.140  22.710  0.00  0.00    +0.000 NA
ATOM      4  C   UNL     1       0.377  10.489  21.519  0.00  0.00    +0.000 A 
ATOM      5  N   UNL     1       0.736   9.565  20.561  0.00  0.00    +0.000 N 
ATOM      6  C   UNL     1       0.631   9.726  19.116  0.00  0.00    +0.000 C 
ATOM      7  C   UNL     1       0.522  11.187  18.593  0.00  0.00    +0.000 C 
ATOM      8  N   UNL     1      -0.734  11.934  18.825  0.00  0.00    +0.000 NA
ATOM      9  C   UNL     1      -1.407  11.550  20.072  0.00  0.00    +0.000 C 
ATOM     10  C   UNL     1      -0.465  11.697  21.272  0.00  0.00    +0.000 C 
ENDROOT
BRANCH   1  11
ATOM     11  C   UNL     1       1.324   7.074  20.718  0.00  0.00    +0.000 C 
BRANCH  11  14
ATOM     12  C   UNL     1       2.940   5.824  19.360  0.00  0.00    +0.000 C 
ATOM     13  O   UNL     1       2.101   5.003  19.006  0.00  0.00    +0.000 OA
ATOM     14  N   UNL     1       2.625   6.907  20.139  0.00  0.00    +0.000 N 
ATOM     15  H   UNL     1       3.386   7.527  20.394  0.00  0.00    +0.000 HD
BRANCH  12  21
ATOM     16  C   UNL     1       4.212   7.036  16.846  0.00  0.00    +0.000 C 
ATOM     17  N   UNL     1       4.912   6.291  17.863  0.00  0.00    +0.000 N 
ATOM     18  C   UNL     1       6.251   6.026  17.886  0.00  0.00    +0.000 A 
ATOM     19  C   UNL     1       6.450   5.305  19.039  0.00  0.00    +0.000 A 
ATOM     20  N   UNL     1       5.274   5.147  19.727  0.00  0.00    +0.000 NA
ATOM     21  C   UNL     1       4.349   5.753  18.994  0.00  0.00    +0.000 A 
ENDBRANCH  12  21
ENDBRANCH  11  14
ENDBRANCH   1  11
BRANCH   8  22
ATOM     22  C   UNL     1      -1.612  11.982  17.651  0.00  0.00    +0.000 C 
BRANCH  22  23
ATOM     23  C   UNL     1      -2.607  10.848  17.634  0.00  0.00    +0.000 C 
ATOM     24  C   UNL     1      -3.809  10.875  16.721  0.00  0.00    +0.000 C 
ATOM     25  C   UNL     1      -2.682   9.926  16.438  0.00  0.00    +0.000 C 
ENDBRANCH  22  23
ENDBRANCH   8  22
TORSDOF 5
ENDMDL
MODEL 6
REMARK VINA RESULT:      -6.6      2.936      8.199
REMARK  Name = 
REMARK  6 active torsions:
REMARK  status: ('A' for Active; 'I' for Inactive)
REMARK    1  A    between atoms: C_1  and  N_2
REMARK    2  A    between atoms: C_6  and  C_7
REMARK    3  A    between atoms: N_9  and  C_10
REMARK    4  A    between atoms: C_10  and  C_11
REMARK    5  A    between atoms: N_18  and  C_19
REMARK    6  A    between atoms: C_19  and  C_20
REMARK                            x       y       z     vdW  Elec       q    Type
REMARK                         _______ _______ _______ _____ _____    ______ ____
ROOT
ATOM      1  C   UNL     1       1.233   8.466  21.240  0.00  0.00    +0.000 A 
ATOM      2  C   UNL     1       1.355   8.904  22.540  0.00  0.00    +0.000 A 
ATOM      3  N   UNL     1       0.801  10.139  22.699  0.00  0.00    +0.000 NA
ATOM      4  C   UNL     1       0.356  10.477  21.502  0.00  0.00    +0.000 A 
ATOM      5  N   UNL     1       0.762   9.570  20.547  0.00  0.00    +0.000 N 
ATOM      6  C   UNL     1       0.672   9.733  19.101  0.00  0.00    +0.000 C 
ATOM      7  C   UNL     1       0.518  11.191  18.581  0.00  0.00    +0.000 C 
ATOM      8  N   UNL     1      -0.768  11.891  18.798  0.00  0.00    +0.000 NA
ATOM      9  C   UNL     1      -1.445  11.477  20.034  0.00  0.00    +0.000 C 
ATOM     10  C   UNL     1      -0.527  11.654  21.248  0.00  0.00    +0.000 C 
ENDROOT
BRANCH   1  11
ATOM     11  C   UNL     1       1.438   7.101  20.704  0.00  0.00    +0.000 C 
BRANCH  11  14
ATOM     12  C   UNL     1       2.730   6.117  18.865  0.00  0.00    +0.000 C 
ATOM     13  O   UNL     1       1.858   5.293  18.613  0.00  0.00    +0.000 OA
ATOM     14  N   UNL     1       2.571   7.083  19.826  0.00  0.00    +0.000 N 
ATOM     15  H   UNL     1       3.351   7.714  19.975  0.00  0.00    +0.000 HD
BRANCH  12  21
ATOM     16  C   UNL     1       5.037   4.122  19.191  0.00  0.00    +0.000 C 
ATOM     17  N   UNL     1       5.047   5.282  18.335  0.00  0.00    +0.000 N 
ATOM     18  C   UNL     1       6.070   5.668  17.516  0.00  0.00    +0.000 A 
ATOM     19  C   UNL     1       5.620   6.811  16.900  0.00  0.00    +0.000 A 
ATOM     20  N   UNL     1       4.345   7.116  17.305  0.00  0.00    +0.000 NA
ATOM     21  C   UNL     1       4.014   6.175  18.180  0.00  0.00    +0.000 A 
ENDBRANCH  12  21
ENDBRANCH  11  14
ENDBRANCH   1  11
BRANCH   8  22
ATOM     22  C   UNL     1      -1.630  11.912  17.611  0.00  0.00    +0.000 C 
BRANCH  22  23
ATOM     23  C   UNL     1      -2.428  10.639  17.462  0.00  0.00    +0.000 C 
ATOM     24  C   UNL     1      -3.819  10.653  16.874  0.00  0.00    +0.000 C 
ATOM     25  C   UNL     1      -2.685  10.066  16.087  0.00  0.00    +0.000 C 
ENDBRANCH  22  23
ENDBRANCH   8  22
TORSDOF 5
ENDMDL
MODEL 7
REMARK VINA RESULT:      -6.6      2.506      3.930
REMARK  Name = 
REMARK  6 active torsions:
REMARK  status: ('A' for Active; 'I' for Inactive)
REMARK    1  A    between atoms: C_1  and  N_2
REMARK    2  A    between atoms: C_6  and  C_7
REMARK    3  A    between atoms: N_9  and  C_10
REMARK    4  A    between atoms: C_10  and  C_11
REMARK    5  A    between atoms: N_18  and  C_19
REMARK    6  A    between atoms: C_19  and  C_20
REMARK                            x       y       z     vdW  Elec       q    Type
REMARK                         _______ _______ _______ _____ _____    ______ ____
ROOT
ATOM      1  C   UNL     1       1.989   5.233  19.619  0.00  0.00    +0.000 A 
ATOM      2  C   UNL     1       1.234   4.137  19.265  0.00  0.00    +0.000 A 
ATOM      3  N   UNL     1       1.790   3.472  18.215  0.00  0.00    +0.000 NA
ATOM      4  C   UNL     1       2.873   4.160  17.903  0.00  0.00    +0.000 A 
ATOM      5  N   UNL     1       2.932   5.342  18.610  0.00  0.00    +0.000 N 
ATOM      6  C   UNL     1       3.837   6.458  18.363  0.00  0.00    +0.000 C 
ATOM      7  C   UNL     1       4.482   6.520  16.948  0.00  0.00    +0.000 C 
ATOM      8  N   UNL     1       5.519   5.526  16.594  0.00  0.00    +0.000 NA
ATOM      9  C   UNL     1       5.317   4.228  17.251  0.00  0.00    +0.000 C 
ATOM     10  C   UNL     1       3.919   3.675  16.954  0.00  0.00    +0.000 C 
ENDROOT
BRANCH   1  11
ATOM     11  C   UNL     1       1.906   6.052  20.850  0.00  0.00    +0.000 C 
BRANCH  11  14
ATOM     12  C   UNL     1       0.884   8.282  20.835  0.00  0.00    +0.000 C 
ATOM     13  O   UNL     1      -0.058   7.922  21.533  0.00  0.00    +0.000 OA
ATOM     14  N   UNL     1       1.923   7.446  20.517  0.00  0.00    +0.000 N 
ATOM     15  H   UNL     1       2.653   7.826  19.924  0.00  0.00    +0.000 HD
BRANCH  12  21
ATOM     16  C   UNL     1       1.335   8.968  17.880  0.00  0.00    +0.000 C 
ATOM     17  N   UNL     1       1.224   9.923  18.954  0.00  0.00    +0.000 N 
ATOM     18  C   UNL     1       1.277  11.282  18.830  0.00  0.00    +0.000 A 
ATOM     19  C   UNL     1       1.117  11.762  20.108  0.00  0.00    +0.000 A 
ATOM     20  N   UNL     1       0.945  10.733  20.999  0.00  0.00    +0.000 NA
ATOM     21  C   UNL     1       1.015   9.622  20.278  0.00  0.00    +0.000 A 
ENDBRANCH  12  21
ENDBRANCH  11  14
ENDBRANCH   1  11
BRANCH   8  22
ATOM     22  C   UNL     1       6.887   6.047  16.689  0.00  0.00    +0.000 C 
BRANCH  22  23
ATOM     23  C   UNL     1       7.024   7.099  17.762  0.00  0.00    +0.000 C 
ATOM     24  C   UNL     1       8.268   7.191  18.614  0.00  0.00    +0.000 C 
ATOM     25  C   UNL     1       7.996   8.243  17.579  0.00  0.00    +0.000 C 
ENDBRANCH  22  23
ENDBRANCH   8  22
TORSDOF 5
ENDMDL
MODEL 8
REMARK VINA RESULT:      -6.5      1.899      3.390
REMARK  Name = 
REMARK  6 active torsions:
REMARK  status: ('A' for Active; 'I' for Inactive)
REMARK    1  A    between atoms: C_1  and  N_2
REMARK    2  A    between atoms: C_6  and  C_7
REMARK    3  A    between atoms: N_9  and  C_10
REMARK    4  A    between atoms: C_10  and  C_11
REMARK    5  A    between atoms: N_18  and  C_19
REMARK    6  A    between atoms: C_19  and  C_20
REMARK                            x       y       z     vdW  Elec       q    Type
REMARK                         _______ _______ _______ _____ _____    ______ ____
ROOT
ATOM      1  C   UNL     1       2.341   6.661  19.499  0.00  0.00    +0.000 A 
ATOM      2  C   UNL     1       1.914   5.906  20.569  0.00  0.00    +0.000 A 
ATOM      3  N   UNL     1       2.591   4.726  20.644  0.00  0.00    +0.000 NA
ATOM      4  C   UNL     1       3.421   4.737  19.616  0.00  0.00    +0.000 A 
ATOM      5  N   UNL     1       3.172   5.810  18.787  0.00  0.00    +0.000 N 
ATOM      6  C   UNL     1       3.712   6.018  17.449  0.00  0.00    +0.000 C 
ATOM      7  C   UNL     1       4.253   4.753  16.722  0.00  0.00    +0.000 C 
ATOM      8  N   UNL     1       5.514   4.142  17.199  0.00  0.00    +0.000 NA
ATOM      9  C   UNL     1       5.715   4.299  18.644  0.00  0.00    +0.000 C 
ATOM     10  C   UNL     1       4.521   3.745  19.429  0.00  0.00    +0.000 C 
ENDROOT
BRANCH   1  11
ATOM     11  C   UNL     1       2.081   8.091  19.217  0.00  0.00    +0.000 C 
BRANCH  11  14
ATOM     12  C   UNL     1       0.649   9.881  20.089  0.00  0.00    +0.000 C 
ATOM     13  O   UNL     1       0.729  10.533  19.054  0.00  0.00    +0.000 OA
ATOM     14  N   UNL     1       1.222   8.643  20.223  0.00  0.00    +0.000 N 
ATOM     15  H   UNL     1       1.116   8.182  21.121  0.00  0.00    +0.000 HD
BRANCH  12  21
ATOM     16  C   UNL     1      -0.811  12.560  20.409  0.00  0.00    +0.000 C 
ATOM     17  N   UNL     1      -0.707  11.537  21.419  0.00  0.00    +0.000 N 
ATOM     18  C   UNL     1      -1.259  11.581  22.668  0.00  0.00    +0.000 A 
ATOM     19  C   UNL     1      -0.902  10.391  23.256  0.00  0.00    +0.000 A 
ATOM     20  N   UNL     1      -0.171   9.617  22.391  0.00  0.00    +0.000 NA
ATOM     21  C   UNL     1      -0.061  10.332  21.279  0.00  0.00    +0.000 A 
ENDBRANCH  12  21
ENDBRANCH  11  14
ENDBRANCH   1  11
BRANCH   8  22
ATOM     22  C   UNL     1       6.680   4.494  16.381  0.00  0.00    +0.000 C 
BRANCH  22  23
ATOM     23  C   UNL     1       6.294   4.898  14.980  0.00  0.00    +0.000 C 
ATOM     24  C   UNL     1       7.332   5.031  13.891  0.00  0.00    +0.000 C 
ATOM     25  C   UNL     1       6.362   3.888  13.857  0.00  0.00    +0.000 C 
ENDBRANCH  22  23
ENDBRANCH   8  22
TORSDOF 5
ENDMDL
MODEL 9
REMARK VINA RESULT:      -6.5      3.562      8.257
REMARK  Name = 
REMARK  6 active torsions:
REMARK  status: ('A' for Active; 'I' for Inactive)
REMARK    1  A    between atoms: C_1  and  N_2
REMARK    2  A    between atoms: C_6  and  C_7
REMARK    3  A    between atoms: N_9  and  C_10
REMARK    4  A    between atoms: C_10  and  C_11
REMARK    5  A    between atoms: N_18  and  C_19
REMARK    6  A    between atoms: C_19  and  C_20
REMARK                            x       y       z     vdW  Elec       q    Type
REMARK                         _______ _______ _______ _____ _____    ______ ____
ROOT
ATOM      1  C   UNL     1       2.075   8.030  19.434  0.00  0.00    +0.000 A 
ATOM      2  C   UNL     1       1.999   7.644  20.754  0.00  0.00    +0.000 A 
ATOM      3  N   UNL     1       1.052   8.358  21.425  0.00  0.00    +0.000 NA
ATOM      4  C   UNL     1       0.555   9.197  20.534  0.00  0.00    +0.000 A 
ATOM      5  N   UNL     1       1.276   9.161  19.360  0.00  0.00    +0.000 N 
ATOM      6  C   UNL     1       1.181  10.103  18.252  0.00  0.00    +0.000 C 
ATOM      7  C   UNL     1       0.552  11.489  18.580  0.00  0.00    +0.000 C 
ATOM      8  N   UNL     1      -0.902  11.565  18.846  0.00  0.00    +0.000 NA
ATOM      9  C   UNL     1      -1.433  10.351  19.477  0.00  0.00    +0.000 C 
ATOM     10  C   UNL     1      -0.669  10.021  20.764  0.00  0.00    +0.000 C 
ENDROOT
BRANCH   1  11
ATOM     11  C   UNL     1       2.751   7.345  18.310  0.00  0.00    +0.000 C 
BRANCH  11  14
ATOM     12  C   UNL     1       3.540   5.108  18.937  0.00  0.00    +0.000 C 
ATOM     13  O   UNL     1       4.561   5.546  19.456  0.00  0.00    +0.000 OA
ATOM     14  N   UNL     1       2.570   5.926  18.418  0.00  0.00    +0.000 N 
ATOM     15  H   UNL     1       1.766   5.475  17.996  0.00  0.00    +0.000 HD
BRANCH  12  21
ATOM     16  C   UNL     1       1.365   3.597  20.485  0.00  0.00    +0.000 C 
ATOM     17  N   UNL     1       2.265   3.015  19.521  0.00  0.00    +0.000 N 
ATOM     18  C   UNL     1       2.281   1.708  19.123  0.00  0.00    +0.000 A 
ATOM     19  C   UNL     1       3.292   1.632  18.195  0.00  0.00    +0.000 A 
ATOM     20  N   UNL     1       3.873   2.859  18.002  0.00  0.00    +0.000 NA
ATOM     21  C   UNL     1       3.236   3.688  18.820  0.00  0.00    +0.000 A 
ENDBRANCH  12  21
ENDBRANCH  11  14
ENDBRANCH   1  11
BRANCH   8  22
ATOM     22  C   UNL     1      -1.682  12.046  17.700  0.00  0.00    +0.000 C 
BRANCH  22  23
ATOM     23  C   UNL     1      -2.577  10.974  17.129  0.00  0.00    +0.000 C 
ATOM     24  C   UNL     1      -3.936  11.310  16.563  0.00  0.00    +0.000 C 
ATOM     25  C   UNL     1      -2.823  10.910  15.639  0.00  0.00    +0.000 C 
ENDBRANCH  22  23
ENDBRANCH   8  22
TORSDOF 5
ENDMDL
