MODEL 1
REMARK VINA RESULT:      -7.4      0.000      0.000
REMARK  Name = 
REMARK  12 active torsions:
REMARK  status: ('A' for Active; 'I' for Inactive)
REMARK    1  A    between atoms: C_1  and  C_2
REMARK    2  A    between atoms: C_2  and  O_3
REMARK    3  A    between atoms: O_3  and  C_4
REMARK    4  A    between atoms: C_4  and  C_6
REMARK    5  A    between atoms: C_10  and  O_11
REMARK    6  A    between atoms: O_11  and  C_12
REMARK    7  A    between atoms: C_13  and  O_14
REMARK    8  A    between atoms: O_14  and  C_15
REMARK    9  A    between atoms: C_18  and  C_19
REMARK   10  A    between atoms: C_19  and  C_20
REMARK   11  A    between atoms: C_20  and  N_21
REMARK   12  A    between atoms: N_24  and  C_25
REMARK                            x       y       z     vdW  Elec       q    Type
REMARK                         _______ _______ _______ _____ _____    ______ ____
ROOT
ATOM      1  C   UNL     1       2.777   3.758  18.040  0.00  0.00    +0.000 A 
ATOM      2  N   UNL     1       3.671   3.304  17.107  0.00  0.00    +0.000 N 
ATOM      3  C   UNL     1       4.655   4.237  16.861  0.00  0.00    +0.000 A 
ATOM      4  C   UNL     1       5.718   4.271  15.941  0.00  0.00    +0.000 A 
ATOM      5  C   UNL     1       6.558   5.419  15.865  0.00  0.00    +0.000 A 
ATOM      6  C   UNL     1       6.334   6.497  16.729  0.00  0.00    +0.000 A 
ATOM      7  C   UNL     1       5.262   6.414  17.644  0.00  0.00    +0.000 A 
ATOM      8  C   UNL     1       4.404   5.301  17.716  0.00  0.00    +0.000 A 
ATOM      9  C   UNL     1       3.227   5.008  18.465  0.00  0.00    +0.000 A 
ATOM     10  H   UNL     1       3.588   2.413  16.623  0.00  0.00    +0.000 HD
ENDROOT
BRANCH   1  11
ATOM     11  C   UNL     1       1.586   3.072  18.493  0.00  0.00    +0.000 C 
ATOM     12  O   UNL     1       0.458   3.245  18.051  0.00  0.00    +0.000 OA
BRANCH  11  13
ATOM     13  O   UNL     1       1.876   2.285  19.567  0.00  0.00    +0.000 OA
BRANCH  13  15
ATOM     14  C   UNL     1       2.327   3.080  21.761  0.00  0.00    +0.000 C 
ATOM     15  C   UNL     1       1.232   2.736  20.766  0.00  0.00    +0.000 C 
ENDBRANCH  13  15
ENDBRANCH  11  13
ENDBRANCH   1  11
BRANCH   5  16
ATOM     16  O   UNL     1       7.393   5.353  14.778  0.00  0.00    +0.000 OA
ATOM     17  C   UNL     1       6.993   4.591  13.652  0.00  0.00    +0.000 C 
ENDBRANCH   5  16
BRANCH   6  18
ATOM     18  O   UNL     1       6.899   7.724  16.886  0.00  0.00    +0.000 OA
ATOM     19  C   UNL     1       7.917   8.051  17.796  0.00  0.00    +0.000 C 
ENDBRANCH   6  18
BRANCH   9  20
ATOM     20  C   UNL     1       2.525   5.930  19.429  0.00  0.00    +0.000 C 
BRANCH  20  21
ATOM     21  C   UNL     1       1.909   7.087  18.628  0.00  0.00    +0.000 C 
BRANCH  21  22
ATOM     22  N   UNL     1       2.417   8.454  18.842  0.00  0.00    +0.000 NA
ATOM     23  C   UNL     1       1.912   9.442  17.863  0.00  0.00    +0.000 C 
ATOM     24  C   UNL     1       0.384   9.681  17.904  0.00  0.00    +0.000 C 
ATOM     25  N   UNL     1      -0.060   9.965  19.279  0.00  0.00    +0.000 N 
ATOM     26  C   UNL     1       0.439   9.074  20.334  0.00  0.00    +0.000 C 
ATOM     27  C   UNL     1       1.973   8.905  20.191  0.00  0.00    +0.000 C 
BRANCH  25  28
ATOM     28  C   UNL     1      -1.058  10.878  19.557  0.00  0.00    +0.000 A 
ATOM     29  C   UNL     1      -2.076  11.171  18.635  0.00  0.00    +0.000 A 
ATOM     30  C   UNL     1      -3.144  12.008  18.959  0.00  0.00    +0.000 A 
ATOM     31  C   UNL     1      -3.212  12.587  20.221  0.00  0.00    +0.000 A 
ATOM     32  C   UNL     1      -2.206  12.336  21.147  0.00  0.00    +0.000 A 
ATOM     33  C   UNL     1      -1.143  11.495  20.811  0.00  0.00    +0.000 A 
ENDBRANCH  25  28
ENDBRANCH  21  22
ENDBRANCH  20  21
ENDBRANCH   9  20
TORSDOF 9
ENDMDL
MODEL 2
REMARK VINA RESULT:      -7.0      2.493      8.029
REMARK  Name = 
REMARK  12 active torsions:
REMARK  status: ('A' for Active; 'I' for Inactive)
REMARK    1  A    between atoms: C_1  and  C_2
REMARK    2  A    between atoms: C_2  and  O_3
REMARK    3  A    between atoms: O_3  and  C_4
REMARK    4  A    between atoms: C_4  and  C_6
REMARK    5  A    between atoms: C_10  and  O_11
REMARK    6  A    between atoms: O_11  and  C_12
REMARK    7  A    between atoms: C_13  and  O_14
REMARK    8  A    between atoms: O_14  and  C_15
REMARK    9  A    between atoms: C_18  and  C_19
REMARK   10  A    between atoms: C_19  and  C_20
REMARK   11  A    between atoms: C_20  and  N_21
REMARK   12  A    between atoms: N_24  and  C_25
REMARK                            x       y       z     vdW  Elec       q    Type
REMARK                         _______ _______ _______ _____ _____    ______ ____
ROOT
ATOM      1  C   UNL     1       2.319   4.984  20.517  0.00  0.00    +0.000 A 
ATOM      2  N   UNL     1       1.478   5.848  21.168  0.00  0.00    +0.000 N 
ATOM      3  C   UNL     1       1.437   7.074  20.541  0.00  0.00    +0.000 A 
ATOM      4  C   UNL     1       0.806   8.287  20.874  0.00  0.00    +0.000 A 
ATOM      5  C   UNL     1       0.994   9.436  20.054  0.00  0.00    +0.000 A 
ATOM      6  C   UNL     1       1.785   9.342  18.903  0.00  0.00    +0.000 A 
ATOM      7  C   UNL     1       2.389   8.102  18.602  0.00  0.00    +0.000 A 
ATOM      8  C   UNL     1       2.239   6.962  19.415  0.00  0.00    +0.000 A 
ATOM      9  C   UNL     1       2.795   5.650  19.388  0.00  0.00    +0.000 A 
ATOM     10  H   UNL     1       0.989   5.626  22.033  0.00  0.00    +0.000 HD
ENDROOT
BRANCH   1  11
ATOM     11  C   UNL     1       2.653   3.638  20.928  0.00  0.00    +0.000 C 
ATOM     12  O   UNL     1       2.753   3.256  22.086  0.00  0.00    +0.000 OA
BRANCH  11  13
ATOM     13  O   UNL     1       2.957   2.875  19.840  0.00  0.00    +0.000 OA
BRANCH  13  15
ATOM     14  C   UNL     1       0.912   2.562  18.671  0.00  0.00    +0.000 C 
ATOM     15  C   UNL     1       1.950   1.895  19.559  0.00  0.00    +0.000 C 
ENDBRANCH  13  15
ENDBRANCH  11  13
ENDBRANCH   1  11
BRANCH   5  16
ATOM     16  O   UNL     1       0.480  10.560  20.649  0.00  0.00    +0.000 OA
ATOM     17  C   UNL     1      -0.718  11.120  20.139  0.00  0.00    +0.000 C 
ENDBRANCH   5  16
BRANCH   6  18
ATOM     18  O   UNL     1       2.197  10.226  17.956  0.00  0.00    +0.000 OA
ATOM     19  C   UNL     1       2.326  11.613  18.127  0.00  0.00    +0.000 C 
ENDBRANCH   6  18
BRANCH   9  20
ATOM     20  C   UNL     1       3.813   5.127  18.406  0.00  0.00    +0.000 C 
BRANCH  20  21
ATOM     21  C   UNL     1       5.210   5.302  19.020  0.00  0.00    +0.000 C 
BRANCH  21  22
ATOM     22  N   UNL     1       6.177   6.192  18.353  0.00  0.00    +0.000 NA
ATOM     23  C   UNL     1       7.407   5.507  17.896  0.00  0.00    +0.000 C 
ATOM     24  C   UNL     1       7.190   4.430  16.807  0.00  0.00    +0.000 C 
ATOM     25  N   UNL     1       6.394   4.972  15.692  0.00  0.00    +0.000 N 
ATOM     26  C   UNL     1       5.183   5.723  16.047  0.00  0.00    +0.000 C 
ATOM     27  C   UNL     1       5.518   6.764  17.145  0.00  0.00    +0.000 C 
BRANCH  25  28
ATOM     28  C   UNL     1       6.634   4.623  14.379  0.00  0.00    +0.000 A 
ATOM     29  C   UNL     1       5.886   3.633  13.723  0.00  0.00    +0.000 A 
ATOM     30  C   UNL     1       6.055   3.360  12.364  0.00  0.00    +0.000 A 
ATOM     31  C   UNL     1       6.995   4.072  11.627  0.00  0.00    +0.000 A 
ATOM     32  C   UNL     1       7.768   5.042  12.255  0.00  0.00    +0.000 A 
ATOM     33  C   UNL     1       7.589   5.306  13.614  0.00  0.00    +0.000 A 
ENDBRANCH  25  28
ENDBRANCH  21  22
ENDBRANCH  20  21
ENDBRANCH   9  20
TORSDOF 9
ENDMDL
MODEL 3
REMARK VINA RESULT:      -7.0      1.483      2.200
REMARK  Name = 
REMARK  12 active torsions:
REMARK  status: ('A' for Active; 'I' for Inactive)
REMARK    1  A    between atoms: C_1  and  C_2
REMARK    2  A    between atoms: C_2  and  O_3
REMARK    3  A    between atoms: O_3  and  C_4
REMARK    4  A    between atoms: C_4  and  C_6
REMARK    5  A    between atoms: C_10  and  O_11
REMARK    6  A    between atoms: O_11  and  C_12
REMARK    7  A    between atoms: C_13  and  O_14
REMARK    8  A    between atoms: O_14  and  C_15
REMARK    9  A    between atoms: C_18  and  C_19
REMARK   10  A    between atoms: C_19  and  C_20
REMARK   11  A    between atoms: C_20  and  N_21
REMARK   12  A    between atoms: N_24  and  C_25
REMARK                            x       y       z     vdW  Elec       q    Type
REMARK                         _______ _______ _______ _____ _____    ______ ____
ROOT
ATOM      1  C   UNL     1       4.077   3.131  17.893  0.00  0.00    +0.000 A 
ATOM      2  N   UNL     1       4.646   2.932  16.663  0.00  0.00    +0.000 N 
ATOM      3  C   UNL     1       5.580   3.905  16.380  0.00  0.00    +0.000 A 
ATOM      4  C   UNL     1       6.346   4.177  15.232  0.00  0.00    +0.000 A 
ATOM      5  C   UNL     1       7.203   5.314  15.200  0.00  0.00    +0.000 A 
ATOM      6  C   UNL     1       7.297   6.140  16.326  0.00  0.00    +0.000 A 
ATOM      7  C   UNL     1       6.518   5.822  17.460  0.00  0.00    +0.000 A 
ATOM      8  C   UNL     1       5.645   4.719  17.502  0.00  0.00    +0.000 A 
ATOM      9  C   UNL     1       4.706   4.238  18.461  0.00  0.00    +0.000 A 
ATOM     10  H   UNL     1       4.375   2.190  16.022  0.00  0.00    +0.000 HD
ENDROOT
BRANCH   1  11
ATOM     11  C   UNL     1       3.017   2.344  18.486  0.00  0.00    +0.000 C 
ATOM     12  O   UNL     1       3.169   1.278  19.068  0.00  0.00    +0.000 OA
BRANCH  11  13
ATOM     13  O   UNL     1       1.805   2.899  18.205  0.00  0.00    +0.000 OA
BRANCH  13  15
ATOM     14  C   UNL     1       0.881   3.171  20.378  0.00  0.00    +0.000 C 
ATOM     15  C   UNL     1       0.767   2.412  19.066  0.00  0.00    +0.000 C 
ENDBRANCH  13  15
ENDBRANCH  11  13
ENDBRANCH   1  11
BRANCH   5  16
ATOM     16  O   UNL     1       7.697   5.528  13.938  0.00  0.00    +0.000 OA
ATOM     17  C   UNL     1       7.283   4.674  12.886  0.00  0.00    +0.000 C 
ENDBRANCH   5  16
BRANCH   6  18
ATOM     18  O   UNL     1       7.960   7.293  16.607  0.00  0.00    +0.000 OA
ATOM     19  C   UNL     1       7.753   8.108  17.731  0.00  0.00    +0.000 C 
ENDBRANCH   6  18
BRANCH   9  20
ATOM     20  C   UNL     1       4.359   4.885  19.778  0.00  0.00    +0.000 C 
BRANCH  20  21
ATOM     21  C   UNL     1       3.602   6.190  19.491  0.00  0.00    +0.000 C 
BRANCH  21  22
ATOM     22  N   UNL     1       2.133   6.154  19.379  0.00  0.00    +0.000 NA
ATOM     23  C   UNL     1       1.433   6.954  20.408  0.00  0.00    +0.000 C 
ATOM     24  C   UNL     1       1.700   8.476  20.349  0.00  0.00    +0.000 C 
ATOM     25  N   UNL     1       1.481   8.989  18.985  0.00  0.00    +0.000 N 
ATOM     26  C   UNL     1       2.087   8.227  17.886  0.00  0.00    +0.000 C 
ATOM     27  C   UNL     1       1.758   6.721  18.052  0.00  0.00    +0.000 C 
BRANCH  25  28
ATOM     28  C   UNL     1       0.925  10.229  18.746  0.00  0.00    +0.000 A 
ATOM     29  C   UNL     1      -0.446  10.393  18.494  0.00  0.00    +0.000 A 
ATOM     30  C   UNL     1      -1.026  11.656  18.363  0.00  0.00    +0.000 A 
ATOM     31  C   UNL     1      -0.235  12.795  18.471  0.00  0.00    +0.000 A 
ATOM     32  C   UNL     1       1.131  12.664  18.696  0.00  0.00    +0.000 A 
ATOM     33  C   UNL     1       1.698  11.394  18.826  0.00  0.00    +0.000 A 
ENDBRANCH  25  28
ENDBRANCH  21  22
ENDBRANCH  20  21
ENDBRANCH   9  20
TORSDOF 9
ENDMDL
MODEL 4
REMARK VINA RESULT:      -6.8      1.568      1.875
REMARK  Name = 
REMARK  12 active torsions:
REMARK  status: ('A' for Active; 'I' for Inactive)
REMARK    1  A    between atoms: C_1  and  C_2
REMARK    2  A    between atoms: C_2  and  O_3
REMARK    3  A    between atoms: O_3  and  C_4
REMARK    4  A    between atoms: C_4  and  C_6
REMARK    5  A    between atoms: C_10  and  O_11
REMARK    6  A    between atoms: O_11  and  C_12
REMARK    7  A    between atoms: C_13  and  O_14
REMARK    8  A    between atoms: O_14  and  C_15
REMARK    9  A    between atoms: C_18  and  C_19
REMARK   10  A    between atoms: C_19  and  C_20
REMARK   11  A    between atoms: C_20  and  N_21
REMARK   12  A    between atoms: N_24  and  C_25
REMARK                            x       y       z     vdW  Elec       q    Type
REMARK                         _______ _______ _______ _____ _____    ______ ____
ROOT
ATOM      1  C   UNL     1       3.252   3.723  17.878  0.00  0.00    +0.000 A 
ATOM      2  N   UNL     1       3.799   3.355  16.677  0.00  0.00    +0.000 N 
ATOM      3  C   UNL     1       4.909   4.115  16.381  0.00  0.00    +0.000 A 
ATOM      4  C   UNL     1       5.739   4.176  15.246  0.00  0.00    +0.000 A 
ATOM      5  C   UNL     1       6.801   5.124  15.190  0.00  0.00    +0.000 A 
ATOM      6  C   UNL     1       7.028   5.972  16.280  0.00  0.00    +0.000 A 
ATOM      7  C   UNL     1       6.177   5.868  17.402  0.00  0.00    +0.000 A 
ATOM      8  C   UNL     1       5.106   4.957  17.466  0.00  0.00    +0.000 A 
ATOM      9  C   UNL     1       4.071   4.715  18.415  0.00  0.00    +0.000 A 
ATOM     10  H   UNL     1       3.404   2.648  16.062  0.00  0.00    +0.000 HD
ENDROOT
BRANCH   1  11
ATOM     11  C   UNL     1       2.047   3.185  18.473  0.00  0.00    +0.000 C 
ATOM     12  O   UNL     1       0.906   3.436  18.110  0.00  0.00    +0.000 OA
BRANCH  11  13
ATOM     13  O   UNL     1       2.356   2.445  19.575  0.00  0.00    +0.000 OA
BRANCH  13  15
ATOM     14  C   UNL     1       2.093   3.244  21.798  0.00  0.00    +0.000 C 
ATOM     15  C   UNL     1       1.387   2.591  20.622  0.00  0.00    +0.000 C 
ENDBRANCH  13  15
ENDBRANCH  11  13
ENDBRANCH   1  11
BRANCH   5  16
ATOM     16  O   UNL     1       7.355   5.175  13.936  0.00  0.00    +0.000 OA
ATOM     17  C   UNL     1       6.916   4.253  12.954  0.00  0.00    +0.000 C 
ENDBRANCH   5  16
BRANCH   6  18
ATOM     18  O   UNL     1       7.895   6.989  16.530  0.00  0.00    +0.000 OA
ATOM     19  C   UNL     1       7.781   7.933  17.561  0.00  0.00    +0.000 C 
ENDBRANCH   6  18
BRANCH   9  20
ATOM     20  C   UNL     1       3.826   5.482  19.691  0.00  0.00    +0.000 C 
BRANCH  20  21
ATOM     21  C   UNL     1       3.173   6.825  19.328  0.00  0.00    +0.000 C 
BRANCH  21  22
ATOM     22  N   UNL     1       1.711   6.884  19.153  0.00  0.00    +0.000 NA
ATOM     23  C   UNL     1       0.951   6.793  20.420  0.00  0.00    +0.000 C 
ATOM     24  C   UNL     1       1.183   7.960  21.408  0.00  0.00    +0.000 C 
ATOM     25  N   UNL     1       1.004   9.256  20.731  0.00  0.00    +0.000 N 
ATOM     26  C   UNL     1       1.672   9.423  19.434  0.00  0.00    +0.000 C 
ATOM     27  C   UNL     1       1.375   8.198  18.533  0.00  0.00    +0.000 C 
BRANCH  25  28
ATOM     28  C   UNL     1       0.427  10.341  21.359  0.00  0.00    +0.000 A 
ATOM     29  C   UNL     1       0.584  11.651  20.877  0.00  0.00    +0.000 A 
ATOM     30  C   UNL     1      -0.090  12.732  21.447  0.00  0.00    +0.000 A 
ATOM     31  C   UNL     1      -0.937  12.526  22.531  0.00  0.00    +0.000 A 
ATOM     32  C   UNL     1      -1.094  11.244  23.045  0.00  0.00    +0.000 A 
ATOM     33  C   UNL     1      -0.414  10.171  22.466  0.00  0.00    +0.000 A 
ENDBRANCH  25  28
ENDBRANCH  21  22
ENDBRANCH  20  21
ENDBRANCH   9  20
TORSDOF 9
ENDMDL
MODEL 5
REMARK VINA RESULT:      -6.7      2.565      8.290
REMARK  Name = 
REMARK  12 active torsions:
REMARK  status: ('A' for Active; 'I' for Inactive)
REMARK    1  A    between atoms: C_1  and  C_2
REMARK    2  A    between atoms: C_2  and  O_3
REMARK    3  A    between atoms: O_3  and  C_4
REMARK    4  A    between atoms: C_4  and  C_6
REMARK    5  A    between atoms: C_10  and  O_11
REMARK    6  A    between atoms: O_11  and  C_12
REMARK    7  A    between atoms: C_13  and  O_14
REMARK    8  A    between atoms: O_14  and  C_15
REMARK    9  A    between atoms: C_18  and  C_19
REMARK   10  A    between atoms: C_19  and  C_20
REMARK   11  A    between atoms: C_20  and  N_21
REMARK   12  A    between atoms: N_24  and  C_25
REMARK                            x       y       z     vdW  Elec       q    Type
REMARK                         _______ _______ _______ _____ _____    ______ ____
ROOT
ATOM      1  C   UNL     1       1.878   5.980  20.605  0.00  0.00    +0.000 A 
ATOM      2  N   UNL     1       1.231   6.860  21.432  0.00  0.00    +0.000 N 
ATOM      3  C   UNL     1       1.127   8.106  20.854  0.00  0.00    +0.000 A 
ATOM      4  C   UNL     1       0.639   9.335  21.334  0.00  0.00    +0.000 A 
ATOM      5  C   UNL     1       0.716  10.500  20.519  0.00  0.00    +0.000 A 
ATOM      6  C   UNL     1       1.253  10.407  19.230  0.00  0.00    +0.000 A 
ATOM      7  C   UNL     1       1.720   9.151  18.785  0.00  0.00    +0.000 A 
ATOM      8  C   UNL     1       1.678   7.994  19.586  0.00  0.00    +0.000 A 
ATOM      9  C   UNL     1       2.150   6.659  19.417  0.00  0.00    +0.000 A 
ATOM     10  H   UNL     1       0.916   6.633  22.372  0.00  0.00    +0.000 HD
ENDROOT
BRANCH   1  11
ATOM     11  C   UNL     1       2.219   4.608  20.910  0.00  0.00    +0.000 C 
ATOM     12  O   UNL     1       2.679   4.212  21.972  0.00  0.00    +0.000 OA
BRANCH  11  13
ATOM     13  O   UNL     1       2.066   3.827  19.802  0.00  0.00    +0.000 OA
BRANCH  13  15
ATOM     14  C   UNL     1       0.855   2.101  18.706  0.00  0.00    +0.000 C 
ATOM     15  C   UNL     1       0.774   3.209  19.743  0.00  0.00    +0.000 C 
ENDBRANCH  13  15
ENDBRANCH  11  13
ENDBRANCH   1  11
BRANCH   5  16
ATOM     16  O   UNL     1       0.391  11.627  21.230  0.00  0.00    +0.000 OA
ATOM     17  C   UNL     1      -0.919  12.156  21.116  0.00  0.00    +0.000 C 
ENDBRANCH   5  16
BRANCH   6  18
ATOM     18  O   UNL     1       1.510  11.302  18.239  0.00  0.00    +0.000 OA
ATOM     19  C   UNL     1       2.463  12.331  18.286  0.00  0.00    +0.000 C 
ENDBRANCH   6  18
BRANCH   9  20
ATOM     20  C   UNL     1       2.922   6.122  18.238  0.00  0.00    +0.000 C 
BRANCH  20  21
ATOM     21  C   UNL     1       4.422   6.293  18.524  0.00  0.00    +0.000 C 
BRANCH  21  22
ATOM     22  N   UNL     1       5.293   5.105  18.498  0.00  0.00    +0.000 NA
ATOM     23  C   UNL     1       4.775   3.999  17.662  0.00  0.00    +0.000 C 
ATOM     24  C   UNL     1       4.657   4.318  16.154  0.00  0.00    +0.000 C 
ATOM     25  N   UNL     1       5.921   4.873  15.640  0.00  0.00    +0.000 N 
ATOM     26  C   UNL     1       6.548   5.937  16.434  0.00  0.00    +0.000 C 
ATOM     27  C   UNL     1       6.607   5.511  17.923  0.00  0.00    +0.000 C 
BRANCH  25  28
ATOM     28  C   UNL     1       6.396   4.578  14.378  0.00  0.00    +0.000 A 
ATOM     29  C   UNL     1       5.751   3.657  13.537  0.00  0.00    +0.000 A 
ATOM     30  C   UNL     1       6.167   3.443  12.222  0.00  0.00    +0.000 A 
ATOM     31  C   UNL     1       7.258   4.143  11.719  0.00  0.00    +0.000 A 
ATOM     32  C   UNL     1       7.933   5.043  12.536  0.00  0.00    +0.000 A 
ATOM     33  C   UNL     1       7.506   5.249  13.849  0.00  0.00    +0.000 A 
ENDBRANCH  25  28
ENDBRANCH  21  22
ENDBRANCH  20  21
ENDBRANCH   9  20
TORSDOF 9
ENDMDL
MODEL 6
REMARK VINA RESULT:      -6.7      2.917      5.827
REMARK  Name = 
REMARK  12 active torsions:
REMARK  status: ('A' for Active; 'I' for Inactive)
REMARK    1  A    between atoms: C_1  and  C_2
REMARK    2  A    between atoms: C_2  and  O_3
REMARK    3  A    between atoms: O_3  and  C_4
REMARK    4  A    between atoms: C_4  and  C_6
REMARK    5  A    between atoms: C_10  and  O_11
REMARK    6  A    between atoms: O_11  and  C_12
REMARK    7  A    between atoms: C_13  and  O_14
REMARK    8  A    between atoms: O_14  and  C_15
REMARK    9  A    between atoms: C_18  and  C_19
REMARK   10  A    between atoms: C_19  and  C_20
REMARK   11  A    between atoms: C_20  and  N_21
REMARK   12  A    between atoms: N_24  and  C_25
REMARK                            x       y       z     vdW  Elec       q    Type
REMARK                         _______ _______ _______ _____ _____    ______ ____
ROOT
ATOM      1  C   UNL     1       1.067   9.240  20.819  0.00  0.00    +0.000 A 
ATOM      2  N   UNL     1       1.431   8.136  21.543  0.00  0.00    +0.000 N 
ATOM      3  C   UNL     1       1.884   7.127  20.722  0.00  0.00    +0.000 A 
ATOM      4  C   UNL     1       2.274   5.800  20.980  0.00  0.00    +0.000 A 
ATOM      5  C   UNL     1       2.645   4.944  19.903  0.00  0.00    +0.000 A 
ATOM      6  C   UNL     1       2.643   5.440  18.594  0.00  0.00    +0.000 A 
ATOM      7  C   UNL     1       2.255   6.782  18.384  0.00  0.00    +0.000 A 
ATOM      8  C   UNL     1       1.859   7.635  19.431  0.00  0.00    +0.000 A 
ATOM      9  C   UNL     1       1.351   8.966  19.482  0.00  0.00    +0.000 A 
ATOM     10  H   UNL     1       1.330   8.056  22.553  0.00  0.00    +0.000 HD
ENDROOT
BRANCH   1  11
ATOM     11  C   UNL     1       0.490  10.459  21.345  0.00  0.00    +0.000 C 
ATOM     12  O   UNL     1       1.082  11.521  21.481  0.00  0.00    +0.000 OA
BRANCH  11  13
ATOM     13  O   UNL     1      -0.782  10.229  21.778  0.00  0.00    +0.000 OA
BRANCH  13  15
ATOM     14  C   UNL     1      -2.067  11.767  23.055  0.00  0.00    +0.000 C 
ATOM     15  C   UNL     1      -0.996  10.691  23.118  0.00  0.00    +0.000 C 
ENDBRANCH  13  15
ENDBRANCH  11  13
ENDBRANCH   1  11
BRANCH   5  16
ATOM     16  O   UNL     1       2.786   3.647  20.326  0.00  0.00    +0.000 OA
ATOM     17  C   UNL     1       1.623   2.883  20.594  0.00  0.00    +0.000 C 
ENDBRANCH   5  16
BRANCH   6  18
ATOM     18  O   UNL     1       2.889   4.900  17.371  0.00  0.00    +0.000 OA
ATOM     19  C   UNL     1       3.945   4.033  17.052  0.00  0.00    +0.000 C 
ENDBRANCH   6  18
BRANCH   9  20
ATOM     20  C   UNL     1       1.046   9.855  18.303  0.00  0.00    +0.000 C 
BRANCH  20  21
ATOM     21  C   UNL     1      -0.480   9.970  18.168  0.00  0.00    +0.000 C 
BRANCH  21  22
ATOM     22  N   UNL     1      -1.044  11.040  17.324  0.00  0.00    +0.000 NA
ATOM     23  C   UNL     1      -2.322  10.679  16.672  0.00  0.00    +0.000 C 
ATOM     24  C   UNL     1      -3.498  10.408  17.638  0.00  0.00    +0.000 C 
ATOM     25  N   UNL     1      -3.645  11.515  18.600  0.00  0.00    +0.000 N 
ATOM     26  C   UNL     1      -2.420  11.988  19.257  0.00  0.00    +0.000 C 
ATOM     27  C   UNL     1      -1.314  12.218  18.196  0.00  0.00    +0.000 C 
BRANCH  25  28
ATOM     28  C   UNL     1      -4.879  11.954  19.034  0.00  0.00    +0.000 A 
ATOM     29  C   UNL     1      -6.038  11.803  18.256  0.00  0.00    +0.000 A 
ATOM     30  C   UNL     1      -7.301  12.145  18.742  0.00  0.00    +0.000 A 
ATOM     31  C   UNL     1      -7.432  12.664  20.026  0.00  0.00    +0.000 A 
ATOM     32  C   UNL     1      -6.299  12.848  20.810  0.00  0.00    +0.000 A 
ATOM     33  C   UNL     1      -5.041  12.501  20.313  0.00  0.00    +0.000 A 
ENDBRANCH  25  28
ENDBRANCH  21  22
ENDBRANCH  20  21
ENDBRANCH   9  20
TORSDOF 9
ENDMDL
MODEL 7
REMARK VINA RESULT:      -6.7      1.438      1.789
REMARK  Name = 
REMARK  12 active torsions:
REMARK  status: ('A' for Active; 'I' for Inactive)
REMARK    1  A    between atoms: C_1  and  C_2
REMARK    2  A    between atoms: C_2  and  O_3
REMARK    3  A    between atoms: O_3  and  C_4
REMARK    4  A    between atoms: C_4  and  C_6
REMARK    5  A    between atoms: C_10  and  O_11
REMARK    6  A    between atoms: O_11  and  C_12
REMARK    7  A    between atoms: C_13  and  O_14
REMARK    8  A    between atoms: O_14  and  C_15
REMARK    9  A    between atoms: C_18  and  C_19
REMARK   10  A    between atoms: C_19  and  C_20
REMARK   11  A    between atoms: C_20  and  N_21
REMARK   12  A    between atoms: N_24  and  C_25
REMARK                            x       y       z     vdW  Elec       q    Type
REMARK                         _______ _______ _______ _____ _____    ______ ____
ROOT
ATOM      1  C   UNL     1       3.133   3.956  17.868  0.00  0.00    +0.000 A 
ATOM      2  N   UNL     1       3.813   3.564  16.745  0.00  0.00    +0.000 N 
ATOM      3  C   UNL     1       4.965   4.300  16.575  0.00  0.00    +0.000 A 
ATOM      4  C   UNL     1       5.926   4.332  15.548  0.00  0.00    +0.000 A 
ATOM      5  C   UNL     1       7.005   5.260  15.610  0.00  0.00    +0.000 A 
ATOM      6  C   UNL     1       7.116   6.118  16.710  0.00  0.00    +0.000 A 
ATOM      7  C   UNL     1       6.135   6.043  17.723  0.00  0.00    +0.000 A 
ATOM      8  C   UNL     1       5.047   5.152  17.667  0.00  0.00    +0.000 A 
ATOM      9  C   UNL     1       3.901   4.941  18.489  0.00  0.00    +0.000 A 
ATOM     10  H   UNL     1       3.481   2.856  16.094  0.00  0.00    +0.000 HD
ENDROOT
BRANCH   1  11
ATOM     11  C   UNL     1       1.856   3.448  18.319  0.00  0.00    +0.000 C 
ATOM     12  O   UNL     1       0.765   3.777  17.872  0.00  0.00    +0.000 OA
BRANCH  11  13
ATOM     13  O   UNL     1       2.028   2.631  19.397  0.00  0.00    +0.000 OA
BRANCH  13  15
ATOM     14  C   UNL     1       1.948   2.902  21.756  0.00  0.00    +0.000 C 
ATOM     15  C   UNL     1       1.136   2.949  20.473  0.00  0.00    +0.000 C 
ENDBRANCH  13  15
ENDBRANCH  11  13
ENDBRANCH   1  11
BRANCH   5  16
ATOM     16  O   UNL     1       7.706   5.286  14.431  0.00  0.00    +0.000 OA
ATOM     17  C   UNL     1       7.156   4.647  13.292  0.00  0.00    +0.000 C 
ENDBRANCH   5  16
BRANCH   6  18
ATOM     18  O   UNL     1       7.967   7.122  17.052  0.00  0.00    +0.000 OA
ATOM     19  C   UNL     1       7.608   8.331  17.667  0.00  0.00    +0.000 C 
ENDBRANCH   6  18
BRANCH   9  20
ATOM     20  C   UNL     1       3.520   5.727  19.718  0.00  0.00    +0.000 C 
BRANCH  20  21
ATOM     21  C   UNL     1       3.014   7.107  19.269  0.00  0.00    +0.000 C 
BRANCH  21  22
ATOM     22  N   UNL     1       1.565   7.317  19.104  0.00  0.00    +0.000 NA
ATOM     23  C   UNL     1       0.925   8.011  20.244  0.00  0.00    +0.000 C 
ATOM     24  C   UNL     1       1.411   9.458  20.486  0.00  0.00    +0.000 C 
ATOM     25  N   UNL     1       1.353  10.242  19.239  0.00  0.00    +0.000 N 
ATOM     26  C   UNL     1       1.909   9.612  18.035  0.00  0.00    +0.000 C 
ATOM     27  C   UNL     1       1.358   8.170  17.899  0.00  0.00    +0.000 C 
BRANCH  25  28
ATOM     28  C   UNL     1       0.996  11.575  19.224  0.00  0.00    +0.000 A 
ATOM     29  C   UNL     1      -0.110  12.041  18.495  0.00  0.00    +0.000 A 
ATOM     30  C   UNL     1      -0.535  13.368  18.569  0.00  0.00    +0.000 A 
ATOM     31  C   UNL     1       0.152  14.271  19.374  0.00  0.00    +0.000 A 
ATOM     32  C   UNL     1       1.265  13.845  20.088  0.00  0.00    +0.000 A 
ATOM     33  C   UNL     1       1.680  12.514  20.006  0.00  0.00    +0.000 A 
ENDBRANCH  25  28
ENDBRANCH  21  22
ENDBRANCH  20  21
ENDBRANCH   9  20
TORSDOF 9
ENDMDL
MODEL 8
REMARK VINA RESULT:      -6.7      2.755      4.907
REMARK  Name = 
REMARK  12 active torsions:
REMARK  status: ('A' for Active; 'I' for Inactive)
REMARK    1  A    between atoms: C_1  and  C_2
REMARK    2  A    between atoms: C_2  and  O_3
REMARK    3  A    between atoms: O_3  and  C_4
REMARK    4  A    between atoms: C_4  and  C_6
REMARK    5  A    between atoms: C_10  and  O_11
REMARK    6  A    between atoms: O_11  and  C_12
REMARK    7  A    between atoms: C_13  and  O_14
REMARK    8  A    between atoms: O_14  and  C_15
REMARK    9  A    between atoms: C_18  and  C_19
REMARK   10  A    between atoms: C_19  and  C_20
REMARK   11  A    between atoms: C_20  and  N_21
REMARK   12  A    between atoms: N_24  and  C_25
REMARK                            x       y       z     vdW  Elec       q    Type
REMARK                         _______ _______ _______ _____ _____    ______ ____
ROOT
ATOM      1  C   UNL     1       1.230   8.180  20.653  0.00  0.00    +0.000 A 
ATOM      2  N   UNL     1       1.846   6.974  20.860  0.00  0.00    +0.000 N 
ATOM      3  C   UNL     1       2.659   6.639  19.800  0.00  0.00    +0.000 A 
ATOM      4  C   UNL     1       3.410   5.486  19.510  0.00  0.00    +0.000 A 
ATOM      5  C   UNL     1       4.122   5.389  18.280  0.00  0.00    +0.000 A 
ATOM      6  C   UNL     1       4.091   6.458  17.378  0.00  0.00    +0.000 A 
ATOM      7  C   UNL     1       3.333   7.601  17.715  0.00  0.00    +0.000 A 
ATOM      8  C   UNL     1       2.600   7.705  18.913  0.00  0.00    +0.000 A 
ATOM      9  C   UNL     1       1.707   8.682  19.443  0.00  0.00    +0.000 A 
ATOM     10  H   UNL     1       1.681   6.380  21.670  0.00  0.00    +0.000 HD
ENDROOT
BRANCH   1  11
ATOM     11  C   UNL     1       0.263   8.811  21.525  0.00  0.00    +0.000 C 
ATOM     12  O   UNL     1      -0.872   8.404  21.735  0.00  0.00    +0.000 OA
BRANCH  11  13
ATOM     13  O   UNL     1       0.753   9.993  21.995  0.00  0.00    +0.000 OA
BRANCH  13  15
ATOM     14  C   UNL     1       0.312  12.242  21.365  0.00  0.00    +0.000 C 
ATOM     15  C   UNL     1      -0.251  11.015  22.061  0.00  0.00    +0.000 C 
ENDBRANCH  13  15
ENDBRANCH  11  13
ENDBRANCH   1  11
BRANCH   5  16
ATOM     16  O   UNL     1       4.613   4.122  18.088  0.00  0.00    +0.000 OA
ATOM     17  C   UNL     1       3.731   3.104  17.647  0.00  0.00    +0.000 C 
ENDBRANCH   5  16
BRANCH   6  18
ATOM     18  O   UNL     1       4.602   6.671  16.136  0.00  0.00    +0.000 OA
ATOM     19  C   UNL     1       5.431   5.789  15.426  0.00  0.00    +0.000 C 
ENDBRANCH   6  18
BRANCH   9  20
ATOM     20  C   UNL     1       1.256   9.948  18.760  0.00  0.00    +0.000 C 
BRANCH  20  21
ATOM     21  C   UNL     1      -0.254   9.842  18.495  0.00  0.00    +0.000 C 
BRANCH  21  22
ATOM     22  N   UNL     1      -0.842  10.625  17.394  0.00  0.00    +0.000 NA
ATOM     23  C   UNL     1      -2.063  10.023  16.815  0.00  0.00    +0.000 C 
ATOM     24  C   UNL     1      -3.264   9.917  17.783  0.00  0.00    +0.000 C 
ATOM     25  N   UNL     1      -3.524  11.215  18.431  0.00  0.00    +0.000 N 
ATOM     26  C   UNL     1      -2.363  11.922  18.985  0.00  0.00    +0.000 C 
ATOM     27  C   UNL     1      -1.225  11.961  17.934  0.00  0.00    +0.000 C 
BRANCH  25  28
ATOM     28  C   UNL     1      -4.802  11.658  18.704  0.00  0.00    +0.000 A 
ATOM     29  C   UNL     1      -5.922  11.172  18.011  0.00  0.00    +0.000 A 
ATOM     30  C   UNL     1      -7.223  11.538  18.363  0.00  0.00    +0.000 A 
ATOM     31  C   UNL     1      -7.432  12.417  19.420  0.00  0.00    +0.000 A 
ATOM     32  C   UNL     1      -6.342  12.933  20.110  0.00  0.00    +0.000 A 
ATOM     33  C   UNL     1      -5.045  12.559  19.749  0.00  0.00    +0.000 A 
ENDBRANCH  25  28
ENDBRANCH  21  22
ENDBRANCH  20  21
ENDBRANCH   9  20
TORSDOF 9
ENDMDL
MODEL 9
REMARK VINA RESULT:      -6.6      0.843      1.245
REMARK  Name = 
REMARK  12 active torsions:
REMARK  status: ('A' for Active; 'I' for Inactive)
REMARK    1  A    between atoms: C_1  and  C_2
REMARK    2  A    between atoms: C_2  and  O_3
REMARK    3  A    between atoms: O_3  and  C_4
REMARK    4  A    between atoms: C_4  and  C_6
REMARK    5  A    between atoms: C_10  and  O_11
REMARK    6  A    between atoms: O_11  and  C_12
REMARK    7  A    between atoms: C_13  and  O_14
REMARK    8  A    between atoms: O_14  and  C_15
REMARK    9  A    between atoms: C_18  and  C_19
REMARK   10  A    between atoms: C_19  and  C_20
REMARK   11  A    between atoms: C_20  and  N_21
REMARK   12  A    between atoms: N_24  and  C_25
REMARK                            x       y       z     vdW  Elec       q    Type
REMARK                         _______ _______ _______ _____ _____    ______ ____
ROOT
ATOM      1  C   UNL     1       2.712   4.381  18.622  0.00  0.00    +0.000 A 
ATOM      2  N   UNL     1       3.514   3.692  17.751  0.00  0.00    +0.000 N 
ATOM      3  C   UNL     1       4.579   4.461  17.337  0.00  0.00    +0.000 A 
ATOM      4  C   UNL     1       5.601   4.235  16.397  0.00  0.00    +0.000 A 
ATOM      5  C   UNL     1       6.554   5.258  16.121  0.00  0.00    +0.000 A 
ATOM      6  C   UNL     1       6.481   6.474  16.809  0.00  0.00    +0.000 A 
ATOM      7  C   UNL     1       5.445   6.653  17.752  0.00  0.00    +0.000 A 
ATOM      8  C   UNL     1       4.478   5.665  18.019  0.00  0.00    +0.000 A 
ATOM      9  C   UNL     1       3.309   5.623  18.834  0.00  0.00    +0.000 A 
ATOM     10  H   UNL     1       3.317   2.751  17.415  0.00  0.00    +0.000 HD
ENDROOT
BRANCH   1  11
ATOM     11  C   UNL     1       1.475   3.908  19.206  0.00  0.00    +0.000 C 
ATOM     12  O   UNL     1       0.602   3.291  18.612  0.00  0.00    +0.000 OA
BRANCH  11  13
ATOM     13  O   UNL     1       1.363   4.350  20.491  0.00  0.00    +0.000 OA
BRANCH  13  15
ATOM     14  C   UNL     1       1.429   2.409  21.860  0.00  0.00    +0.000 C 
ATOM     15  C   UNL     1       2.209   3.628  21.395  0.00  0.00    +0.000 C 
ENDBRANCH  13  15
ENDBRANCH  11  13
ENDBRANCH   1  11
BRANCH   5  16
ATOM     16  O   UNL     1       7.331   4.933  15.038  0.00  0.00    +0.000 OA
ATOM     17  C   UNL     1       6.714   4.358  13.899  0.00  0.00    +0.000 C 
ENDBRANCH   5  16
BRANCH   6  18
ATOM     18  O   UNL     1       7.178   7.640  16.757  0.00  0.00    +0.000 OA
ATOM     19  C   UNL     1       7.902   8.214  17.813  0.00  0.00    +0.000 C 
ENDBRANCH   6  18
BRANCH   9  20
ATOM     20  C   UNL     1       2.748   6.755  19.657  0.00  0.00    +0.000 C 
BRANCH  20  21
ATOM     21  C   UNL     1       2.049   7.741  18.709  0.00  0.00    +0.000 C 
BRANCH  21  22
ATOM     22  N   UNL     1       2.199   9.188  18.946  0.00  0.00    +0.000 NA
ATOM     23  C   UNL     1       1.658  10.034  17.859  0.00  0.00    +0.000 C 
ATOM     24  C   UNL     1       0.131   9.923  17.641  0.00  0.00    +0.000 C 
ATOM     25  N   UNL     1      -0.589  10.104  18.914  0.00  0.00    +0.000 N 
ATOM     26  C   UNL     1      -0.088   9.352  20.071  0.00  0.00    +0.000 C 
ATOM     27  C   UNL     1       1.447   9.532  20.186  0.00  0.00    +0.000 C 
BRANCH  25  28
ATOM     28  C   UNL     1      -1.796  10.770  18.989  0.00  0.00    +0.000 A 
ATOM     29  C   UNL     1      -2.018  11.806  19.910  0.00  0.00    +0.000 A 
ATOM     30  C   UNL     1      -3.198  12.552  19.909  0.00  0.00    +0.000 A 
ATOM     31  C   UNL     1      -4.197  12.266  18.985  0.00  0.00    +0.000 A 
ATOM     32  C   UNL     1      -4.016  11.230  18.076  0.00  0.00    +0.000 A 
ATOM     33  C   UNL     1      -2.830  10.491  18.086  0.00  0.00    +0.000 A 
ENDBRANCH  25  28
ENDBRANCH  21  22
ENDBRANCH  20  21
ENDBRANCH   9  20
TORSDOF 9
ENDMDL
