MODEL 1
REMARK VINA RESULT:      -7.3      0.000      0.000
REMARK  Name = 
REMARK  11 active torsions:
REMARK  status: ('A' for Active; 'I' for Inactive)
REMARK    1  A    between atoms: C_1  and  C_2
REMARK    2  A    between atoms: C_2  and  N_3
REMARK    3  A    between atoms: N_3  and  C_4
REMARK    4  A    between atoms: N_3  and  C_6
REMARK    5  A    between atoms: C_4  and  C_5
REMARK    6  A    between atoms: C_6  and  C_7
REMARK    7  A    between atoms: C_7  and  C_8
REMARK    8  A    between atoms: C_8  and  O_9
REMARK    9  A    between atoms: O_9  and  C_10
REMARK   10  A    between atoms: C_13  and  C_14
REMARK   11  A    between atoms: C_15  and  C_16
REMARK                            x       y       z     vdW  Elec       q    Type
REMARK                         _______ _______ _______ _____ _____    ______ ____
ROOT
ATOM      1  C   UNL     1       6.196   5.094  17.979  0.00  0.00    +0.000 A 
ATOM      2  C   UNL     1       5.736   6.116  17.138  0.00  0.00    +0.000 A 
ATOM      3  C   UNL     1       6.377   7.341  17.082  0.00  0.00    +0.000 A 
ATOM      4  C   UNL     1       7.515   7.617  17.872  0.00  0.00    +0.000 A 
ATOM      5  C   UNL     1       7.991   6.587  18.714  0.00  0.00    +0.000 A 
ATOM      6  C   UNL     1       7.333   5.342  18.770  0.00  0.00    +0.000 A 
ENDROOT
BRANCH   4   7
ATOM      7  C   UNL     1       8.216   8.952  17.812  0.00  0.00    +0.000 C 
ATOM      8  C   UNL     1       8.837   9.467  18.894  0.00  0.00    +0.000 C 
BRANCH   8   9
ATOM      9  C   UNL     1       9.527  10.756  19.042  0.00  0.00    +0.000 A 
ATOM     10  N   UNL     1       9.404  11.421  20.216  0.00  0.00    +0.000 NA
ATOM     11  C   UNL     1      10.031  12.612  20.192  0.00  0.00    +0.000 A 
ATOM     12  C   UNL     1      10.044  13.495  21.271  0.00  0.00    +0.000 A 
ATOM     13  C   UNL     1      10.713  14.717  21.131  0.00  0.00    +0.000 A 
ATOM     14  C   UNL     1      11.357  15.038  19.918  0.00  0.00    +0.000 A 
ATOM     15  C   UNL     1      11.338  14.133  18.836  0.00  0.00    +0.000 A 
ATOM     16  C   UNL     1      10.664  12.921  19.002  0.00  0.00    +0.000 A 
ATOM     17  S   UNL     1      10.443  11.640  17.912  0.00  0.00    +0.000 S 
ENDBRANCH   8   9
ENDBRANCH   4   7
BRANCH   1  18
ATOM     18  O   UNL     1       5.560   3.890  18.048  0.00  0.00    +0.000 OA
BRANCH  18  19
ATOM     19  C   UNL     1       4.449   3.564  17.278  0.00  0.00    +0.000 C 
BRANCH  19  20
ATOM     20  C   UNL     1       3.691   2.350  17.819  0.00  0.00    +0.000 C 
BRANCH  20  21
ATOM     21  C   UNL     1       2.192   2.616  18.032  0.00  0.00    +0.000 C 
BRANCH  21  22
ATOM     22  N   UNL     1       1.902   3.294  19.315  0.00  0.00    +0.000 NA
BRANCH  22  24
ATOM     23  C   UNL     1       1.816   2.696  21.782  0.00  0.00    +0.000 C 
ATOM     24  C   UNL     1       2.651   2.820  20.506  0.00  0.00    +0.000 C 
ENDBRANCH  22  24
BRANCH  22  25
ATOM     25  C   UNL     1       1.725   4.762  19.192  0.00  0.00    +0.000 C 
ATOM     26  C   UNL     1       2.829   5.621  19.829  0.00  0.00    +0.000 C 
ENDBRANCH  22  25
ENDBRANCH  21  22
ENDBRANCH  20  21
ENDBRANCH  19  20
ENDBRANCH  18  19
ENDBRANCH   1  18
TORSDOF 9
ENDMDL
MODEL 2
REMARK VINA RESULT:      -7.2      1.203      2.100
REMARK  Name = 
REMARK  11 active torsions:
REMARK  status: ('A' for Active; 'I' for Inactive)
REMARK    1  A    between atoms: C_1  and  C_2
REMARK    2  A    between atoms: C_2  and  N_3
REMARK    3  A    between atoms: N_3  and  C_4
REMARK    4  A    between atoms: N_3  and  C_6
REMARK    5  A    between atoms: C_4  and  C_5
REMARK    6  A    between atoms: C_6  and  C_7
REMARK    7  A    between atoms: C_7  and  C_8
REMARK    8  A    between atoms: C_8  and  O_9
REMARK    9  A    between atoms: O_9  and  C_10
REMARK   10  A    between atoms: C_13  and  C_14
REMARK   11  A    between atoms: C_15  and  C_16
REMARK                            x       y       z     vdW  Elec       q    Type
REMARK                         _______ _______ _______ _____ _____    ______ ____
ROOT
ATOM      1  C   UNL     1       5.965   4.784  17.242  0.00  0.00    +0.000 A 
ATOM      2  C   UNL     1       6.353   5.838  16.403  0.00  0.00    +0.000 A 
ATOM      3  C   UNL     1       7.185   6.845  16.858  0.00  0.00    +0.000 A 
ATOM      4  C   UNL     1       7.672   6.860  18.184  0.00  0.00    +0.000 A 
ATOM      5  C   UNL     1       7.295   5.796  19.031  0.00  0.00    +0.000 A 
ATOM      6  C   UNL     1       6.445   4.773  18.565  0.00  0.00    +0.000 A 
ENDROOT
BRANCH   4   7
ATOM      7  C   UNL     1       8.581   7.959  18.681  0.00  0.00    +0.000 C 
ATOM      8  C   UNL     1       8.397   9.242  18.307  0.00  0.00    +0.000 C 
BRANCH   8   9
ATOM      9  C   UNL     1       9.194  10.430  18.645  0.00  0.00    +0.000 A 
ATOM     10  N   UNL     1       9.893  11.039  17.658  0.00  0.00    +0.000 NA
ATOM     11  C   UNL     1      10.625  12.071  18.116  0.00  0.00    +0.000 A 
ATOM     12  C   UNL     1      11.445  12.854  17.303  0.00  0.00    +0.000 A 
ATOM     13  C   UNL     1      12.178  13.892  17.890  0.00  0.00    +0.000 A 
ATOM     14  C   UNL     1      12.083  14.132  19.276  0.00  0.00    +0.000 A 
ATOM     15  C   UNL     1      11.248  13.334  20.086  0.00  0.00    +0.000 A 
ATOM     16  C   UNL     1      10.527  12.305  19.476  0.00  0.00    +0.000 A 
ATOM     17  S   UNL     1       9.461  11.172  20.153  0.00  0.00    +0.000 S 
ENDBRANCH   8   9
ENDBRANCH   4   7
BRANCH   1  18
ATOM     18  O   UNL     1       5.135   3.795  16.802  0.00  0.00    +0.000 OA
BRANCH  18  19
ATOM     19  C   UNL     1       3.751   3.917  16.761  0.00  0.00    +0.000 C 
BRANCH  19  20
ATOM     20  C   UNL     1       3.037   2.814  17.545  0.00  0.00    +0.000 C 
BRANCH  20  21
ATOM     21  C   UNL     1       3.690   2.516  18.904  0.00  0.00    +0.000 C 
BRANCH  21  22
ATOM     22  N   UNL     1       3.213   3.410  19.983  0.00  0.00    +0.000 NA
BRANCH  22  24
ATOM     23  C   UNL     1       2.957   5.920  19.680  0.00  0.00    +0.000 C 
ATOM     24  C   UNL     1       2.325   4.530  19.579  0.00  0.00    +0.000 C 
ENDBRANCH  22  24
BRANCH  22  25
ATOM     25  C   UNL     1       2.849   2.702  21.234  0.00  0.00    +0.000 C 
ATOM     26  C   UNL     1       1.353   2.699  21.586  0.00  0.00    +0.000 C 
ENDBRANCH  22  25
ENDBRANCH  21  22
ENDBRANCH  20  21
ENDBRANCH  19  20
ENDBRANCH  18  19
ENDBRANCH   1  18
TORSDOF 9
ENDMDL
MODEL 3
REMARK VINA RESULT:      -7.2      0.817      1.770
REMARK  Name = 
REMARK  11 active torsions:
REMARK  status: ('A' for Active; 'I' for Inactive)
REMARK    1  A    between atoms: C_1  and  C_2
REMARK    2  A    between atoms: C_2  and  N_3
REMARK    3  A    between atoms: N_3  and  C_4
REMARK    4  A    between atoms: N_3  and  C_6
REMARK    5  A    between atoms: C_4  and  C_5
REMARK    6  A    between atoms: C_6  and  C_7
REMARK    7  A    between atoms: C_7  and  C_8
REMARK    8  A    between atoms: C_8  and  O_9
REMARK    9  A    between atoms: O_9  and  C_10
REMARK   10  A    between atoms: C_13  and  C_14
REMARK   11  A    between atoms: C_15  and  C_16
REMARK                            x       y       z     vdW  Elec       q    Type
REMARK                         _______ _______ _______ _____ _____    ______ ____
ROOT
ATOM      1  C   UNL     1       6.159   5.013  17.766  0.00  0.00    +0.000 A 
ATOM      2  C   UNL     1       7.367   5.221  18.445  0.00  0.00    +0.000 A 
ATOM      3  C   UNL     1       7.986   6.459  18.441  0.00  0.00    +0.000 A 
ATOM      4  C   UNL     1       7.434   7.560  17.751  0.00  0.00    +0.000 A 
ATOM      5  C   UNL     1       6.211   7.361  17.075  0.00  0.00    +0.000 A 
ATOM      6  C   UNL     1       5.585   6.098  17.078  0.00  0.00    +0.000 A 
ENDROOT
BRANCH   4   7
ATOM      7  C   UNL     1       8.108   8.911  17.748  0.00  0.00    +0.000 C 
ATOM      8  C   UNL     1       8.683   9.409  18.862  0.00  0.00    +0.000 C 
BRANCH   8   9
ATOM      9  C   UNL     1       9.340  10.709  19.065  0.00  0.00    +0.000 A 
ATOM     10  N   UNL     1       9.247  11.293  20.284  0.00  0.00    +0.000 NA
ATOM     11  C   UNL     1       9.837  12.503  20.312  0.00  0.00    +0.000 A 
ATOM     12  C   UNL     1       9.870  13.316  21.445  0.00  0.00    +0.000 A 
ATOM     13  C   UNL     1      10.495  14.565  21.357  0.00  0.00    +0.000 A 
ATOM     14  C   UNL     1      11.077  14.984  20.142  0.00  0.00    +0.000 A 
ATOM     15  C   UNL     1      11.040  14.149  19.006  0.00  0.00    +0.000 A 
ATOM     16  C   UNL     1      10.409  12.908  19.119  0.00  0.00    +0.000 A 
ATOM     17  S   UNL     1      10.181  11.692  17.959  0.00  0.00    +0.000 S 
ENDBRANCH   8   9
ENDBRANCH   4   7
BRANCH   1  18
ATOM     18  O   UNL     1       5.551   3.792  17.755  0.00  0.00    +0.000 OA
BRANCH  18  19
ATOM     19  C   UNL     1       4.372   3.516  18.436  0.00  0.00    +0.000 C 
BRANCH  19  20
ATOM     20  C   UNL     1       3.162   3.413  17.505  0.00  0.00    +0.000 C 
BRANCH  20  21
ATOM     21  C   UNL     1       1.934   4.182  18.020  0.00  0.00    +0.000 C 
BRANCH  21  22
ATOM     22  N   UNL     1       2.232   5.021  19.203  0.00  0.00    +0.000 NA
BRANCH  22  24
ATOM     23  C   UNL     1       2.051   7.390  20.103  0.00  0.00    +0.000 C 
ATOM     24  C   UNL     1       2.465   6.466  18.955  0.00  0.00    +0.000 C 
ENDBRANCH  22  24
BRANCH  22  25
ATOM     25  C   UNL     1       1.424   4.681  20.399  0.00  0.00    +0.000 C 
ATOM     26  C   UNL     1       2.118   3.788  21.440  0.00  0.00    +0.000 C 
ENDBRANCH  22  25
ENDBRANCH  21  22
ENDBRANCH  20  21
ENDBRANCH  19  20
ENDBRANCH  18  19
ENDBRANCH   1  18
TORSDOF 9
ENDMDL
MODEL 4
REMARK VINA RESULT:      -7.1      0.948      1.342
REMARK  Name = 
REMARK  11 active torsions:
REMARK  status: ('A' for Active; 'I' for Inactive)
REMARK    1  A    between atoms: C_1  and  C_2
REMARK    2  A    between atoms: C_2  and  N_3
REMARK    3  A    between atoms: N_3  and  C_4
REMARK    4  A    between atoms: N_3  and  C_6
REMARK    5  A    between atoms: C_4  and  C_5
REMARK    6  A    between atoms: C_6  and  C_7
REMARK    7  A    between atoms: C_7  and  C_8
REMARK    8  A    between atoms: C_8  and  O_9
REMARK    9  A    between atoms: O_9  and  C_10
REMARK   10  A    between atoms: C_13  and  C_14
REMARK   11  A    between atoms: C_15  and  C_16
REMARK                            x       y       z     vdW  Elec       q    Type
REMARK                         _______ _______ _______ _____ _____    ______ ____
ROOT
ATOM      1  C   UNL     1       5.688   4.690  17.289  0.00  0.00    +0.000 A 
ATOM      2  C   UNL     1       6.096   4.773  18.627  0.00  0.00    +0.000 A 
ATOM      3  C   UNL     1       6.973   5.757  19.049  0.00  0.00    +0.000 A 
ATOM      4  C   UNL     1       7.499   6.713  18.152  0.00  0.00    +0.000 A 
ATOM      5  C   UNL     1       7.084   6.642  16.804  0.00  0.00    +0.000 A 
ATOM      6  C   UNL     1       6.193   5.637  16.378  0.00  0.00    +0.000 A 
ENDROOT
BRANCH   4   7
ATOM      7  C   UNL     1       8.454   7.788  18.611  0.00  0.00    +0.000 C 
ATOM      8  C   UNL     1       8.244   9.086  18.312  0.00  0.00    +0.000 C 
BRANCH   8   9
ATOM      9  C   UNL     1       9.075  10.258  18.626  0.00  0.00    +0.000 A 
ATOM     10  N   UNL     1       8.926  10.846  19.838  0.00  0.00    +0.000 NA
ATOM     11  C   UNL     1       9.699  11.940  19.968  0.00  0.00    +0.000 A 
ATOM     12  C   UNL     1       9.720  12.733  21.115  0.00  0.00    +0.000 A 
ATOM     13  C   UNL     1      10.549  13.861  21.136  0.00  0.00    +0.000 A 
ATOM     14  C   UNL     1      11.341  14.181  20.014  0.00  0.00    +0.000 A 
ATOM     15  C   UNL     1      11.311  13.367  18.862  0.00  0.00    +0.000 A 
ATOM     16  C   UNL     1      10.476  12.248  18.866  0.00  0.00    +0.000 A 
ATOM     17  S   UNL     1      10.199  11.090  17.657  0.00  0.00    +0.000 S 
ENDBRANCH   8   9
ENDBRANCH   4   7
BRANCH   1  18
ATOM     18  O   UNL     1       4.835   3.715  16.866  0.00  0.00    +0.000 OA
BRANCH  18  19
ATOM     19  C   UNL     1       4.096   2.914  17.728  0.00  0.00    +0.000 C 
BRANCH  19  20
ATOM     20  C   UNL     1       2.597   2.948  17.427  0.00  0.00    +0.000 C 
BRANCH  20  21
ATOM     21  C   UNL     1       1.930   4.279  17.813  0.00  0.00    +0.000 C 
BRANCH  21  22
ATOM     22  N   UNL     1       1.344   4.259  19.171  0.00  0.00    +0.000 NA
BRANCH  22  24
ATOM     23  C   UNL     1       1.411   2.737  21.205  0.00  0.00    +0.000 C 
ATOM     24  C   UNL     1       1.016   2.927  19.739  0.00  0.00    +0.000 C 
ENDBRANCH  22  24
BRANCH  22  25
ATOM     25  C   UNL     1       1.955   5.237  20.104  0.00  0.00    +0.000 C 
ATOM     26  C   UNL     1       2.869   6.291  19.458  0.00  0.00    +0.000 C 
ENDBRANCH  22  25
ENDBRANCH  21  22
ENDBRANCH  20  21
ENDBRANCH  19  20
ENDBRANCH  18  19
ENDBRANCH   1  18
TORSDOF 9
ENDMDL
MODEL 5
REMARK VINA RESULT:      -7.0      0.837      1.010
REMARK  Name = 
REMARK  11 active torsions:
REMARK  status: ('A' for Active; 'I' for Inactive)
REMARK    1  A    between atoms: C_1  and  C_2
REMARK    2  A    between atoms: C_2  and  N_3
REMARK    3  A    between atoms: N_3  and  C_4
REMARK    4  A    between atoms: N_3  and  C_6
REMARK    5  A    between atoms: C_4  and  C_5
REMARK    6  A    between atoms: C_6  and  C_7
REMARK    7  A    between atoms: C_7  and  C_8
REMARK    8  A    between atoms: C_8  and  O_9
REMARK    9  A    between atoms: O_9  and  C_10
REMARK   10  A    between atoms: C_13  and  C_14
REMARK   11  A    between atoms: C_15  and  C_16
REMARK                            x       y       z     vdW  Elec       q    Type
REMARK                         _______ _______ _______ _____ _____    ______ ____
ROOT
ATOM      1  C   UNL     1       6.555   5.275  18.019  0.00  0.00    +0.000 A 
ATOM      2  C   UNL     1       6.092   6.275  17.153  0.00  0.00    +0.000 A 
ATOM      3  C   UNL     1       6.681   7.527  17.124  0.00  0.00    +0.000 A 
ATOM      4  C   UNL     1       7.766   7.853  17.968  0.00  0.00    +0.000 A 
ATOM      5  C   UNL     1       8.245   6.847  18.835  0.00  0.00    +0.000 A 
ATOM      6  C   UNL     1       7.641   5.575  18.863  0.00  0.00    +0.000 A 
ENDROOT
BRANCH   4   7
ATOM      7  C   UNL     1       8.410   9.218  17.937  0.00  0.00    +0.000 C 
ATOM      8  C   UNL     1       8.995   9.741  19.034  0.00  0.00    +0.000 C 
BRANCH   8   9
ATOM      9  C   UNL     1       9.628  11.057  19.211  0.00  0.00    +0.000 A 
ATOM     10  N   UNL     1       9.427  11.716  20.378  0.00  0.00    +0.000 NA
ATOM     11  C   UNL     1      10.008  12.930  20.381  0.00  0.00    +0.000 A 
ATOM     12  C   UNL     1       9.938  13.813  21.458  0.00  0.00    +0.000 A 
ATOM     13  C   UNL     1      10.565  15.059  21.346  0.00  0.00    +0.000 A 
ATOM     14  C   UNL     1      11.249  15.406  20.162  0.00  0.00    +0.000 A 
ATOM     15  C   UNL     1      11.314  14.501  19.082  0.00  0.00    +0.000 A 
ATOM     16  C   UNL     1      10.681  13.264  19.219  0.00  0.00    +0.000 A 
ATOM     17  S   UNL     1      10.558  11.975  18.122  0.00  0.00    +0.000 S 
ENDBRANCH   8   9
ENDBRANCH   4   7
BRANCH   1  18
ATOM     18  O   UNL     1       5.970   4.045  18.060  0.00  0.00    +0.000 OA
BRANCH  18  19
ATOM     19  C   UNL     1       4.615   3.846  18.299  0.00  0.00    +0.000 C 
BRANCH  19  20
ATOM     20  C   UNL     1       4.346   2.661  19.227  0.00  0.00    +0.000 C 
BRANCH  20  21
ATOM     21  C   UNL     1       3.045   1.912  18.893  0.00  0.00    +0.000 C 
BRANCH  21  22
ATOM     22  N   UNL     1       1.927   2.265  19.795  0.00  0.00    +0.000 NA
BRANCH  22  24
ATOM     23  C   UNL     1       2.148   4.228  21.393  0.00  0.00    +0.000 C 
ATOM     24  C   UNL     1       2.288   2.723  21.161  0.00  0.00    +0.000 C 
ENDBRANCH  22  24
BRANCH  22  25
ATOM     25  C   UNL     1       0.825   3.000  19.127  0.00  0.00    +0.000 C 
ATOM     26  C   UNL     1       1.220   3.794  17.871  0.00  0.00    +0.000 C 
ENDBRANCH  22  25
ENDBRANCH  21  22
ENDBRANCH  20  21
ENDBRANCH  19  20
ENDBRANCH  18  19
ENDBRANCH   1  18
TORSDOF 9
ENDMDL
MODEL 6
REMARK VINA RESULT:      -6.9      1.200      1.563
REMARK  Name = 
REMARK  11 active torsions:
REMARK  status: ('A' for Active; 'I' for Inactive)
REMARK    1  A    between atoms: C_1  and  C_2
REMARK    2  A    between atoms: C_2  and  N_3
REMARK    3  A    between atoms: N_3  and  C_4
REMARK    4  A    between atoms: N_3  and  C_6
REMARK    5  A    between atoms: C_4  and  C_5
REMARK    6  A    between atoms: C_6  and  C_7
REMARK    7  A    between atoms: C_7  and  C_8
REMARK    8  A    between atoms: C_8  and  O_9
REMARK    9  A    between atoms: O_9  and  C_10
REMARK   10  A    between atoms: C_13  and  C_14
REMARK   11  A    between atoms: C_15  and  C_16
REMARK                            x       y       z     vdW  Elec       q    Type
REMARK                         _______ _______ _______ _____ _____    ______ ____
ROOT
ATOM      1  C   UNL     1       6.652   5.294  17.451  0.00  0.00    +0.000 A 
ATOM      2  C   UNL     1       7.494   5.285  18.571  0.00  0.00    +0.000 A 
ATOM      3  C   UNL     1       8.159   6.428  18.977  0.00  0.00    +0.000 A 
ATOM      4  C   UNL     1       8.025   7.649  18.279  0.00  0.00    +0.000 A 
ATOM      5  C   UNL     1       7.170   7.669  17.156  0.00  0.00    +0.000 A 
ATOM      6  C   UNL     1       6.496   6.501  16.744  0.00  0.00    +0.000 A 
ENDROOT
BRANCH   4   7
ATOM      7  C   UNL     1       8.750   8.897  18.722  0.00  0.00    +0.000 C 
ATOM      8  C   UNL     1       8.736  10.018  17.970  0.00  0.00    +0.000 C 
BRANCH   8   9
ATOM      9  C   UNL     1       9.411  11.302  18.208  0.00  0.00    +0.000 A 
ATOM     10  N   UNL     1       8.673  12.341  18.668  0.00  0.00    +0.000 NA
ATOM     11  C   UNL     1       9.400  13.468  18.780  0.00  0.00    +0.000 A 
ATOM     12  C   UNL     1       8.873  14.683  19.219  0.00  0.00    +0.000 A 
ATOM     13  C   UNL     1       9.716  15.798  19.279  0.00  0.00    +0.000 A 
ATOM     14  C   UNL     1      11.070  15.686  18.901  0.00  0.00    +0.000 A 
ATOM     15  C   UNL     1      11.590  14.451  18.461  0.00  0.00    +0.000 A 
ATOM     16  C   UNL     1      10.728  13.353  18.410  0.00  0.00    +0.000 A 
ATOM     17  S   UNL     1      11.026  11.755  17.923  0.00  0.00    +0.000 S 
ENDBRANCH   8   9
ENDBRANCH   4   7
BRANCH   1  18
ATOM     18  O   UNL     1       6.005   4.167  17.039  0.00  0.00    +0.000 OA
BRANCH  18  19
ATOM     19  C   UNL     1       4.681   4.153  16.615  0.00  0.00    +0.000 C 
BRANCH  19  20
ATOM     20  C   UNL     1       3.749   3.460  17.610  0.00  0.00    +0.000 C 
BRANCH  20  21
ATOM     21  C   UNL     1       2.299   3.966  17.536  0.00  0.00    +0.000 C 
BRANCH  21  22
ATOM     22  N   UNL     1       1.714   4.239  18.867  0.00  0.00    +0.000 NA
BRANCH  22  24
ATOM     23  C   UNL     1       1.439   3.002  21.069  0.00  0.00    +0.000 C 
ATOM     24  C   UNL     1       1.103   3.088  19.579  0.00  0.00    +0.000 C 
ENDBRANCH  22  24
BRANCH  22  25
ATOM     25  C   UNL     1       2.516   5.172  19.695  0.00  0.00    +0.000 C 
ATOM     26  C   UNL     1       2.663   6.598  19.139  0.00  0.00    +0.000 C 
ENDBRANCH  22  25
ENDBRANCH  21  22
ENDBRANCH  20  21
ENDBRANCH  19  20
ENDBRANCH  18  19
ENDBRANCH   1  18
TORSDOF 9
ENDMDL
MODEL 7
REMARK VINA RESULT:      -6.9      0.968      1.493
REMARK  Name = 
REMARK  11 active torsions:
REMARK  status: ('A' for Active; 'I' for Inactive)
REMARK    1  A    between atoms: C_1  and  C_2
REMARK    2  A    between atoms: C_2  and  N_3
REMARK    3  A    between atoms: N_3  and  C_4
REMARK    4  A    between atoms: N_3  and  C_6
REMARK    5  A    between atoms: C_4  and  C_5
REMARK    6  A    between atoms: C_6  and  C_7
REMARK    7  A    between atoms: C_7  and  C_8
REMARK    8  A    between atoms: C_8  and  O_9
REMARK    9  A    between atoms: O_9  and  C_10
REMARK   10  A    between atoms: C_13  and  C_14
REMARK   11  A    between atoms: C_15  and  C_16
REMARK                            x       y       z     vdW  Elec       q    Type
REMARK                         _______ _______ _______ _____ _____    ______ ____
ROOT
ATOM      1  C   UNL     1       6.752   5.427  17.637  0.00  0.00    +0.000 A 
ATOM      2  C   UNL     1       7.741   5.710  18.589  0.00  0.00    +0.000 A 
ATOM      3  C   UNL     1       8.251   6.988  18.734  0.00  0.00    +0.000 A 
ATOM      4  C   UNL     1       7.805   8.058  17.927  0.00  0.00    +0.000 A 
ATOM      5  C   UNL     1       6.800   7.783  16.974  0.00  0.00    +0.000 A 
ATOM      6  C   UNL     1       6.285   6.479  16.828  0.00  0.00    +0.000 A 
ENDROOT
BRANCH   4   7
ATOM      7  C   UNL     1       8.359   9.453  18.084  0.00  0.00    +0.000 C 
ATOM      8  C   UNL     1       9.256   9.746  19.049  0.00  0.00    +0.000 C 
BRANCH   8   9
ATOM      9  C   UNL     1       9.869  11.039  19.385  0.00  0.00    +0.000 A 
ATOM     10  N   UNL     1       9.316  11.775  20.379  0.00  0.00    +0.000 NA
ATOM     11  C   UNL     1       9.936  12.959  20.538  0.00  0.00    +0.000 A 
ATOM     12  C   UNL     1       9.551  13.907  21.486  0.00  0.00    +0.000 A 
ATOM     13  C   UNL     1      10.255  15.114  21.552  0.00  0.00    +0.000 A 
ATOM     14  C   UNL     1      11.332  15.358  20.674  0.00  0.00    +0.000 A 
ATOM     15  C   UNL     1      11.712  14.388  19.722  0.00  0.00    +0.000 A 
ATOM     16  C   UNL     1      10.992  13.192  19.676  0.00  0.00    +0.000 A 
ATOM     17  S   UNL     1      11.179  11.847  18.659  0.00  0.00    +0.000 S 
ENDBRANCH   8   9
ENDBRANCH   4   7
BRANCH   1  18
ATOM     18  O   UNL     1       6.256   4.167  17.482  0.00  0.00    +0.000 OA
BRANCH  18  19
ATOM     19  C   UNL     1       4.986   3.897  16.985  0.00  0.00    +0.000 C 
BRANCH  19  20
ATOM     20  C   UNL     1       3.930   3.793  18.088  0.00  0.00    +0.000 C 
BRANCH  20  21
ATOM     21  C   UNL     1       3.240   5.132  18.395  0.00  0.00    +0.000 C 
BRANCH  21  22
ATOM     22  N   UNL     1       1.980   4.971  19.155  0.00  0.00    +0.000 NA
BRANCH  22  24
ATOM     23  C   UNL     1       1.146   2.993  20.515  0.00  0.00    +0.000 C 
ATOM     24  C   UNL     1       1.356   3.624  19.137  0.00  0.00    +0.000 C 
ENDBRANCH  22  24
BRANCH  22  25
ATOM     25  C   UNL     1       1.967   5.683  20.456  0.00  0.00    +0.000 C 
ATOM     26  C   UNL     1       1.829   7.212  20.377  0.00  0.00    +0.000 C 
ENDBRANCH  22  25
ENDBRANCH  21  22
ENDBRANCH  20  21
ENDBRANCH  19  20
ENDBRANCH  18  19
ENDBRANCH   1  18
TORSDOF 9
ENDMDL
MODEL 8
REMARK VINA RESULT:      -6.9      0.977      1.751
REMARK  Name = 
REMARK  11 active torsions:
REMARK  status: ('A' for Active; 'I' for Inactive)
REMARK    1  A    between atoms: C_1  and  C_2
REMARK    2  A    between atoms: C_2  and  N_3
REMARK    3  A    between atoms: N_3  and  C_4
REMARK    4  A    between atoms: N_3  and  C_6
REMARK    5  A    between atoms: C_4  and  C_5
REMARK    6  A    between atoms: C_6  and  C_7
REMARK    7  A    between atoms: C_7  and  C_8
REMARK    8  A    between atoms: C_8  and  O_9
REMARK    9  A    between atoms: O_9  and  C_10
REMARK   10  A    between atoms: C_13  and  C_14
REMARK   11  A    between atoms: C_15  and  C_16
REMARK                            x       y       z     vdW  Elec       q    Type
REMARK                         _______ _______ _______ _____ _____    ______ ____
ROOT
ATOM      1  C   UNL     1       6.805   5.657  17.845  0.00  0.00    +0.000 A 
ATOM      2  C   UNL     1       7.820   5.932  18.771  0.00  0.00    +0.000 A 
ATOM      3  C   UNL     1       8.377   7.195  18.869  0.00  0.00    +0.000 A 
ATOM      4  C   UNL     1       7.953   8.257  18.038  0.00  0.00    +0.000 A 
ATOM      5  C   UNL     1       6.923   7.989  17.111  0.00  0.00    +0.000 A 
ATOM      6  C   UNL     1       6.360   6.701  17.013  0.00  0.00    +0.000 A 
ENDROOT
BRANCH   4   7
ATOM      7  C   UNL     1       8.559   9.635  18.144  0.00  0.00    +0.000 C 
ATOM      8  C   UNL     1       9.285  10.000  19.222  0.00  0.00    +0.000 C 
BRANCH   8   9
ATOM      9  C   UNL     1       9.910  11.296  19.524  0.00  0.00    +0.000 A 
ATOM     10  N   UNL     1       9.419  12.022  20.557  0.00  0.00    +0.000 NA
ATOM     11  C   UNL     1      10.039  13.210  20.682  0.00  0.00    +0.000 A 
ATOM     12  C   UNL     1       9.711  14.149  21.659  0.00  0.00    +0.000 A 
ATOM     13  C   UNL     1      10.409  15.362  21.686  0.00  0.00    +0.000 A 
ATOM     14  C   UNL     1      11.423  15.619  20.739  0.00  0.00    +0.000 A 
ATOM     15  C   UNL     1      11.746  14.658  19.759  0.00  0.00    +0.000 A 
ATOM     16  C   UNL     1      11.034  13.456  19.753  0.00  0.00    +0.000 A 
ATOM     17  S   UNL     1      11.162  12.118  18.717  0.00  0.00    +0.000 S 
ENDBRANCH   8   9
ENDBRANCH   4   7
BRANCH   1  18
ATOM     18  O   UNL     1       6.262   4.411  17.736  0.00  0.00    +0.000 OA
BRANCH  18  19
ATOM     19  C   UNL     1       5.531   3.986  16.633  0.00  0.00    +0.000 C 
BRANCH  19  20
ATOM     20  C   UNL     1       4.031   3.890  16.920  0.00  0.00    +0.000 C 
BRANCH  20  21
ATOM     21  C   UNL     1       3.658   4.315  18.350  0.00  0.00    +0.000 C 
BRANCH  21  22
ATOM     22  N   UNL     1       2.963   3.250  19.106  0.00  0.00    +0.000 NA
BRANCH  22  24
ATOM     23  C   UNL     1       2.066   5.050  20.659  0.00  0.00    +0.000 C 
ATOM     24  C   UNL     1       2.501   3.595  20.475  0.00  0.00    +0.000 C 
ENDBRANCH  22  24
BRANCH  22  25
ATOM     25  C   UNL     1       2.033   2.438  18.284  0.00  0.00    +0.000 C 
ATOM     26  C   UNL     1       0.640   2.205  18.890  0.00  0.00    +0.000 C 
ENDBRANCH  22  25
ENDBRANCH  21  22
ENDBRANCH  20  21
ENDBRANCH  19  20
ENDBRANCH  18  19
ENDBRANCH   1  18
TORSDOF 9
ENDMDL
MODEL 9
REMARK VINA RESULT:      -6.9      6.354      8.479
REMARK  Name = 
REMARK  11 active torsions:
REMARK  status: ('A' for Active; 'I' for Inactive)
REMARK    1  A    between atoms: C_1  and  C_2
REMARK    2  A    between atoms: C_2  and  N_3
REMARK    3  A    between atoms: N_3  and  C_4
REMARK    4  A    between atoms: N_3  and  C_6
REMARK    5  A    between atoms: C_4  and  C_5
REMARK    6  A    between atoms: C_6  and  C_7
REMARK    7  A    between atoms: C_7  and  C_8
REMARK    8  A    between atoms: C_8  and  O_9
REMARK    9  A    between atoms: O_9  and  C_10
REMARK   10  A    between atoms: C_13  and  C_14
REMARK   11  A    between atoms: C_15  and  C_16
REMARK                            x       y       z     vdW  Elec       q    Type
REMARK                         _______ _______ _______ _____ _____    ______ ____
ROOT
ATOM      1  C   UNL     1       5.155   4.584  16.313  0.00  0.00    +0.000 A 
ATOM      2  C   UNL     1       4.230   3.831  17.048  0.00  0.00    +0.000 A 
ATOM      3  C   UNL     1       3.306   4.442  17.878  0.00  0.00    +0.000 A 
ATOM      4  C   UNL     1       3.260   5.846  18.026  0.00  0.00    +0.000 A 
ATOM      5  C   UNL     1       4.182   6.612  17.280  0.00  0.00    +0.000 A 
ATOM      6  C   UNL     1       5.123   5.985  16.438  0.00  0.00    +0.000 A 
ENDROOT
BRANCH   4   7
ATOM      7  C   UNL     1       2.253   6.514  18.930  0.00  0.00    +0.000 C 
ATOM      8  C   UNL     1       2.238   7.853  19.093  0.00  0.00    +0.000 C 
BRANCH   8   9
ATOM      9  C   UNL     1       1.375   8.674  19.955  0.00  0.00    +0.000 A 
ATOM     10  N   UNL     1       0.603   9.624  19.374  0.00  0.00    +0.000 NA
ATOM     11  C   UNL     1      -0.086  10.341  20.282  0.00  0.00    +0.000 A 
ATOM     12  C   UNL     1      -0.943  11.388  19.944  0.00  0.00    +0.000 A 
ATOM     13  C   UNL     1      -1.596  12.079  20.971  0.00  0.00    +0.000 A 
ATOM     14  C   UNL     1      -1.385  11.716  22.317  0.00  0.00    +0.000 A 
ATOM     15  C   UNL     1      -0.518  10.652  22.644  0.00  0.00    +0.000 A 
ATOM     16  C   UNL     1       0.122   9.979  21.600  0.00  0.00    +0.000 A 
ATOM     17  S   UNL     1       1.220   8.686  21.649  0.00  0.00    +0.000 S 
ENDBRANCH   8   9
ENDBRANCH   4   7
BRANCH   1  18
ATOM     18  O   UNL     1       6.075   3.986  15.505  0.00  0.00    +0.000 OA
BRANCH  18  19
ATOM     19  C   UNL     1       6.817   4.669  14.548  0.00  0.00    +0.000 C 
BRANCH  19  20
ATOM     20  C   UNL     1       6.637   4.098  13.141  0.00  0.00    +0.000 C 
BRANCH  20  21
ATOM     21  C   UNL     1       5.189   3.678  12.837  0.00  0.00    +0.000 C 
BRANCH  21  22
ATOM     22  N   UNL     1       5.064   2.904  11.582  0.00  0.00    +0.000 NA
BRANCH  22  24
ATOM     23  C   UNL     1       7.187   1.728  10.831  0.00  0.00    +0.000 C 
ATOM     24  C   UNL     1       5.818   1.627  11.506  0.00  0.00    +0.000 C 
ENDBRANCH  22  24
BRANCH  22  25
ATOM     25  C   UNL     1       3.692   2.890  11.019  0.00  0.00    +0.000 C 
ATOM     26  C   UNL     1       3.334   4.077  10.110  0.00  0.00    +0.000 C 
ENDBRANCH  22  25
ENDBRANCH  21  22
ENDBRANCH  20  21
ENDBRANCH  19  20
ENDBRANCH  18  19
ENDBRANCH   1  18
TORSDOF 9
ENDMDL
