MODEL 1
REMARK VINA RESULT:      -7.0      0.000      0.000
REMARK  Name = 
REMARK  7 active torsions:
REMARK  status: ('A' for Active; 'I' for Inactive)
REMARK    1  A    between atoms: C_1  and  C_2
REMARK    2  A    between atoms: C_4  and  C_5
REMARK    3  A    between atoms: N_8  and  C_9
REMARK    4  A    between atoms: N_8  and  C_10
REMARK    5  A    between atoms: C_10  and  C_11
REMARK    6  A    between atoms: C_11  and  N_12
REMARK    7  A    between atoms: C_16  and  C_17
REMARK                            x       y       z     vdW  Elec       q    Type
REMARK                         _______ _______ _______ _____ _____    ______ ____
ROOT
ATOM      1  C   UNL     1       6.007   3.715  14.557  0.00  0.00    +0.000 C 
ATOM      2  C   UNL     1       5.851   4.597  15.760  0.00  0.00    +0.000 A 
ATOM      3  C   UNL     1       6.874   5.420  16.173  0.00  0.00    +0.000 A 
ATOM      4  C   UNL     1       6.617   6.192  17.282  0.00  0.00    +0.000 A 
ATOM      5  C   UNL     1       7.640   7.136  17.831  0.00  0.00    +0.000 C 
ATOM      6  N   UNL     1       5.438   6.151  17.929  0.00  0.00    +0.000 NA
ATOM      7  C   UNL     1       4.480   5.330  17.476  0.00  0.00    +0.000 A 
ATOM      8  N   UNL     1       3.248   5.327  18.101  0.00  0.00    +0.000 N 
ATOM      9  C   UNL     1       3.059   6.122  19.302  0.00  0.00    +0.000 C 
ATOM     10  N   UNL     1       4.667   4.543  16.401  0.00  0.00    +0.000 NA
ENDROOT
BRANCH   8  11
ATOM     11  C   UNL     1       2.225   4.392  17.623  0.00  0.00    +0.000 C 
BRANCH  11  12
ATOM     12  C   UNL     1       2.408   2.977  18.174  0.00  0.00    +0.000 C 
BRANCH  12  13
ATOM     13  N   UNL     1       2.249   2.892  19.615  0.00  0.00    +0.000 N 
ATOM     14  C   UNL     1       1.071   3.008  20.301  0.00  0.00    +0.000 A 
ATOM     15  C   UNL     1       1.404   2.795  21.620  0.00  0.00    +0.000 A 
ATOM     16  N   UNL     1       2.741   2.540  21.745  0.00  0.00    +0.000 NA
ATOM     17  C   UNL     1       3.239   2.595  20.525  0.00  0.00    +0.000 A 
ATOM     18  C   UNL     1       4.660   2.376  20.160  0.00  0.00    +0.000 C 
ENDBRANCH  12  13
ENDBRANCH  11  12
ENDBRANCH   8  11
TORSDOF 3
ENDMDL
MODEL 2
REMARK VINA RESULT:      -6.7      0.706      1.470
REMARK  Name = 
REMARK  7 active torsions:
REMARK  status: ('A' for Active; 'I' for Inactive)
REMARK    1  A    between atoms: C_1  and  C_2
REMARK    2  A    between atoms: C_4  and  C_5
REMARK    3  A    between atoms: N_8  and  C_9
REMARK    4  A    between atoms: N_8  and  C_10
REMARK    5  A    between atoms: C_10  and  C_11
REMARK    6  A    between atoms: C_11  and  N_12
REMARK    7  A    between atoms: C_16  and  C_17
REMARK                            x       y       z     vdW  Elec       q    Type
REMARK                         _______ _______ _______ _____ _____    ______ ____
ROOT
ATOM      1  C   UNL     1       5.927   3.808  14.468  0.00  0.00    +0.000 C 
ATOM      2  C   UNL     1       5.777   4.683  15.677  0.00  0.00    +0.000 A 
ATOM      3  C   UNL     1       6.799   5.511  16.084  0.00  0.00    +0.000 A 
ATOM      4  C   UNL     1       6.547   6.276  17.200  0.00  0.00    +0.000 A 
ATOM      5  C   UNL     1       7.568   7.224  17.744  0.00  0.00    +0.000 C 
ATOM      6  N   UNL     1       5.374   6.223  17.859  0.00  0.00    +0.000 NA
ATOM      7  C   UNL     1       4.418   5.397  17.411  0.00  0.00    +0.000 A 
ATOM      8  N   UNL     1       3.192   5.381  18.048  0.00  0.00    +0.000 N 
ATOM      9  C   UNL     1       3.009   6.169  19.255  0.00  0.00    +0.000 C 
ATOM     10  N   UNL     1       4.600   4.617  16.330  0.00  0.00    +0.000 NA
ENDROOT
BRANCH   8  11
ATOM     11  C   UNL     1       2.171   4.441  17.576  0.00  0.00    +0.000 C 
BRANCH  11  12
ATOM     12  C   UNL     1       1.669   3.506  18.676  0.00  0.00    +0.000 C 
BRANCH  12  13
ATOM     13  N   UNL     1       2.735   2.812  19.377  0.00  0.00    +0.000 N 
ATOM     14  C   UNL     1       3.742   2.091  18.797  0.00  0.00    +0.000 A 
ATOM     15  C   UNL     1       4.537   1.681  19.844  0.00  0.00    +0.000 A 
ATOM     16  N   UNL     1       4.046   2.146  21.032  0.00  0.00    +0.000 NA
ATOM     17  C   UNL     1       2.960   2.834  20.736  0.00  0.00    +0.000 A 
ATOM     18  C   UNL     1       2.089   3.536  21.709  0.00  0.00    +0.000 C 
ENDBRANCH  12  13
ENDBRANCH  11  12
ENDBRANCH   8  11
TORSDOF 3
ENDMDL
MODEL 3
REMARK VINA RESULT:      -6.5      2.075      3.276
REMARK  Name = 
REMARK  7 active torsions:
REMARK  status: ('A' for Active; 'I' for Inactive)
REMARK    1  A    between atoms: C_1  and  C_2
REMARK    2  A    between atoms: C_4  and  C_5
REMARK    3  A    between atoms: N_8  and  C_9
REMARK    4  A    between atoms: N_8  and  C_10
REMARK    5  A    between atoms: C_10  and  C_11
REMARK    6  A    between atoms: C_11  and  N_12
REMARK    7  A    between atoms: C_16  and  C_17
REMARK                            x       y       z     vdW  Elec       q    Type
REMARK                         _______ _______ _______ _____ _____    ______ ____
ROOT
ATOM      1  C   UNL     1       5.263   2.732  11.886  0.00  0.00    +0.000 C 
ATOM      2  C   UNL     1       6.077   3.648  12.750  0.00  0.00    +0.000 A 
ATOM      3  C   UNL     1       7.128   4.367  12.227  0.00  0.00    +0.000 A 
ATOM      4  C   UNL     1       7.799   5.183  13.109  0.00  0.00    +0.000 A 
ATOM      5  C   UNL     1       8.955   6.025  12.671  0.00  0.00    +0.000 C 
ATOM      6  N   UNL     1       7.453   5.278  14.407  0.00  0.00    +0.000 NA
ATOM      7  C   UNL     1       6.419   4.552  14.854  0.00  0.00    +0.000 A 
ATOM      8  N   UNL     1       6.023   4.689  16.171  0.00  0.00    +0.000 N 
ATOM      9  C   UNL     1       6.808   5.523  17.065  0.00  0.00    +0.000 C 
ATOM     10  N   UNL     1       5.724   3.730  14.048  0.00  0.00    +0.000 NA
ENDROOT
BRANCH   8  11
ATOM     11  C   UNL     1       4.919   3.857  16.659  0.00  0.00    +0.000 C 
BRANCH  11  12
ATOM     12  C   UNL     1       4.162   4.495  17.824  0.00  0.00    +0.000 C 
BRANCH  12  13
ATOM     13  N   UNL     1       3.060   3.685  18.312  0.00  0.00    +0.000 N 
ATOM     14  C   UNL     1       1.770   3.729  17.861  0.00  0.00    +0.000 A 
ATOM     15  C   UNL     1       1.110   2.748  18.568  0.00  0.00    +0.000 A 
ATOM     16  N   UNL     1       1.969   2.107  19.417  0.00  0.00    +0.000 NA
ATOM     17  C   UNL     1       3.146   2.678  19.248  0.00  0.00    +0.000 A 
ATOM     18  C   UNL     1       4.395   2.310  19.956  0.00  0.00    +0.000 C 
ENDBRANCH  12  13
ENDBRANCH  11  12
ENDBRANCH   8  11
TORSDOF 3
ENDMDL
MODEL 4
REMARK VINA RESULT:      -6.4      1.546      2.280
REMARK  Name = 
REMARK  7 active torsions:
REMARK  status: ('A' for Active; 'I' for Inactive)
REMARK    1  A    between atoms: C_1  and  C_2
REMARK    2  A    between atoms: C_4  and  C_5
REMARK    3  A    between atoms: N_8  and  C_9
REMARK    4  A    between atoms: N_8  and  C_10
REMARK    5  A    between atoms: C_10  and  C_11
REMARK    6  A    between atoms: C_11  and  N_12
REMARK    7  A    between atoms: C_16  and  C_17
REMARK                            x       y       z     vdW  Elec       q    Type
REMARK                         _______ _______ _______ _____ _____    ______ ____
ROOT
ATOM      1  C   UNL     1       5.723   5.167  14.791  0.00  0.00    +0.000 C 
ATOM      2  C   UNL     1       5.928   4.878  16.248  0.00  0.00    +0.000 A 
ATOM      3  C   UNL     1       6.883   5.550  16.977  0.00  0.00    +0.000 A 
ATOM      4  C   UNL     1       6.976   5.211  18.307  0.00  0.00    +0.000 A 
ATOM      5  C   UNL     1       7.965   5.871  19.214  0.00  0.00    +0.000 C 
ATOM      6  N   UNL     1       6.184   4.279  18.869  0.00  0.00    +0.000 NA
ATOM      7  C   UNL     1       5.273   3.660  18.105  0.00  0.00    +0.000 A 
ATOM      8  N   UNL     1       4.418   2.744  18.690  0.00  0.00    +0.000 N 
ATOM      9  C   UNL     1       4.606   2.388  20.086  0.00  0.00    +0.000 C 
ATOM     10  N   UNL     1       5.132   3.939  16.798  0.00  0.00    +0.000 NA
ENDROOT
BRANCH   8  11
ATOM     11  C   UNL     1       3.456   2.043  17.835  0.00  0.00    +0.000 C 
BRANCH  11  12
ATOM     12  C   UNL     1       2.133   2.795  17.687  0.00  0.00    +0.000 C 
BRANCH  12  13
ATOM     13  N   UNL     1       1.710   3.467  18.902  0.00  0.00    +0.000 N 
ATOM     14  C   UNL     1       1.182   2.864  20.011  0.00  0.00    +0.000 A 
ATOM     15  C   UNL     1       0.997   3.884  20.918  0.00  0.00    +0.000 A 
ATOM     16  N   UNL     1       1.412   5.076  20.394  0.00  0.00    +0.000 NA
ATOM     17  C   UNL     1       1.846   4.810  19.177  0.00  0.00    +0.000 A 
ATOM     18  C   UNL     1       2.403   5.797  18.222  0.00  0.00    +0.000 C 
ENDBRANCH  12  13
ENDBRANCH  11  12
ENDBRANCH   8  11
TORSDOF 3
ENDMDL
MODEL 5
REMARK VINA RESULT:      -6.4      1.994      4.402
REMARK  Name = 
REMARK  7 active torsions:
REMARK  status: ('A' for Active; 'I' for Inactive)
REMARK    1  A    between atoms: C_1  and  C_2
REMARK    2  A    between atoms: C_4  and  C_5
REMARK    3  A    between atoms: N_8  and  C_9
REMARK    4  A    between atoms: N_8  and  C_10
REMARK    5  A    between atoms: C_10  and  C_11
REMARK    6  A    between atoms: C_11  and  N_12
REMARK    7  A    between atoms: C_16  and  C_17
REMARK                            x       y       z     vdW  Elec       q    Type
REMARK                         _______ _______ _______ _____ _____    ______ ____
ROOT
ATOM      1  C   UNL     1       7.646   7.447  17.542  0.00  0.00    +0.000 C 
ATOM      2  C   UNL     1       6.726   6.345  17.106  0.00  0.00    +0.000 A 
ATOM      3  C   UNL     1       6.931   5.677  15.920  0.00  0.00    +0.000 A 
ATOM      4  C   UNL     1       6.031   4.679  15.626  0.00  0.00    +0.000 A 
ATOM      5  C   UNL     1       6.143   3.869  14.374  0.00  0.00    +0.000 C 
ATOM      6  N   UNL     1       5.008   4.370  16.444  0.00  0.00    +0.000 NA
ATOM      7  C   UNL     1       4.863   5.057  17.586  0.00  0.00    +0.000 A 
ATOM      8  N   UNL     1       3.849   4.704  18.457  0.00  0.00    +0.000 N 
ATOM      9  C   UNL     1       2.897   3.681  18.062  0.00  0.00    +0.000 C 
ATOM     10  N   UNL     1       5.702   6.048  17.932  0.00  0.00    +0.000 NA
ENDROOT
BRANCH   8  11
ATOM     11  C   UNL     1       3.674   5.493  19.680  0.00  0.00    +0.000 C 
BRANCH  11  12
ATOM     12  C   UNL     1       2.253   6.034  19.841  0.00  0.00    +0.000 C 
BRANCH  12  13
ATOM     13  N   UNL     1       2.081   7.377  19.315  0.00  0.00    +0.000 N 
ATOM     14  C   UNL     1       2.358   7.780  18.038  0.00  0.00    +0.000 A 
ATOM     15  C   UNL     1       1.980   9.104  17.991  0.00  0.00    +0.000 A 
ATOM     16  N   UNL     1       1.472   9.502  19.196  0.00  0.00    +0.000 NA
ATOM     17  C   UNL     1       1.532   8.447  19.986  0.00  0.00    +0.000 A 
ATOM     18  C   UNL     1       1.084   8.397  21.398  0.00  0.00    +0.000 C 
ENDBRANCH  12  13
ENDBRANCH  11  12
ENDBRANCH   8  11
TORSDOF 3
ENDMDL
MODEL 6
REMARK VINA RESULT:      -6.3      1.494      2.489
REMARK  Name = 
REMARK  7 active torsions:
REMARK  status: ('A' for Active; 'I' for Inactive)
REMARK    1  A    between atoms: C_1  and  C_2
REMARK    2  A    between atoms: C_4  and  C_5
REMARK    3  A    between atoms: N_8  and  C_9
REMARK    4  A    between atoms: N_8  and  C_10
REMARK    5  A    between atoms: C_10  and  C_11
REMARK    6  A    between atoms: C_11  and  N_12
REMARK    7  A    between atoms: C_16  and  C_17
REMARK                            x       y       z     vdW  Elec       q    Type
REMARK                         _______ _______ _______ _____ _____    ______ ____
ROOT
ATOM      1  C   UNL     1       5.632   5.639  14.951  0.00  0.00    +0.000 C 
ATOM      2  C   UNL     1       5.869   5.207  16.368  0.00  0.00    +0.000 A 
ATOM      3  C   UNL     1       6.925   5.708  17.095  0.00  0.00    +0.000 A 
ATOM      4  C   UNL     1       7.040   5.248  18.387  0.00  0.00    +0.000 A 
ATOM      5  C   UNL     1       8.136   5.718  19.289  0.00  0.00    +0.000 C 
ATOM      6  N   UNL     1       6.174   4.363  18.915  0.00  0.00    +0.000 NA
ATOM      7  C   UNL     1       5.165   3.914  18.155  0.00  0.00    +0.000 A 
ATOM      8  N   UNL     1       4.241   3.049  18.710  0.00  0.00    +0.000 N 
ATOM      9  C   UNL     1       4.450   2.557  20.061  0.00  0.00    +0.000 C 
ATOM     10  N   UNL     1       4.998   4.316  16.883  0.00  0.00    +0.000 NA
ENDROOT
BRANCH   8  11
ATOM     11  C   UNL     1       3.168   2.531  17.855  0.00  0.00    +0.000 C 
BRANCH  11  12
ATOM     12  C   UNL     1       1.941   3.443  17.822  0.00  0.00    +0.000 C 
BRANCH  12  13
ATOM     13  N   UNL     1       1.967   4.485  18.832  0.00  0.00    +0.000 N 
ATOM     14  C   UNL     1       2.390   5.773  18.648  0.00  0.00    +0.000 A 
ATOM     15  C   UNL     1       2.171   6.398  19.855  0.00  0.00    +0.000 A 
ATOM     16  N   UNL     1       1.615   5.530  20.752  0.00  0.00    +0.000 NA
ATOM     17  C   UNL     1       1.491   4.379  20.121  0.00  0.00    +0.000 A 
ATOM     18  C   UNL     1       0.927   3.134  20.694  0.00  0.00    +0.000 C 
ENDBRANCH  12  13
ENDBRANCH  11  12
ENDBRANCH   8  11
TORSDOF 3
ENDMDL
MODEL 7
REMARK VINA RESULT:      -6.3      1.455      5.334
REMARK  Name = 
REMARK  7 active torsions:
REMARK  status: ('A' for Active; 'I' for Inactive)
REMARK    1  A    between atoms: C_1  and  C_2
REMARK    2  A    between atoms: C_4  and  C_5
REMARK    3  A    between atoms: N_8  and  C_9
REMARK    4  A    between atoms: N_8  and  C_10
REMARK    5  A    between atoms: C_10  and  C_11
REMARK    6  A    between atoms: C_11  and  N_12
REMARK    7  A    between atoms: C_16  and  C_17
REMARK                            x       y       z     vdW  Elec       q    Type
REMARK                         _______ _______ _______ _____ _____    ______ ____
ROOT
ATOM      1  C   UNL     1       3.744   1.537  17.708  0.00  0.00    +0.000 C 
ATOM      2  C   UNL     1       3.151   2.555  18.637  0.00  0.00    +0.000 A 
ATOM      3  C   UNL     1       2.502   2.171  19.788  0.00  0.00    +0.000 A 
ATOM      4  C   UNL     1       2.006   3.189  20.569  0.00  0.00    +0.000 A 
ATOM      5  C   UNL     1       1.286   2.911  21.851  0.00  0.00    +0.000 C 
ATOM      6  N   UNL     1       2.144   4.485  20.234  0.00  0.00    +0.000 NA
ATOM      7  C   UNL     1       2.788   4.794  19.100  0.00  0.00    +0.000 A 
ATOM      8  N   UNL     1       2.984   6.125  18.781  0.00  0.00    +0.000 N 
ATOM      9  C   UNL     1       2.386   7.151  19.617  0.00  0.00    +0.000 C 
ATOM     10  N   UNL     1       3.292   3.849  18.287  0.00  0.00    +0.000 NA
ENDROOT
BRANCH   8  11
ATOM     11  C   UNL     1       3.651   6.448  17.516  0.00  0.00    +0.000 C 
BRANCH  11  12
ATOM     12  C   UNL     1       5.133   6.780  17.692  0.00  0.00    +0.000 C 
BRANCH  12  13
ATOM     13  N   UNL     1       6.021   5.790  17.107  0.00  0.00    +0.000 N 
ATOM     14  C   UNL     1       5.854   5.179  15.895  0.00  0.00    +0.000 A 
ATOM     15  C   UNL     1       6.966   4.380  15.743  0.00  0.00    +0.000 A 
ATOM     16  N   UNL     1       7.800   4.505  16.818  0.00  0.00    +0.000 NA
ATOM     17  C   UNL     1       7.221   5.365  17.633  0.00  0.00    +0.000 A 
ATOM     18  C   UNL     1       7.762   5.822  18.935  0.00  0.00    +0.000 C 
ENDBRANCH  12  13
ENDBRANCH  11  12
ENDBRANCH   8  11
TORSDOF 3
ENDMDL
MODEL 8
REMARK VINA RESULT:      -6.3      2.163      3.462
REMARK  Name = 
REMARK  7 active torsions:
REMARK  status: ('A' for Active; 'I' for Inactive)
REMARK    1  A    between atoms: C_1  and  C_2
REMARK    2  A    between atoms: C_4  and  C_5
REMARK    3  A    between atoms: N_8  and  C_9
REMARK    4  A    between atoms: N_8  and  C_10
REMARK    5  A    between atoms: C_10  and  C_11
REMARK    6  A    between atoms: C_11  and  N_12
REMARK    7  A    between atoms: C_16  and  C_17
REMARK                            x       y       z     vdW  Elec       q    Type
REMARK                         _______ _______ _______ _____ _____    ______ ____
ROOT
ATOM      1  C   UNL     1       5.283   2.736  11.815  0.00  0.00    +0.000 C 
ATOM      2  C   UNL     1       6.102   3.654  12.673  0.00  0.00    +0.000 A 
ATOM      3  C   UNL     1       7.143   4.381  12.142  0.00  0.00    +0.000 A 
ATOM      4  C   UNL     1       7.819   5.197  13.020  0.00  0.00    +0.000 A 
ATOM      5  C   UNL     1       8.965   6.047  12.572  0.00  0.00    +0.000 C 
ATOM      6  N   UNL     1       7.486   5.285  14.321  0.00  0.00    +0.000 NA
ATOM      7  C   UNL     1       6.460   4.552  14.777  0.00  0.00    +0.000 A 
ATOM      8  N   UNL     1       6.078   4.683  16.099  0.00  0.00    +0.000 N 
ATOM      9  C   UNL     1       6.867   5.518  16.987  0.00  0.00    +0.000 C 
ATOM     10  N   UNL     1       5.761   3.730  13.975  0.00  0.00    +0.000 NA
ENDROOT
BRANCH   8  11
ATOM     11  C   UNL     1       4.983   3.843  16.595  0.00  0.00    +0.000 C 
BRANCH  11  12
ATOM     12  C   UNL     1       4.701   4.051  18.083  0.00  0.00    +0.000 C 
BRANCH  12  13
ATOM     13  N   UNL     1       3.474   3.419  18.534  0.00  0.00    +0.000 N 
ATOM     14  C   UNL     1       3.058   2.155  18.216  0.00  0.00    +0.000 A 
ATOM     15  C   UNL     1       1.888   1.977  18.919  0.00  0.00    +0.000 A 
ATOM     16  N   UNL     1       1.597   3.088  19.660  0.00  0.00    +0.000 NA
ATOM     17  C   UNL     1       2.567   3.950  19.424  0.00  0.00    +0.000 A 
ATOM     18  C   UNL     1       2.684   5.305  20.015  0.00  0.00    +0.000 C 
ENDBRANCH  12  13
ENDBRANCH  11  12
ENDBRANCH   8  11
TORSDOF 3
ENDMDL
MODEL 9
REMARK VINA RESULT:      -6.2      2.591      6.021
REMARK  Name = 
REMARK  7 active torsions:
REMARK  status: ('A' for Active; 'I' for Inactive)
REMARK    1  A    between atoms: C_1  and  C_2
REMARK    2  A    between atoms: C_4  and  C_5
REMARK    3  A    between atoms: N_8  and  C_9
REMARK    4  A    between atoms: N_8  and  C_10
REMARK    5  A    between atoms: C_10  and  C_11
REMARK    6  A    between atoms: C_11  and  N_12
REMARK    7  A    between atoms: C_16  and  C_17
REMARK                            x       y       z     vdW  Elec       q    Type
REMARK                         _______ _______ _______ _____ _____    ______ ____
ROOT
ATOM      1  C   UNL     1       1.845  10.063  17.663  0.00  0.00    +0.000 C 
ATOM      2  C   UNL     1       1.751   9.067  18.781  0.00  0.00    +0.000 A 
ATOM      3  C   UNL     1       1.055   9.356  19.932  0.00  0.00    +0.000 A 
ATOM      4  C   UNL     1       1.027   8.365  20.886  0.00  0.00    +0.000 A 
ATOM      5  C   UNL     1       0.299   8.545  22.179  0.00  0.00    +0.000 C 
ATOM      6  N   UNL     1       1.642   7.180  20.710  0.00  0.00    +0.000 NA
ATOM      7  C   UNL     1       2.303   6.959  19.565  0.00  0.00    +0.000 A 
ATOM      8  N   UNL     1       2.887   5.724  19.355  0.00  0.00    +0.000 N 
ATOM      9  C   UNL     1       2.872   4.741  20.424  0.00  0.00    +0.000 C 
ATOM     10  N   UNL     1       2.376   7.887  18.594  0.00  0.00    +0.000 NA
ENDROOT
BRANCH   8  11
ATOM     11  C   UNL     1       3.645   5.511  18.118  0.00  0.00    +0.000 C 
BRANCH  11  12
ATOM     12  C   UNL     1       5.078   5.043  18.372  0.00  0.00    +0.000 C 
BRANCH  12  13
ATOM     13  N   UNL     1       5.891   4.988  17.170  0.00  0.00    +0.000 N 
ATOM     14  C   UNL     1       5.736   4.105  16.136  0.00  0.00    +0.000 A 
ATOM     15  C   UNL     1       6.682   4.475  15.206  0.00  0.00    +0.000 A 
ATOM     16  N   UNL     1       7.387   5.561  15.642  0.00  0.00    +0.000 NA
ATOM     17  C   UNL     1       6.896   5.865  16.828  0.00  0.00    +0.000 A 
ATOM     18  C   UNL     1       7.346   6.985  17.689  0.00  0.00    +0.000 C 
ENDBRANCH  12  13
ENDBRANCH  11  12
ENDBRANCH   8  11
TORSDOF 3
ENDMDL
