MODEL 1
REMARK VINA RESULT:     -10.0      0.000      0.000
REMARK  Name = 
REMARK  6 active torsions:
REMARK  status: ('A' for Active; 'I' for Inactive)
REMARK    1  A    between atoms: C_1  and  C_2
REMARK    2  A    between atoms: C_5  and  C_6
REMARK    3  A    between atoms: C_9  and  C_10
REMARK    4  A    between atoms: C_17  and  C_19
REMARK    5  A    between atoms: C_19  and  O_20
REMARK    6  A    between atoms: O_20  and  C_21
REMARK                            x       y       z     vdW  Elec       q    Type
REMARK                         _______ _______ _______ _____ _____    ______ ____
ROOT
ATOM      1  C   UNL     1       3.476   7.058  17.565  0.00  0.00    +0.000 C 
ATOM      2  C   UNL     1       4.442   6.133  17.388  0.00  0.00    +0.000 C 
ATOM      3  N   UNL     1       4.869   5.958  16.072  0.00  0.00    +0.000 NA
ATOM      4  C   UNL     1       5.208   4.746  15.732  0.00  0.00    +0.000 C 
ATOM      5  N   UNL     1       5.122   3.655  16.630  0.00  0.00    +0.000 N 
ATOM      6  C   UNL     1       3.859   3.044  16.926  0.00  0.00    +0.000 C 
ATOM      7  O   UNL     1       2.782   3.640  16.900  0.00  0.00    +0.000 OA
ATOM      8  N   UNL     1       5.679   4.116  17.879  0.00  0.00    +0.000 N 
ATOM      9  C   UNL     1       5.184   5.304  18.425  0.00  0.00    +0.000 C 
ATOM     10  O   UNL     1       5.436   5.645  19.569  0.00  0.00    +0.000 OA
ATOM     11  H   UNL     1       6.360   3.539  18.355  0.00  0.00    +0.000 HD
ENDROOT
BRANCH   1  16
ATOM     12  C   UNL     1      -0.052  10.140  21.052  0.00  0.00    +0.000 C 
ATOM     13  C   UNL     1       0.864   9.275  20.231  0.00  0.00    +0.000 A 
ATOM     14  C   UNL     1       1.432   8.078  20.685  0.00  0.00    +0.000 A 
ATOM     15  C   UNL     1       2.293   7.299  19.869  0.00  0.00    +0.000 A 
ATOM     16  C   UNL     1       2.609   7.709  18.570  0.00  0.00    +0.000 A 
ATOM     17  C   UNL     1       2.015   8.919  18.139  0.00  0.00    +0.000 A 
ATOM     18  C   UNL     1       1.173   9.688  18.939  0.00  0.00    +0.000 A 
ENDBRANCH   1  16
BRANCH   4  19
ATOM     19  C   UNL     1       6.037   4.588  14.489  0.00  0.00    +0.000 A 
ATOM     20  C   UNL     1       5.546   3.686  13.524  0.00  0.00    +0.000 A 
ATOM     21  C   UNL     1       6.200   3.496  12.304  0.00  0.00    +0.000 A 
ATOM     22  C   UNL     1       7.377   4.189  12.044  0.00  0.00    +0.000 A 
ATOM     23  C   UNL     1       7.899   5.055  13.009  0.00  0.00    +0.000 A 
ATOM     24  C   UNL     1       7.231   5.264  14.228  0.00  0.00    +0.000 A 
ENDBRANCH   4  19
BRANCH   6  25
ATOM     25  C   UNL     1       3.969   1.619  17.520  0.00  0.00    +0.000 C 
BRANCH  25  26
ATOM     26  O   UNL     1       3.860   1.565  18.941  0.00  0.00    +0.000 OA
BRANCH  26  27
ATOM     27  C   UNL     1       2.994   2.345  19.641  0.00  0.00    +0.000 A 
ATOM     28  C   UNL     1       3.267   3.257  20.659  0.00  0.00    +0.000 A 
ATOM     29  C   UNL     1       2.220   3.988  21.257  0.00  0.00    +0.000 A 
ATOM     30  C   UNL     1       0.895   3.815  20.852  0.00  0.00    +0.000 A 
ATOM     31  C   UNL     1       0.609   2.892  19.854  0.00  0.00    +0.000 A 
ATOM     32  C   UNL     1       1.645   2.165  19.268  0.00  0.00    +0.000 A 
ENDBRANCH  26  27
ENDBRANCH  25  26
ENDBRANCH   6  25
TORSDOF 5
ENDMDL
MODEL 2
REMARK VINA RESULT:      -9.8      0.400      1.269
REMARK  Name = 
REMARK  6 active torsions:
REMARK  status: ('A' for Active; 'I' for Inactive)
REMARK    1  A    between atoms: C_1  and  C_2
REMARK    2  A    between atoms: C_5  and  C_6
REMARK    3  A    between atoms: C_9  and  C_10
REMARK    4  A    between atoms: C_17  and  C_19
REMARK    5  A    between atoms: C_19  and  O_20
REMARK    6  A    between atoms: O_20  and  C_21
REMARK                            x       y       z     vdW  Elec       q    Type
REMARK                         _______ _______ _______ _____ _____    ______ ____
ROOT
ATOM      1  C   UNL     1       3.455   7.028  17.572  0.00  0.00    +0.000 C 
ATOM      2  C   UNL     1       4.419   6.103  17.390  0.00  0.00    +0.000 C 
ATOM      3  N   UNL     1       4.860   5.948  16.076  0.00  0.00    +0.000 NA
ATOM      4  C   UNL     1       5.199   4.741  15.720  0.00  0.00    +0.000 C 
ATOM      5  N   UNL     1       5.100   3.635  16.599  0.00  0.00    +0.000 N 
ATOM      6  C   UNL     1       3.832   3.024  16.871  0.00  0.00    +0.000 C 
ATOM      7  O   UNL     1       2.757   3.624  16.843  0.00  0.00    +0.000 OA
ATOM      8  N   UNL     1       5.645   4.074  17.861  0.00  0.00    +0.000 N 
ATOM      9  C   UNL     1       5.147   5.255  18.422  0.00  0.00    +0.000 C 
ATOM     10  O   UNL     1       5.388   5.577  19.574  0.00  0.00    +0.000 OA
ATOM     11  H   UNL     1       6.319   3.487  18.336  0.00  0.00    +0.000 HD
ENDROOT
BRANCH   1  16
ATOM     12  C   UNL     1       0.085   8.957  21.934  0.00  0.00    +0.000 C 
ATOM     13  C   UNL     1       0.935   8.551  20.761  0.00  0.00    +0.000 A 
ATOM     14  C   UNL     1       1.123   9.337  19.618  0.00  0.00    +0.000 A 
ATOM     15  C   UNL     1       1.935   8.905  18.537  0.00  0.00    +0.000 A 
ATOM     16  C   UNL     1       2.578   7.665  18.577  0.00  0.00    +0.000 A 
ATOM     17  C   UNL     1       2.373   6.897  19.748  0.00  0.00    +0.000 A 
ATOM     18  C   UNL     1       1.573   7.315  20.810  0.00  0.00    +0.000 A 
ENDBRANCH   1  16
BRANCH   4  19
ATOM     19  C   UNL     1       6.042   4.601  14.484  0.00  0.00    +0.000 A 
ATOM     20  C   UNL     1       5.576   3.691  13.514  0.00  0.00    +0.000 A 
ATOM     21  C   UNL     1       6.244   3.515  12.299  0.00  0.00    +0.000 A 
ATOM     22  C   UNL     1       7.410   4.230  12.051  0.00  0.00    +0.000 A 
ATOM     23  C   UNL     1       7.908   5.104  13.021  0.00  0.00    +0.000 A 
ATOM     24  C   UNL     1       7.226   5.299  14.235  0.00  0.00    +0.000 A 
ENDBRANCH   4  19
BRANCH   6  25
ATOM     25  C   UNL     1       3.931   1.589  17.443  0.00  0.00    +0.000 C 
BRANCH  25  26
ATOM     26  O   UNL     1       3.812   1.513  18.862  0.00  0.00    +0.000 OA
BRANCH  26  27
ATOM     27  C   UNL     1       2.844   2.170  19.554  0.00  0.00    +0.000 A 
ATOM     28  C   UNL     1       1.472   2.213  19.311  0.00  0.00    +0.000 A 
ATOM     29  C   UNL     1       0.621   2.949  20.161  0.00  0.00    +0.000 A 
ATOM     30  C   UNL     1       1.129   3.652  21.256  0.00  0.00    +0.000 A 
ATOM     31  C   UNL     1       2.497   3.634  21.496  0.00  0.00    +0.000 A 
ATOM     32  C   UNL     1       3.337   2.911  20.649  0.00  0.00    +0.000 A 
ENDBRANCH  26  27
ENDBRANCH  25  26
ENDBRANCH   6  25
TORSDOF 5
ENDMDL
MODEL 3
REMARK VINA RESULT:      -9.1      3.173      6.018
REMARK  Name = 
REMARK  6 active torsions:
REMARK  status: ('A' for Active; 'I' for Inactive)
REMARK    1  A    between atoms: C_1  and  C_2
REMARK    2  A    between atoms: C_5  and  C_6
REMARK    3  A    between atoms: C_9  and  C_10
REMARK    4  A    between atoms: C_17  and  C_19
REMARK    5  A    between atoms: C_19  and  O_20
REMARK    6  A    between atoms: O_20  and  C_21
REMARK                            x       y       z     vdW  Elec       q    Type
REMARK                         _______ _______ _______ _____ _____    ______ ____
ROOT
ATOM      1  C   UNL     1       3.608   3.679  17.830  0.00  0.00    +0.000 C 
ATOM      2  C   UNL     1       4.219   4.663  17.139  0.00  0.00    +0.000 C 
ATOM      3  N   UNL     1       4.946   4.247  16.023  0.00  0.00    +0.000 NA
ATOM      4  C   UNL     1       6.030   4.921  15.758  0.00  0.00    +0.000 C 
ATOM      5  N   UNL     1       6.472   5.996  16.567  0.00  0.00    +0.000 N 
ATOM      6  C   UNL     1       7.125   5.753  17.820  0.00  0.00    +0.000 C 
ATOM      7  O   UNL     1       6.915   4.766  18.526  0.00  0.00    +0.000 OA
ATOM      8  N   UNL     1       5.305   6.801  16.839  0.00  0.00    +0.000 N 
ATOM      9  C   UNL     1       4.171   6.167  17.357  0.00  0.00    +0.000 C 
ATOM     10  O   UNL     1       3.232   6.796  17.817  0.00  0.00    +0.000 OA
ATOM     11  H   UNL     1       5.360   7.803  16.713  0.00  0.00    +0.000 HD
ENDROOT
BRANCH   1  16
ATOM     12  C   UNL     1       0.867   2.301  22.800  0.00  0.00    +0.000 C 
ATOM     13  C   UNL     1       1.481   2.689  21.482  0.00  0.00    +0.000 A 
ATOM     14  C   UNL     1       0.758   3.210  20.403  0.00  0.00    +0.000 A 
ATOM     15  C   UNL     1       1.387   3.559  19.178  0.00  0.00    +0.000 A 
ATOM     16  C   UNL     1       2.763   3.388  19.009  0.00  0.00    +0.000 A 
ATOM     17  C   UNL     1       3.466   2.864  20.120  0.00  0.00    +0.000 A 
ATOM     18  C   UNL     1       2.852   2.517  21.322  0.00  0.00    +0.000 A 
ENDBRANCH   1  16
BRANCH   4  19
ATOM     19  C   UNL     1       6.606   4.778  14.377  0.00  0.00    +0.000 A 
ATOM     20  C   UNL     1       6.025   3.787  13.561  0.00  0.00    +0.000 A 
ATOM     21  C   UNL     1       6.438   3.598  12.239  0.00  0.00    +0.000 A 
ATOM     22  C   UNL     1       7.465   4.383  11.725  0.00  0.00    +0.000 A 
ATOM     23  C   UNL     1       8.079   5.340  12.537  0.00  0.00    +0.000 A 
ATOM     24  C   UNL     1       7.651   5.547  13.859  0.00  0.00    +0.000 A 
ENDBRANCH   4  19
BRANCH   6  25
ATOM     25  C   UNL     1       7.950   6.952  18.346  0.00  0.00    +0.000 C 
BRANCH  25  26
ATOM     26  O   UNL     1       7.876   8.120  17.530  0.00  0.00    +0.000 OA
BRANCH  26  27
ATOM     27  C   UNL     1       8.297   9.340  17.955  0.00  0.00    +0.000 A 
ATOM     28  C   UNL     1       8.090  10.588  17.371  0.00  0.00    +0.000 A 
ATOM     29  C   UNL     1       8.602  11.753  17.980  0.00  0.00    +0.000 A 
ATOM     30  C   UNL     1       9.327  11.684  19.171  0.00  0.00    +0.000 A 
ATOM     31  C   UNL     1       9.559  10.443  19.752  0.00  0.00    +0.000 A 
ATOM     32  C   UNL     1       9.057   9.292  19.144  0.00  0.00    +0.000 A 
ENDBRANCH  26  27
ENDBRANCH  25  26
ENDBRANCH   6  25
TORSDOF 5
ENDMDL
MODEL 4
REMARK VINA RESULT:      -9.0      3.729      4.467
REMARK  Name = 
REMARK  6 active torsions:
REMARK  status: ('A' for Active; 'I' for Inactive)
REMARK    1  A    between atoms: C_1  and  C_2
REMARK    2  A    between atoms: C_5  and  C_6
REMARK    3  A    between atoms: C_9  and  C_10
REMARK    4  A    between atoms: C_17  and  C_19
REMARK    5  A    between atoms: C_19  and  O_20
REMARK    6  A    between atoms: O_20  and  C_21
REMARK                            x       y       z     vdW  Elec       q    Type
REMARK                         _______ _______ _______ _____ _____    ______ ____
ROOT
ATOM      1  C   UNL     1       8.157   8.421  17.383  0.00  0.00    +0.000 C 
ATOM      2  C   UNL     1       7.623   7.183  17.324  0.00  0.00    +0.000 C 
ATOM      3  N   UNL     1       7.429   6.675  16.040  0.00  0.00    +0.000 NA
ATOM      4  C   UNL     1       6.385   5.914  15.873  0.00  0.00    +0.000 C 
ATOM      5  N   UNL     1       5.473   5.637  16.920  0.00  0.00    +0.000 N 
ATOM      6  C   UNL     1       4.498   6.608  17.323  0.00  0.00    +0.000 C 
ATOM      7  O   UNL     1       4.660   7.826  17.230  0.00  0.00    +0.000 OA
ATOM      8  N   UNL     1       6.274   5.326  18.080  0.00  0.00    +0.000 N 
ATOM      9  C   UNL     1       7.270   6.232  18.458  0.00  0.00    +0.000 C 
ATOM     10  O   UNL     1       7.837   6.159  19.536  0.00  0.00    +0.000 OA
ATOM     11  H   UNL     1       6.052   4.502  18.623  0.00  0.00    +0.000 HD
ENDROOT
BRANCH   1  16
ATOM     12  C   UNL     1       9.772  13.121  20.449  0.00  0.00    +0.000 C 
ATOM     13  C   UNL     1       9.370  11.854  19.746  0.00  0.00    +0.000 A 
ATOM     14  C   UNL     1       9.363  10.590  20.349  0.00  0.00    +0.000 A 
ATOM     15  C   UNL     1       8.976   9.423  19.639  0.00  0.00    +0.000 A 
ATOM     16  C   UNL     1       8.588   9.499  18.299  0.00  0.00    +0.000 A 
ATOM     17  C   UNL     1       8.600  10.791  17.720  0.00  0.00    +0.000 A 
ATOM     18  C   UNL     1       8.984  11.938  18.413  0.00  0.00    +0.000 A 
ENDBRANCH   1  16
BRANCH   4  19
ATOM     19  C   UNL     1       6.361   5.039  14.652  0.00  0.00    +0.000 A 
ATOM     20  C   UNL     1       5.190   4.279  14.454  0.00  0.00    +0.000 A 
ATOM     21  C   UNL     1       5.028   3.471  13.326  0.00  0.00    +0.000 A 
ATOM     22  C   UNL     1       6.054   3.389  12.390  0.00  0.00    +0.000 A 
ATOM     23  C   UNL     1       7.238   4.103  12.595  0.00  0.00    +0.000 A 
ATOM     24  C   UNL     1       7.394   4.934  13.718  0.00  0.00    +0.000 A 
ENDBRANCH   4  19
BRANCH   6  25
ATOM     25  C   UNL     1       3.306   6.019  18.114  0.00  0.00    +0.000 C 
BRANCH  25  26
ATOM     26  O   UNL     1       3.381   4.610  18.326  0.00  0.00    +0.000 OA
BRANCH  26  27
ATOM     27  C   UNL     1       2.686   3.977  19.307  0.00  0.00    +0.000 A 
ATOM     28  C   UNL     1       1.309   3.951  19.526  0.00  0.00    +0.000 A 
ATOM     29  C   UNL     1       0.774   3.216  20.604  0.00  0.00    +0.000 A 
ATOM     30  C   UNL     1       1.604   2.507  21.476  0.00  0.00    +0.000 A 
ATOM     31  C   UNL     1       2.979   2.543  21.281  0.00  0.00    +0.000 A 
ATOM     32  C   UNL     1       3.506   3.276  20.217  0.00  0.00    +0.000 A 
ENDBRANCH  26  27
ENDBRANCH  25  26
ENDBRANCH   6  25
TORSDOF 5
ENDMDL
MODEL 5
REMARK VINA RESULT:      -8.8      3.735      4.578
REMARK  Name = 
REMARK  6 active torsions:
REMARK  status: ('A' for Active; 'I' for Inactive)
REMARK    1  A    between atoms: C_1  and  C_2
REMARK    2  A    between atoms: C_5  and  C_6
REMARK    3  A    between atoms: C_9  and  C_10
REMARK    4  A    between atoms: C_17  and  C_19
REMARK    5  A    between atoms: C_19  and  O_20
REMARK    6  A    between atoms: O_20  and  C_21
REMARK                            x       y       z     vdW  Elec       q    Type
REMARK                         _______ _______ _______ _____ _____    ______ ____
ROOT
ATOM      1  C   UNL     1       8.156   8.433  17.398  0.00  0.00    +0.000 C 
ATOM      2  C   UNL     1       7.595   7.208  17.336  0.00  0.00    +0.000 C 
ATOM      3  N   UNL     1       7.394   6.707  16.050  0.00  0.00    +0.000 NA
ATOM      4  C   UNL     1       6.332   5.970  15.878  0.00  0.00    +0.000 C 
ATOM      5  N   UNL     1       5.410   5.713  16.921  0.00  0.00    +0.000 N 
ATOM      6  C   UNL     1       4.457   6.706  17.321  0.00  0.00    +0.000 C 
ATOM      7  O   UNL     1       4.647   7.920  17.231  0.00  0.00    +0.000 OA
ATOM      8  N   UNL     1       6.199   5.382  18.083  0.00  0.00    +0.000 N 
ATOM      9  C   UNL     1       7.215   6.264  18.466  0.00  0.00    +0.000 C 
ATOM     10  O   UNL     1       7.776   6.176  19.546  0.00  0.00    +0.000 OA
ATOM     11  H   UNL     1       5.956   4.562  18.624  0.00  0.00    +0.000 HD
ENDROOT
BRANCH   1  16
ATOM     12  C   UNL     1       9.859  13.092  20.480  0.00  0.00    +0.000 C 
ATOM     13  C   UNL     1       9.435  11.834  19.773  0.00  0.00    +0.000 A 
ATOM     14  C   UNL     1       9.413  10.567  20.368  0.00  0.00    +0.000 A 
ATOM     15  C   UNL     1       9.005   9.410  19.654  0.00  0.00    +0.000 A 
ATOM     16  C   UNL     1       8.609   9.499  18.317  0.00  0.00    +0.000 A 
ATOM     17  C   UNL     1       8.636  10.794  17.746  0.00  0.00    +0.000 A 
ATOM     18  C   UNL     1       9.041  11.932  18.442  0.00  0.00    +0.000 A 
ENDBRANCH   1  16
BRANCH   4  19
ATOM     19  C   UNL     1       6.293   5.098  14.655  0.00  0.00    +0.000 A 
ATOM     20  C   UNL     1       7.379   5.225  13.765  0.00  0.00    +0.000 A 
ATOM     21  C   UNL     1       7.482   4.427  12.623  0.00  0.00    +0.000 A 
ATOM     22  C   UNL     1       6.478   3.508  12.338  0.00  0.00    +0.000 A 
ATOM     23  C   UNL     1       5.374   3.401  13.188  0.00  0.00    +0.000 A 
ATOM     24  C   UNL     1       5.279   4.187  14.350  0.00  0.00    +0.000 A 
ENDBRANCH   4  19
BRANCH   6  25
ATOM     25  C   UNL     1       3.249   6.143  18.108  0.00  0.00    +0.000 C 
BRANCH  25  26
ATOM     26  O   UNL     1       3.600   5.410  19.279  0.00  0.00    +0.000 OA
BRANCH  26  27
ATOM     27  C   UNL     1       2.889   4.337  19.715  0.00  0.00    +0.000 A 
ATOM     28  C   UNL     1       2.455   3.225  18.994  0.00  0.00    +0.000 A 
ATOM     29  C   UNL     1       1.733   2.199  19.638  0.00  0.00    +0.000 A 
ATOM     30  C   UNL     1       1.432   2.272  20.999  0.00  0.00    +0.000 A 
ATOM     31  C   UNL     1       1.840   3.386  21.723  0.00  0.00    +0.000 A 
ATOM     32  C   UNL     1       2.549   4.403  21.083  0.00  0.00    +0.000 A 
ENDBRANCH  26  27
ENDBRANCH  25  26
ENDBRANCH   6  25
TORSDOF 5
ENDMDL
MODEL 6
REMARK VINA RESULT:      -8.5      3.851      4.662
REMARK  Name = 
REMARK  6 active torsions:
REMARK  status: ('A' for Active; 'I' for Inactive)
REMARK    1  A    between atoms: C_1  and  C_2
REMARK    2  A    between atoms: C_5  and  C_6
REMARK    3  A    between atoms: C_9  and  C_10
REMARK    4  A    between atoms: C_17  and  C_19
REMARK    5  A    between atoms: C_19  and  O_20
REMARK    6  A    between atoms: O_20  and  C_21
REMARK                            x       y       z     vdW  Elec       q    Type
REMARK                         _______ _______ _______ _____ _____    ______ ____
ROOT
ATOM      1  C   UNL     1       8.248   8.557  17.494  0.00  0.00    +0.000 C 
ATOM      2  C   UNL     1       7.707   7.322  17.455  0.00  0.00    +0.000 C 
ATOM      3  N   UNL     1       7.491   6.803  16.179  0.00  0.00    +0.000 NA
ATOM      4  C   UNL     1       6.440   6.046  16.035  0.00  0.00    +0.000 C 
ATOM      5  N   UNL     1       5.543   5.784  17.099  0.00  0.00    +0.000 N 
ATOM      6  C   UNL     1       4.579   6.764  17.506  0.00  0.00    +0.000 C 
ATOM      7  O   UNL     1       4.746   7.980  17.399  0.00  0.00    +0.000 OA
ATOM      8  N   UNL     1       6.359   5.480  18.249  0.00  0.00    +0.000 N 
ATOM      9  C   UNL     1       7.365   6.384  18.603  0.00  0.00    +0.000 C 
ATOM     10  O   UNL     1       7.948   6.318  19.673  0.00  0.00    +0.000 OA
ATOM     11  H   UNL     1       6.142   4.662  18.803  0.00  0.00    +0.000 HD
ENDROOT
BRANCH   1  16
ATOM     12  C   UNL     1       9.958  13.274  20.483  0.00  0.00    +0.000 C 
ATOM     13  C   UNL     1       9.529  12.004  19.801  0.00  0.00    +0.000 A 
ATOM     14  C   UNL     1       9.481  10.753  20.429  0.00  0.00    +0.000 A 
ATOM     15  C   UNL     1       9.070   9.583  19.738  0.00  0.00    +0.000 A 
ATOM     16  C   UNL     1       8.698   9.642  18.392  0.00  0.00    +0.000 A 
ATOM     17  C   UNL     1       8.752  10.921  17.788  0.00  0.00    +0.000 A 
ATOM     18  C   UNL     1       9.159  12.071  18.462  0.00  0.00    +0.000 A 
ENDBRANCH   1  16
BRANCH   4  19
ATOM     19  C   UNL     1       6.394   5.159  14.823  0.00  0.00    +0.000 A 
ATOM     20  C   UNL     1       5.245   4.353  14.686  0.00  0.00    +0.000 A 
ATOM     21  C   UNL     1       5.062   3.528  13.573  0.00  0.00    +0.000 A 
ATOM     22  C   UNL     1       6.046   3.477  12.591  0.00  0.00    +0.000 A 
ATOM     23  C   UNL     1       7.209   4.239  12.735  0.00  0.00    +0.000 A 
ATOM     24  C   UNL     1       7.386   5.085  13.843  0.00  0.00    +0.000 A 
ENDBRANCH   4  19
BRANCH   6  25
ATOM     25  C   UNL     1       3.396   6.189  18.321  0.00  0.00    +0.000 C 
BRANCH  25  26
ATOM     26  O   UNL     1       2.587   5.258  17.605  0.00  0.00    +0.000 OA
BRANCH  26  27
ATOM     27  C   UNL     1       2.469   3.955  17.970  0.00  0.00    +0.000 A 
ATOM     28  C   UNL     1       3.417   2.935  17.892  0.00  0.00    +0.000 A 
ATOM     29  C   UNL     1       3.102   1.636  18.340  0.00  0.00    +0.000 A 
ATOM     30  C   UNL     1       1.842   1.338  18.865  0.00  0.00    +0.000 A 
ATOM     31  C   UNL     1       0.882   2.341  18.927  0.00  0.00    +0.000 A 
ATOM     32  C   UNL     1       1.193   3.624  18.477  0.00  0.00    +0.000 A 
ENDBRANCH  26  27
ENDBRANCH  25  26
ENDBRANCH   6  25
TORSDOF 5
ENDMDL
MODEL 7
REMARK VINA RESULT:      -8.4      3.240      6.077
REMARK  Name = 
REMARK  6 active torsions:
REMARK  status: ('A' for Active; 'I' for Inactive)
REMARK    1  A    between atoms: C_1  and  C_2
REMARK    2  A    between atoms: C_5  and  C_6
REMARK    3  A    between atoms: C_9  and  C_10
REMARK    4  A    between atoms: C_17  and  C_19
REMARK    5  A    between atoms: C_19  and  O_20
REMARK    6  A    between atoms: O_20  and  C_21
REMARK                            x       y       z     vdW  Elec       q    Type
REMARK                         _______ _______ _______ _____ _____    ______ ____
ROOT
ATOM      1  C   UNL     1       4.083   3.456  18.153  0.00  0.00    +0.000 C 
ATOM      2  C   UNL     1       4.571   4.491  17.439  0.00  0.00    +0.000 C 
ATOM      3  N   UNL     1       5.234   4.146  16.262  0.00  0.00    +0.000 NA
ATOM      4  C   UNL     1       6.246   4.897  15.929  0.00  0.00    +0.000 C 
ATOM      5  N   UNL     1       6.677   5.985  16.726  0.00  0.00    +0.000 N 
ATOM      6  C   UNL     1       7.441   5.766  17.919  0.00  0.00    +0.000 C 
ATOM      7  O   UNL     1       7.354   4.755  18.617  0.00  0.00    +0.000 OA
ATOM      8  N   UNL     1       5.484   6.703  17.105  0.00  0.00    +0.000 N 
ATOM      9  C   UNL     1       4.439   5.985  17.694  0.00  0.00    +0.000 C 
ATOM     10  O   UNL     1       3.499   6.539  18.240  0.00  0.00    +0.000 OA
ATOM     11  H   UNL     1       5.462   7.709  16.998  0.00  0.00    +0.000 HD
ENDROOT
BRANCH   1  16
ATOM     12  C   UNL     1       0.634   2.291  22.720  0.00  0.00    +0.000 C 
ATOM     13  C   UNL     1       1.600   2.544  21.595  0.00  0.00    +0.000 A 
ATOM     14  C   UNL     1       2.954   2.187  21.627  0.00  0.00    +0.000 A 
ATOM     15  C   UNL     1       3.825   2.451  20.538  0.00  0.00    +0.000 A 
ATOM     16  C   UNL     1       3.355   3.087  19.386  0.00  0.00    +0.000 A 
ATOM     17  C   UNL     1       1.981   3.430  19.382  0.00  0.00    +0.000 A 
ATOM     18  C   UNL     1       1.124   3.177  20.452  0.00  0.00    +0.000 A 
ENDBRANCH   1  16
BRANCH   4  19
ATOM     19  C   UNL     1       6.720   4.818  14.505  0.00  0.00    +0.000 A 
ATOM     20  C   UNL     1       6.087   3.858  13.691  0.00  0.00    +0.000 A 
ATOM     21  C   UNL     1       6.403   3.729  12.336  0.00  0.00    +0.000 A 
ATOM     22  C   UNL     1       7.385   4.544  11.782  0.00  0.00    +0.000 A 
ATOM     23  C   UNL     1       8.052   5.471  12.588  0.00  0.00    +0.000 A 
ATOM     24  C   UNL     1       7.720   5.618  13.946  0.00  0.00    +0.000 A 
ENDBRANCH   4  19
BRANCH   6  25
ATOM     25  C   UNL     1       8.223   7.009  18.407  0.00  0.00    +0.000 C 
BRANCH  25  26
ATOM     26  O   UNL     1       7.883   8.219  17.733  0.00  0.00    +0.000 OA
BRANCH  26  27
ATOM     27  C   UNL     1       8.363   9.432  18.114  0.00  0.00    +0.000 A 
ATOM     28  C   UNL     1       9.286   9.731  19.115  0.00  0.00    +0.000 A 
ATOM     29  C   UNL     1       9.671  11.068  19.351  0.00  0.00    +0.000 A 
ATOM     30  C   UNL     1       9.136  12.116  18.599  0.00  0.00    +0.000 A 
ATOM     31  C   UNL     1       8.199  11.832  17.614  0.00  0.00    +0.000 A 
ATOM     32  C   UNL     1       7.815  10.510  17.386  0.00  0.00    +0.000 A 
ENDBRANCH  26  27
ENDBRANCH  25  26
ENDBRANCH   6  25
TORSDOF 5
ENDMDL
MODEL 8
REMARK VINA RESULT:      -8.2      3.789      4.751
REMARK  Name = 
REMARK  6 active torsions:
REMARK  status: ('A' for Active; 'I' for Inactive)
REMARK    1  A    between atoms: C_1  and  C_2
REMARK    2  A    between atoms: C_5  and  C_6
REMARK    3  A    between atoms: C_9  and  C_10
REMARK    4  A    between atoms: C_17  and  C_19
REMARK    5  A    between atoms: C_19  and  O_20
REMARK    6  A    between atoms: O_20  and  C_21
REMARK                            x       y       z     vdW  Elec       q    Type
REMARK                         _______ _______ _______ _____ _____    ______ ____
ROOT
ATOM      1  C   UNL     1       8.142   8.509  17.438  0.00  0.00    +0.000 C 
ATOM      2  C   UNL     1       7.597   7.276  17.410  0.00  0.00    +0.000 C 
ATOM      3  N   UNL     1       7.341   6.763  16.138  0.00  0.00    +0.000 NA
ATOM      4  C   UNL     1       6.284   6.010  16.022  0.00  0.00    +0.000 C 
ATOM      5  N   UNL     1       5.418   5.745  17.111  0.00  0.00    +0.000 N 
ATOM      6  C   UNL     1       4.471   6.726  17.553  0.00  0.00    +0.000 C 
ATOM      7  O   UNL     1       4.638   7.942  17.446  0.00  0.00    +0.000 OA
ATOM      8  N   UNL     1       6.269   5.433  18.235  0.00  0.00    +0.000 N 
ATOM      9  C   UNL     1       7.288   6.332  18.563  0.00  0.00    +0.000 C 
ATOM     10  O   UNL     1       7.903   6.260  19.614  0.00  0.00    +0.000 OA
ATOM     11  H   UNL     1       6.065   4.613  18.791  0.00  0.00    +0.000 HD
ENDROOT
BRANCH   1  16
ATOM     12  C   UNL     1       9.943  13.208  20.401  0.00  0.00    +0.000 C 
ATOM     13  C   UNL     1       9.495  11.942  19.725  0.00  0.00    +0.000 A 
ATOM     14  C   UNL     1       9.487  10.684  20.339  0.00  0.00    +0.000 A 
ATOM     15  C   UNL     1       9.055   9.517  19.655  0.00  0.00    +0.000 A 
ATOM     16  C   UNL     1       8.623   9.588  18.328  0.00  0.00    +0.000 A 
ATOM     17  C   UNL     1       8.638  10.874  17.736  0.00  0.00    +0.000 A 
ATOM     18  C   UNL     1       9.065  12.020  18.404  0.00  0.00    +0.000 A 
ENDBRANCH   1  16
BRANCH   4  19
ATOM     19  C   UNL     1       6.198   5.129  14.808  0.00  0.00    +0.000 A 
ATOM     20  C   UNL     1       7.291   5.188  13.919  0.00  0.00    +0.000 A 
ATOM     21  C   UNL     1       7.351   4.375  12.784  0.00  0.00    +0.000 A 
ATOM     22  C   UNL     1       6.298   3.510  12.506  0.00  0.00    +0.000 A 
ATOM     23  C   UNL     1       5.189   3.472  13.355  0.00  0.00    +0.000 A 
ATOM     24  C   UNL     1       5.136   4.273  14.509  0.00  0.00    +0.000 A 
ENDBRANCH   4  19
BRANCH   6  25
ATOM     25  C   UNL     1       3.311   6.150  18.400  0.00  0.00    +0.000 C 
BRANCH  25  26
ATOM     26  O   UNL     1       2.730   4.960  17.869  0.00  0.00    +0.000 OA
BRANCH  26  27
ATOM     27  C   UNL     1       3.114   3.717  18.261  0.00  0.00    +0.000 A 
ATOM     28  C   UNL     1       3.126   2.533  17.525  0.00  0.00    +0.000 A 
ATOM     29  C   UNL     1       3.580   1.335  18.114  0.00  0.00    +0.000 A 
ATOM     30  C   UNL     1       4.019   1.303  19.440  0.00  0.00    +0.000 A 
ATOM     31  C   UNL     1       3.991   2.472  20.190  0.00  0.00    +0.000 A 
ATOM     32  C   UNL     1       3.536   3.655  19.607  0.00  0.00    +0.000 A 
ENDBRANCH  26  27
ENDBRANCH  25  26
ENDBRANCH   6  25
TORSDOF 5
ENDMDL
MODEL 9
REMARK VINA RESULT:      -8.2      3.693      5.157
REMARK  Name = 
REMARK  6 active torsions:
REMARK  status: ('A' for Active; 'I' for Inactive)
REMARK    1  A    between atoms: C_1  and  C_2
REMARK    2  A    between atoms: C_5  and  C_6
REMARK    3  A    between atoms: C_9  and  C_10
REMARK    4  A    between atoms: C_17  and  C_19
REMARK    5  A    between atoms: C_19  and  O_20
REMARK    6  A    between atoms: O_20  and  C_21
REMARK                            x       y       z     vdW  Elec       q    Type
REMARK                         _______ _______ _______ _____ _____    ______ ____
ROOT
ATOM      1  C   UNL     1       8.115   8.374  17.380  0.00  0.00    +0.000 C 
ATOM      2  C   UNL     1       7.585   7.134  17.325  0.00  0.00    +0.000 C 
ATOM      3  N   UNL     1       7.354   6.638  16.043  0.00  0.00    +0.000 NA
ATOM      4  C   UNL     1       6.309   5.873  15.900  0.00  0.00    +0.000 C 
ATOM      5  N   UNL     1       5.431   5.582  16.972  0.00  0.00    +0.000 N 
ATOM      6  C   UNL     1       4.464   6.544  17.414  0.00  0.00    +0.000 C 
ATOM      7  O   UNL     1       4.618   7.763  17.328  0.00  0.00    +0.000 OA
ATOM      8  N   UNL     1       6.268   5.263  18.103  0.00  0.00    +0.000 N 
ATOM      9  C   UNL     1       7.271   6.170  18.459  0.00  0.00    +0.000 C 
ATOM     10  O   UNL     1       7.871   6.089  19.519  0.00  0.00    +0.000 OA
ATOM     11  H   UNL     1       6.067   4.432  18.644  0.00  0.00    +0.000 HD
ENDROOT
BRANCH   1  16
ATOM     12  C   UNL     1       9.821  13.048  20.437  0.00  0.00    +0.000 C 
ATOM     13  C   UNL     1       9.396  11.787  19.736  0.00  0.00    +0.000 A 
ATOM     14  C   UNL     1       9.379  10.522  20.336  0.00  0.00    +0.000 A 
ATOM     15  C   UNL     1       8.970   9.361  19.629  0.00  0.00    +0.000 A 
ATOM     16  C   UNL     1       8.569   9.444  18.293  0.00  0.00    +0.000 A 
ATOM     17  C   UNL     1       8.591  10.737  17.716  0.00  0.00    +0.000 A 
ATOM     18  C   UNL     1       8.996  11.878  18.407  0.00  0.00    +0.000 A 
ENDBRANCH   1  16
BRANCH   4  19
ATOM     19  C   UNL     1       6.251   5.010  14.671  0.00  0.00    +0.000 A 
ATOM     20  C   UNL     1       7.319   5.152  13.762  0.00  0.00    +0.000 A 
ATOM     21  C   UNL     1       7.406   4.364  12.611  0.00  0.00    +0.000 A 
ATOM     22  C   UNL     1       6.403   3.440  12.338  0.00  0.00    +0.000 A 
ATOM     23  C   UNL     1       5.316   3.319  13.209  0.00  0.00    +0.000 A 
ATOM     24  C   UNL     1       5.238   4.095  14.378  0.00  0.00    +0.000 A 
ENDBRANCH   4  19
BRANCH   6  25
ATOM     25  C   UNL     1       3.300   5.941  18.235  0.00  0.00    +0.000 C 
BRANCH  25  26
ATOM     26  O   UNL     1       3.051   6.603  19.474  0.00  0.00    +0.000 OA
BRANCH  26  27
ATOM     27  C   UNL     1       2.164   7.625  19.595  0.00  0.00    +0.000 A 
ATOM     28  C   UNL     1       1.778   8.565  18.640  0.00  0.00    +0.000 A 
ATOM     29  C   UNL     1       0.822   9.551  18.959  0.00  0.00    +0.000 A 
ATOM     30  C   UNL     1       0.247   9.615  20.230  0.00  0.00    +0.000 A 
ATOM     31  C   UNL     1       0.640   8.697  21.197  0.00  0.00    +0.000 A 
ATOM     32  C   UNL     1       1.591   7.726  20.881  0.00  0.00    +0.000 A 
ENDBRANCH  26  27
ENDBRANCH  25  26
ENDBRANCH   6  25
TORSDOF 5
ENDMDL
