MODEL 1
REMARK VINA RESULT:      -6.9      0.000      0.000
REMARK  Name = 
REMARK  12 active torsions:
REMARK  status: ('A' for Active; 'I' for Inactive)
REMARK    1  A    between atoms: C_1  and  N_2
REMARK    2  A    between atoms: N_9  and  C_10
REMARK    3  A    between atoms: C_10  and  C_11
REMARK    4  A    between atoms: C_11  and  O_12
REMARK    5  A    between atoms: C_11  and  C_13
REMARK    6  A    between atoms: C_13  and  N_14
REMARK    7  A    between atoms: N_17  and  C_18
REMARK    8  A    between atoms: C_18  and  C_19
REMARK    9  A    between atoms: C_19  and  C_20
REMARK   10  A    between atoms: C_20  and  O_21
REMARK   11  A    between atoms: O_21  and  C_22
REMARK   12  A    between atoms: N_32  and  C_33
REMARK                            x       y       z     vdW  Elec       q    Type
REMARK                         _______ _______ _______ _____ _____    ______ ____
ROOT
ATOM      1  C   UNL     1       0.989   8.855  21.445  0.00  0.00    +0.000 C 
ENDROOT
BRANCH   1   2
ATOM      2  O   UNL     1      -0.367   8.388  21.410  0.00  0.00    +0.000 OA
ATOM      3  H   UNL     1      -0.612   8.233  20.483  0.00  0.00    +0.000 HD
ENDBRANCH   1   2
BRANCH   1   4
ATOM      4  C   UNL     1       1.193  10.019  20.447  0.00  0.00    +0.000 C 
BRANCH   4  13
ATOM      5  C   UNL     1      -2.445  10.346  16.237  0.00  0.00    +0.000 C 
ATOM      6  N   UNL     1      -2.690  10.974  17.510  0.00  0.00    +0.000 N 
ATOM      7  C   UNL     1      -3.787  11.732  17.843  0.00  0.00    +0.000 A 
ATOM      8  N   UNL     1      -3.693  12.207  19.070  0.00  0.00    +0.000 NA
ATOM      9  C   UNL     1      -2.496  11.740  19.523  0.00  0.00    +0.000 A 
ATOM     10  C   UNL     1      -1.871  10.961  18.599  0.00  0.00    +0.000 A 
ATOM     11  C   UNL     1      -0.626  10.320  18.833  0.00  0.00    +0.000 A 
ATOM     12  O   UNL     1      -0.097   9.571  18.016  0.00  0.00    +0.000 OA
ATOM     13  N   UNL     1      -0.076  10.645  20.075  0.00  0.00    +0.000 N 
ATOM     14  C   UNL     1      -0.634  11.557  20.997  0.00  0.00    +0.000 A 
ATOM     15  O   UNL     1      -0.006  11.931  21.990  0.00  0.00    +0.000 OA
ATOM     16  N   UNL     1      -1.926  12.010  20.741  0.00  0.00    +0.000 N 
ATOM     17  C   UNL     1      -2.633  12.804  21.726  0.00  0.00    +0.000 C 
ENDBRANCH   4  13
ENDBRANCH   1   4
BRANCH   1  18
ATOM     18  C   UNL     1       1.957   7.675  21.160  0.00  0.00    +0.000 C 
BRANCH  18  19
ATOM     19  N   UNL     1       1.550   6.815  20.038  0.00  0.00    +0.000 NA
ATOM     20  C   UNL     1       2.517   6.862  18.917  0.00  0.00    +0.000 C 
ATOM     21  C   UNL     1       3.825   6.106  19.211  0.00  0.00    +0.000 C 
ATOM     22  N   UNL     1       3.593   4.664  19.440  0.00  0.00    +0.000 NA
ATOM     23  C   UNL     1       2.643   4.536  20.569  0.00  0.00    +0.000 C 
ATOM     24  C   UNL     1       1.358   5.404  20.454  0.00  0.00    +0.000 C 
BRANCH  22  25
ATOM     25  C   UNL     1       3.093   3.978  18.231  0.00  0.00    +0.000 C 
BRANCH  25  26
ATOM     26  C   UNL     1       4.189   3.254  17.439  0.00  0.00    +0.000 C 
BRANCH  26  27
ATOM     27  C   UNL     1       4.744   4.152  16.342  0.00  0.00    +0.000 C 
BRANCH  27  28
ATOM     28  O   UNL     1       6.169   4.078  16.360  0.00  0.00    +0.000 OA
BRANCH  28  29
ATOM     29  C   UNL     1       6.773   5.096  17.049  0.00  0.00    +0.000 A 
ATOM     30  C   UNL     1       7.341   4.734  18.270  0.00  0.00    +0.000 A 
ATOM     31  C   UNL     1       7.965   5.693  19.068  0.00  0.00    +0.000 A 
ATOM     32  C   UNL     1       8.039   7.017  18.640  0.00  0.00    +0.000 A 
ATOM     33  C   UNL     1       7.497   7.379  17.408  0.00  0.00    +0.000 A 
ATOM     34  C   UNL     1       6.868   6.420  16.609  0.00  0.00    +0.000 A 
ENDBRANCH  28  29
ENDBRANCH  27  28
ENDBRANCH  26  27
ENDBRANCH  25  26
ENDBRANCH  22  25
ENDBRANCH  18  19
ENDBRANCH   1  18
TORSDOF 10
ENDMDL
MODEL 2
REMARK VINA RESULT:      -6.8      2.249      3.429
REMARK  Name = 
REMARK  12 active torsions:
REMARK  status: ('A' for Active; 'I' for Inactive)
REMARK    1  A    between atoms: C_1  and  N_2
REMARK    2  A    between atoms: N_9  and  C_10
REMARK    3  A    between atoms: C_10  and  C_11
REMARK    4  A    between atoms: C_11  and  O_12
REMARK    5  A    between atoms: C_11  and  C_13
REMARK    6  A    between atoms: C_13  and  N_14
REMARK    7  A    between atoms: N_17  and  C_18
REMARK    8  A    between atoms: C_18  and  C_19
REMARK    9  A    between atoms: C_19  and  C_20
REMARK   10  A    between atoms: C_20  and  O_21
REMARK   11  A    between atoms: O_21  and  C_22
REMARK   12  A    between atoms: N_32  and  C_33
REMARK                            x       y       z     vdW  Elec       q    Type
REMARK                         _______ _______ _______ _____ _____    ______ ____
ROOT
ATOM      1  C   UNL     1       1.736   8.373  20.594  0.00  0.00    +0.000 C 
ENDROOT
BRANCH   1   2
ATOM      2  O   UNL     1       1.763   8.571  22.014  0.00  0.00    +0.000 OA
ATOM      3  H   UNL     1       1.703   7.701  22.444  0.00  0.00    +0.000 HD
ENDBRANCH   1   2
BRANCH   1   4
ATOM      4  C   UNL     1       0.570   9.162  19.953  0.00  0.00    +0.000 C 
BRANCH   4  13
ATOM      5  C   UNL     1      -0.923  13.557  23.040  0.00  0.00    +0.000 C 
ATOM      6  N   UNL     1       0.033  13.665  21.967  0.00  0.00    +0.000 N 
ATOM      7  C   UNL     1       0.659  14.815  21.551  0.00  0.00    +0.000 A 
ATOM      8  N   UNL     1       1.442  14.592  20.514  0.00  0.00    +0.000 NA
ATOM      9  C   UNL     1       1.300  13.261  20.262  0.00  0.00    +0.000 A 
ATOM     10  C   UNL     1       0.463  12.661  21.152  0.00  0.00    +0.000 A 
ATOM     11  C   UNL     1       0.172  11.272  21.135  0.00  0.00    +0.000 A 
ATOM     12  O   UNL     1      -0.538  10.729  21.977  0.00  0.00    +0.000 OA
ATOM     13  N   UNL     1       0.769  10.608  20.060  0.00  0.00    +0.000 N 
ATOM     14  C   UNL     1       1.529  11.226  19.045  0.00  0.00    +0.000 A 
ATOM     15  O   UNL     1       1.872  10.609  18.033  0.00  0.00    +0.000 OA
ATOM     16  N   UNL     1       1.882  12.560  19.237  0.00  0.00    +0.000 N 
ATOM     17  C   UNL     1       2.808  13.211  18.331  0.00  0.00    +0.000 C 
ENDBRANCH   4  13
ENDBRANCH   1   4
BRANCH   1  18
ATOM     18  C   UNL     1       1.648   6.856  20.278  0.00  0.00    +0.000 C 
BRANCH  18  19
ATOM     19  N   UNL     1       2.824   6.312  19.582  0.00  0.00    +0.000 NA
ATOM     20  C   UNL     1       3.364   5.107  20.251  0.00  0.00    +0.000 C 
ATOM     21  C   UNL     1       2.488   3.857  20.051  0.00  0.00    +0.000 C 
ATOM     22  N   UNL     1       2.384   3.474  18.627  0.00  0.00    +0.000 NA
ATOM     23  C   UNL     1       1.829   4.633  17.891  0.00  0.00    +0.000 C 
ATOM     24  C   UNL     1       2.537   5.990  18.162  0.00  0.00    +0.000 C 
BRANCH  22  25
ATOM     25  C   UNL     1       3.682   3.048  18.065  0.00  0.00    +0.000 C 
BRANCH  25  26
ATOM     26  C   UNL     1       3.878   3.452  16.599  0.00  0.00    +0.000 C 
BRANCH  26  27
ATOM     27  C   UNL     1       5.198   4.187  16.413  0.00  0.00    +0.000 C 
BRANCH  27  28
ATOM     28  O   UNL     1       5.880   4.237  17.667  0.00  0.00    +0.000 OA
BRANCH  28  29
ATOM     29  C   UNL     1       6.608   5.381  17.861  0.00  0.00    +0.000 A 
ATOM     30  C   UNL     1       6.346   6.414  16.961  0.00  0.00    +0.000 A 
ATOM     31  C   UNL     1       7.044   7.619  17.051  0.00  0.00    +0.000 A 
ATOM     32  C   UNL     1       7.995   7.802  18.051  0.00  0.00    +0.000 A 
ATOM     33  C   UNL     1       8.242   6.783  18.970  0.00  0.00    +0.000 A 
ATOM     34  C   UNL     1       7.546   5.574  18.879  0.00  0.00    +0.000 A 
ENDBRANCH  28  29
ENDBRANCH  27  28
ENDBRANCH  26  27
ENDBRANCH  25  26
ENDBRANCH  22  25
ENDBRANCH  18  19
ENDBRANCH   1  18
TORSDOF 10
ENDMDL
MODEL 3
REMARK VINA RESULT:      -6.6      2.302      9.647
REMARK  Name = 
REMARK  12 active torsions:
REMARK  status: ('A' for Active; 'I' for Inactive)
REMARK    1  A    between atoms: C_1  and  N_2
REMARK    2  A    between atoms: N_9  and  C_10
REMARK    3  A    between atoms: C_10  and  C_11
REMARK    4  A    between atoms: C_11  and  O_12
REMARK    5  A    between atoms: C_11  and  C_13
REMARK    6  A    between atoms: C_13  and  N_14
REMARK    7  A    between atoms: N_17  and  C_18
REMARK    8  A    between atoms: C_18  and  C_19
REMARK    9  A    between atoms: C_19  and  C_20
REMARK   10  A    between atoms: C_20  and  O_21
REMARK   11  A    between atoms: O_21  and  C_22
REMARK   12  A    between atoms: N_32  and  C_33
REMARK                            x       y       z     vdW  Elec       q    Type
REMARK                         _______ _______ _______ _____ _____    ______ ____
ROOT
ATOM      1  C   UNL     1       2.183   8.354  18.815  0.00  0.00    +0.000 C 
ENDROOT
BRANCH   1   2
ATOM      2  O   UNL     1       1.696   9.441  18.016  0.00  0.00    +0.000 OA
ATOM      3  H   UNL     1       1.083   9.966  18.557  0.00  0.00    +0.000 HD
ENDBRANCH   1   2
BRANCH   1   4
ATOM      4  C   UNL     1       1.748   6.996  18.215  0.00  0.00    +0.000 C 
BRANCH   4  13
ATOM      5  C   UNL     1       2.108   2.651  21.687  0.00  0.00    +0.000 C 
ATOM      6  N   UNL     1       3.130   2.938  20.713  0.00  0.00    +0.000 N 
ATOM      7  C   UNL     1       4.296   2.236  20.529  0.00  0.00    +0.000 A 
ATOM      8  N   UNL     1       5.046   2.778  19.590  0.00  0.00    +0.000 NA
ATOM      9  C   UNL     1       4.334   3.861  19.172  0.00  0.00    +0.000 A 
ATOM     10  C   UNL     1       3.144   3.971  19.824  0.00  0.00    +0.000 A 
ATOM     11  C   UNL     1       2.195   4.991  19.550  0.00  0.00    +0.000 A 
ATOM     12  O   UNL     1       1.100   5.048  20.102  0.00  0.00    +0.000 OA
ATOM     13  N   UNL     1       2.652   5.913  18.606  0.00  0.00    +0.000 N 
ATOM     14  C   UNL     1       3.933   5.904  18.015  0.00  0.00    +0.000 A 
ATOM     15  O   UNL     1       4.331   6.850  17.329  0.00  0.00    +0.000 OA
ATOM     16  N   UNL     1       4.727   4.780  18.233  0.00  0.00    +0.000 N 
ATOM     17  C   UNL     1       5.977   4.617  17.518  0.00  0.00    +0.000 C 
ENDBRANCH   4  13
ENDBRANCH   1   4
BRANCH   1  18
ATOM     18  C   UNL     1       1.694   8.520  20.279  0.00  0.00    +0.000 C 
BRANCH  18  19
ATOM     19  N   UNL     1       0.318   9.026  20.405  0.00  0.00    +0.000 NA
ATOM     20  C   UNL     1      -0.315   8.616  21.679  0.00  0.00    +0.000 C 
ATOM     21  C   UNL     1       0.231   9.377  22.901  0.00  0.00    +0.000 C 
ATOM     22  N   UNL     1      -0.025  10.830  22.810  0.00  0.00    +0.000 NA
ATOM     23  C   UNL     1       0.600  11.318  21.560  0.00  0.00    +0.000 C 
ATOM     24  C   UNL     1       0.252  10.503  20.283  0.00  0.00    +0.000 C 
BRANCH  22  25
ATOM     25  C   UNL     1      -1.467  11.149  22.854  0.00  0.00    +0.000 C 
BRANCH  25  26
ATOM     26  C   UNL     1      -1.769  12.645  22.704  0.00  0.00    +0.000 C 
BRANCH  26  27
ATOM     27  C   UNL     1      -2.903  12.870  21.715  0.00  0.00    +0.000 C 
BRANCH  27  28
ATOM     28  O   UNL     1      -2.376  12.827  20.388  0.00  0.00    +0.000 OA
BRANCH  28  29
ATOM     29  C   UNL     1      -3.220  12.262  19.470  0.00  0.00    +0.000 A 
ATOM     30  C   UNL     1      -4.581  12.451  19.716  0.00  0.00    +0.000 A 
ATOM     31  C   UNL     1      -5.533  11.903  18.857  0.00  0.00    +0.000 A 
ATOM     32  C   UNL     1      -5.130  11.177  17.738  0.00  0.00    +0.000 A 
ATOM     33  C   UNL     1      -3.772  11.008  17.473  0.00  0.00    +0.000 A 
ATOM     34  C   UNL     1      -2.816  11.555  18.334  0.00  0.00    +0.000 A 
ENDBRANCH  28  29
ENDBRANCH  27  28
ENDBRANCH  26  27
ENDBRANCH  25  26
ENDBRANCH  22  25
ENDBRANCH  18  19
ENDBRANCH   1  18
TORSDOF 10
ENDMDL
MODEL 4
REMARK VINA RESULT:      -6.6      2.355      4.108
REMARK  Name = 
REMARK  12 active torsions:
REMARK  status: ('A' for Active; 'I' for Inactive)
REMARK    1  A    between atoms: C_1  and  N_2
REMARK    2  A    between atoms: N_9  and  C_10
REMARK    3  A    between atoms: C_10  and  C_11
REMARK    4  A    between atoms: C_11  and  O_12
REMARK    5  A    between atoms: C_11  and  C_13
REMARK    6  A    between atoms: C_13  and  N_14
REMARK    7  A    between atoms: N_17  and  C_18
REMARK    8  A    between atoms: C_18  and  C_19
REMARK    9  A    between atoms: C_19  and  C_20
REMARK   10  A    between atoms: C_20  and  O_21
REMARK   11  A    between atoms: O_21  and  C_22
REMARK   12  A    between atoms: N_32  and  C_33
REMARK                            x       y       z     vdW  Elec       q    Type
REMARK                         _______ _______ _______ _____ _____    ______ ____
ROOT
ATOM      1  C   UNL     1       2.122   7.311  19.784  0.00  0.00    +0.000 C 
ENDROOT
BRANCH   1   2
ATOM      2  O   UNL     1       1.971   7.484  21.200  0.00  0.00    +0.000 OA
ATOM      3  H   UNL     1       1.341   8.209  21.353  0.00  0.00    +0.000 HD
ENDBRANCH   1   2
BRANCH   1   4
ATOM      4  C   UNL     1       1.012   8.069  19.019  0.00  0.00    +0.000 C 
BRANCH   4  13
ATOM      5  C   UNL     1      -1.163  11.510  22.827  0.00  0.00    +0.000 C 
ATOM      6  N   UNL     1      -0.254  11.972  21.809  0.00  0.00    +0.000 N 
ATOM      7  C   UNL     1       0.163  13.268  21.621  0.00  0.00    +0.000 A 
ATOM      8  N   UNL     1       0.958  13.374  20.574  0.00  0.00    +0.000 NA
ATOM      9  C   UNL     1       1.040  12.107  20.082  0.00  0.00    +0.000 A 
ATOM     10  C   UNL     1       0.329  11.221  20.832  0.00  0.00    +0.000 A 
ATOM     11  C   UNL     1       0.278   9.829  20.558  0.00  0.00    +0.000 A 
ATOM     12  O   UNL     1      -0.318   9.030  21.274  0.00  0.00    +0.000 OA
ATOM     13  N   UNL     1       0.963   9.484  19.391  0.00  0.00    +0.000 N 
ATOM     14  C   UNL     1       1.593  10.397  18.518  0.00  0.00    +0.000 A 
ATOM     15  O   UNL     1       2.022  10.042  17.417  0.00  0.00    +0.000 OA
ATOM     16  N   UNL     1       1.718  11.713  18.957  0.00  0.00    +0.000 N 
ATOM     17  C   UNL     1       2.507  12.666  18.200  0.00  0.00    +0.000 C 
ENDBRANCH   4  13
ENDBRANCH   1   4
BRANCH   1  18
ATOM     18  C   UNL     1       2.129   5.798  19.439  0.00  0.00    +0.000 C 
BRANCH  18  19
ATOM     19  N   UNL     1       2.956   5.446  18.274  0.00  0.00    +0.000 NA
ATOM     20  C   UNL     1       4.266   6.136  18.289  0.00  0.00    +0.000 C 
ATOM     21  C   UNL     1       5.242   5.565  19.335  0.00  0.00    +0.000 C 
ATOM     22  N   UNL     1       5.571   4.149  19.073  0.00  0.00    +0.000 NA
ATOM     23  C   UNL     1       4.301   3.387  19.063  0.00  0.00    +0.000 C 
ATOM     24  C   UNL     1       3.179   3.983  18.167  0.00  0.00    +0.000 C 
BRANCH  22  25
ATOM     25  C   UNL     1       6.319   3.971  17.811  0.00  0.00    +0.000 C 
BRANCH  25  26
ATOM     26  C   UNL     1       7.485   4.954  17.646  0.00  0.00    +0.000 C 
BRANCH  26  27
ATOM     27  C   UNL     1       7.468   5.583  16.260  0.00  0.00    +0.000 C 
BRANCH  27  28
ATOM     28  O   UNL     1       6.248   5.233  15.607  0.00  0.00    +0.000 OA
BRANCH  28  29
ATOM     29  C   UNL     1       6.413   4.738  14.341  0.00  0.00    +0.000 A 
ATOM     30  C   UNL     1       7.496   5.261  13.633  0.00  0.00    +0.000 A 
ATOM     31  C   UNL     1       7.749   4.845  12.326  0.00  0.00    +0.000 A 
ATOM     32  C   UNL     1       6.930   3.891  11.726  0.00  0.00    +0.000 A 
ATOM     33  C   UNL     1       5.863   3.346  12.437  0.00  0.00    +0.000 A 
ATOM     34  C   UNL     1       5.606   3.764  13.746  0.00  0.00    +0.000 A 
ENDBRANCH  28  29
ENDBRANCH  27  28
ENDBRANCH  26  27
ENDBRANCH  25  26
ENDBRANCH  22  25
ENDBRANCH  18  19
ENDBRANCH   1  18
TORSDOF 10
ENDMDL
MODEL 5
REMARK VINA RESULT:      -6.6      1.622      2.999
REMARK  Name = 
REMARK  12 active torsions:
REMARK  status: ('A' for Active; 'I' for Inactive)
REMARK    1  A    between atoms: C_1  and  N_2
REMARK    2  A    between atoms: N_9  and  C_10
REMARK    3  A    between atoms: C_10  and  C_11
REMARK    4  A    between atoms: C_11  and  O_12
REMARK    5  A    between atoms: C_11  and  C_13
REMARK    6  A    between atoms: C_13  and  N_14
REMARK    7  A    between atoms: N_17  and  C_18
REMARK    8  A    between atoms: C_18  and  C_19
REMARK    9  A    between atoms: C_19  and  C_20
REMARK   10  A    between atoms: C_20  and  O_21
REMARK   11  A    between atoms: O_21  and  C_22
REMARK   12  A    between atoms: N_32  and  C_33
REMARK                            x       y       z     vdW  Elec       q    Type
REMARK                         _______ _______ _______ _____ _____    ______ ____
ROOT
ATOM      1  C   UNL     1       1.285   9.289  21.958  0.00  0.00    +0.000 C 
ENDROOT
BRANCH   1   2
ATOM      2  O   UNL     1       1.461   9.551  23.357  0.00  0.00    +0.000 OA
ATOM      3  H   UNL     1       0.585   9.696  23.753  0.00  0.00    +0.000 HD
ENDBRANCH   1   2
BRANCH   1   4
ATOM      4  C   UNL     1      -0.209   9.386  21.568  0.00  0.00    +0.000 C 
BRANCH   4  13
ATOM      5  C   UNL     1      -2.088  14.083  23.907  0.00  0.00    +0.000 C 
ATOM      6  N   UNL     1      -1.743  14.009  22.510  0.00  0.00    +0.000 N 
ATOM      7  C   UNL     1      -1.851  15.026  21.593  0.00  0.00    +0.000 A 
ATOM      8  N   UNL     1      -1.501  14.629  20.385  0.00  0.00    +0.000 NA
ATOM      9  C   UNL     1      -1.168  13.318  20.544  0.00  0.00    +0.000 A 
ATOM     10  C   UNL     1      -1.281  12.916  21.839  0.00  0.00    +0.000 A 
ATOM     11  C   UNL     1      -0.959  11.606  22.281  0.00  0.00    +0.000 A 
ATOM     12  O   UNL     1      -1.009  11.270  23.461  0.00  0.00    +0.000 OA
ATOM     13  N   UNL     1      -0.597  10.757  21.234  0.00  0.00    +0.000 N 
ATOM     14  C   UNL     1      -0.602  11.105  19.866  0.00  0.00    +0.000 A 
ATOM     15  O   UNL     1      -0.446  10.254  18.986  0.00  0.00    +0.000 OA
ATOM     16  N   UNL     1      -0.783  12.450  19.553  0.00  0.00    +0.000 N 
ATOM     17  C   UNL     1      -0.624  12.913  18.189  0.00  0.00    +0.000 C 
ENDBRANCH   4  13
ENDBRANCH   1   4
BRANCH   1  18
ATOM     18  C   UNL     1       1.885   7.902  21.605  0.00  0.00    +0.000 C 
BRANCH  18  19
ATOM     19  N   UNL     1       1.287   7.267  20.420  0.00  0.00    +0.000 NA
ATOM     20  C   UNL     1       2.077   7.514  19.193  0.00  0.00    +0.000 C 
ATOM     21  C   UNL     1       3.388   6.708  19.142  0.00  0.00    +0.000 C 
ATOM     22  N   UNL     1       3.144   5.250  19.138  0.00  0.00    +0.000 NA
ATOM     23  C   UNL     1       2.367   4.923  20.356  0.00  0.00    +0.000 C 
ATOM     24  C   UNL     1       1.111   5.805  20.597  0.00  0.00    +0.000 C 
BRANCH  22  25
ATOM     25  C   UNL     1       2.446   4.803  17.915  0.00  0.00    +0.000 C 
BRANCH  25  26
ATOM     26  C   UNL     1       3.052   3.539  17.292  0.00  0.00    +0.000 C 
BRANCH  26  27
ATOM     27  C   UNL     1       4.542   3.451  17.590  0.00  0.00    +0.000 C 
BRANCH  27  28
ATOM     28  O   UNL     1       5.248   4.291  16.676  0.00  0.00    +0.000 OA
BRANCH  28  29
ATOM     29  C   UNL     1       6.135   5.145  17.274  0.00  0.00    +0.000 A 
ATOM     30  C   UNL     1       6.179   6.431  16.735  0.00  0.00    +0.000 A 
ATOM     31  C   UNL     1       7.061   7.381  17.252  0.00  0.00    +0.000 A 
ATOM     32  C   UNL     1       7.892   7.054  18.321  0.00  0.00    +0.000 A 
ATOM     33  C   UNL     1       7.833   5.778  18.881  0.00  0.00    +0.000 A 
ATOM     34  C   UNL     1       6.952   4.825  18.362  0.00  0.00    +0.000 A 
ENDBRANCH  28  29
ENDBRANCH  27  28
ENDBRANCH  26  27
ENDBRANCH  25  26
ENDBRANCH  22  25
ENDBRANCH  18  19
ENDBRANCH   1  18
TORSDOF 10
ENDMDL
MODEL 6
REMARK VINA RESULT:      -6.6      2.126      3.043
REMARK  Name = 
REMARK  12 active torsions:
REMARK  status: ('A' for Active; 'I' for Inactive)
REMARK    1  A    between atoms: C_1  and  N_2
REMARK    2  A    between atoms: N_9  and  C_10
REMARK    3  A    between atoms: C_10  and  C_11
REMARK    4  A    between atoms: C_11  and  O_12
REMARK    5  A    between atoms: C_11  and  C_13
REMARK    6  A    between atoms: C_13  and  N_14
REMARK    7  A    between atoms: N_17  and  C_18
REMARK    8  A    between atoms: C_18  and  C_19
REMARK    9  A    between atoms: C_19  and  C_20
REMARK   10  A    between atoms: C_20  and  O_21
REMARK   11  A    between atoms: O_21  and  C_22
REMARK   12  A    between atoms: N_32  and  C_33
REMARK                            x       y       z     vdW  Elec       q    Type
REMARK                         _______ _______ _______ _____ _____    ______ ____
ROOT
ATOM      1  C   UNL     1       1.748   8.151  20.948  0.00  0.00    +0.000 C 
ENDROOT
BRANCH   1   2
ATOM      2  O   UNL     1       2.062   8.710  22.231  0.00  0.00    +0.000 OA
ATOM      3  H   UNL     1       2.183   7.979  22.860  0.00  0.00    +0.000 HD
ENDBRANCH   1   2
BRANCH   1   4
ATOM      4  C   UNL     1       0.477   8.809  20.361  0.00  0.00    +0.000 C 
BRANCH   4  13
ATOM      5  C   UNL     1      -1.199  13.315  23.181  0.00  0.00    +0.000 C 
ATOM      6  N   UNL     1      -0.299  13.405  22.060  0.00  0.00    +0.000 N 
ATOM      7  C   UNL     1       0.224  14.560  21.531  0.00  0.00    +0.000 A 
ATOM      8  N   UNL     1       0.977  14.313  20.477  0.00  0.00    +0.000 NA
ATOM      9  C   UNL     1       0.921  12.960  20.331  0.00  0.00    +0.000 A 
ATOM     10  C   UNL     1       0.168  12.374  21.301  0.00  0.00    +0.000 A 
ATOM     11  C   UNL     1      -0.022  10.970  21.401  0.00  0.00    +0.000 A 
ATOM     12  O   UNL     1      -0.656  10.446  22.313  0.00  0.00    +0.000 OA
ATOM     13  N   UNL     1       0.575  10.269  20.351  0.00  0.00    +0.000 N 
ATOM     14  C   UNL     1       1.245  10.858  19.258  0.00  0.00    +0.000 A 
ATOM     15  O   UNL     1       1.588  10.190  18.279  0.00  0.00    +0.000 OA
ATOM     16  N   UNL     1       1.509  12.224  19.334  0.00  0.00    +0.000 N 
ATOM     17  C   UNL     1       2.346  12.865  18.339  0.00  0.00    +0.000 C 
ENDBRANCH   4  13
ENDBRANCH   1   4
BRANCH   1  18
ATOM     18  C   UNL     1       1.597   6.611  21.070  0.00  0.00    +0.000 C 
BRANCH  18  19
ATOM     19  N   UNL     1       1.438   5.914  19.784  0.00  0.00    +0.000 NA
ATOM     20  C   UNL     1       2.558   6.190  18.856  0.00  0.00    +0.000 C 
ATOM     21  C   UNL     1       3.863   5.473  19.248  0.00  0.00    +0.000 C 
ATOM     22  N   UNL     1       3.717   4.002  19.227  0.00  0.00    +0.000 NA
ATOM     23  C   UNL     1       2.618   3.647  20.154  0.00  0.00    +0.000 C 
ATOM     24  C   UNL     1       1.300   4.447  19.956  0.00  0.00    +0.000 C 
BRANCH  22  25
ATOM     25  C   UNL     1       3.466   3.484  17.866  0.00  0.00    +0.000 C 
BRANCH  25  26
ATOM     26  C   UNL     1       4.741   3.063  17.125  0.00  0.00    +0.000 C 
BRANCH  26  27
ATOM     27  C   UNL     1       5.130   4.104  16.085  0.00  0.00    +0.000 C 
BRANCH  27  28
ATOM     28  O   UNL     1       6.552   4.230  16.065  0.00  0.00    +0.000 OA
BRANCH  28  29
ATOM     29  C   UNL     1       7.037   5.218  16.878  0.00  0.00    +0.000 A 
ATOM     30  C   UNL     1       7.544   4.786  18.104  0.00  0.00    +0.000 A 
ATOM     31  C   UNL     1       8.046   5.708  19.022  0.00  0.00    +0.000 A 
ATOM     32  C   UNL     1       8.061   7.066  18.712  0.00  0.00    +0.000 A 
ATOM     33  C   UNL     1       7.580   7.501  17.478  0.00  0.00    +0.000 A 
ATOM     34  C   UNL     1       7.074   6.579  16.558  0.00  0.00    +0.000 A 
ENDBRANCH  28  29
ENDBRANCH  27  28
ENDBRANCH  26  27
ENDBRANCH  25  26
ENDBRANCH  22  25
ENDBRANCH  18  19
ENDBRANCH   1  18
TORSDOF 10
ENDMDL
MODEL 7
REMARK VINA RESULT:      -6.6      3.446      6.453
REMARK  Name = 
REMARK  12 active torsions:
REMARK  status: ('A' for Active; 'I' for Inactive)
REMARK    1  A    between atoms: C_1  and  N_2
REMARK    2  A    between atoms: N_9  and  C_10
REMARK    3  A    between atoms: C_10  and  C_11
REMARK    4  A    between atoms: C_11  and  O_12
REMARK    5  A    between atoms: C_11  and  C_13
REMARK    6  A    between atoms: C_13  and  N_14
REMARK    7  A    between atoms: N_17  and  C_18
REMARK    8  A    between atoms: C_18  and  C_19
REMARK    9  A    between atoms: C_19  and  C_20
REMARK   10  A    between atoms: C_20  and  O_21
REMARK   11  A    between atoms: O_21  and  C_22
REMARK   12  A    between atoms: N_32  and  C_33
REMARK                            x       y       z     vdW  Elec       q    Type
REMARK                         _______ _______ _______ _____ _____    ______ ____
ROOT
ATOM      1  C   UNL     1      -1.363  13.271  22.302  0.00  0.00    +0.000 C 
ENDROOT
BRANCH   1   2
ATOM      2  O   UNL     1      -0.239  14.157  22.210  0.00  0.00    +0.000 OA
ATOM      3  H   UNL     1       0.301  13.886  21.449  0.00  0.00    +0.000 HD
ENDBRANCH   1   2
BRANCH   1   4
ATOM      4  C   UNL     1      -1.950  13.279  23.734  0.00  0.00    +0.000 C 
BRANCH   4  13
ATOM      5  C   UNL     1      -4.444  18.262  23.614  0.00  0.00    +0.000 C 
ATOM      6  N   UNL     1      -5.193  17.032  23.624  0.00  0.00    +0.000 N 
ATOM      7  C   UNL     1      -6.562  16.916  23.637  0.00  0.00    +0.000 A 
ATOM      8  N   UNL     1      -6.941  15.654  23.693  0.00  0.00    +0.000 NA
ATOM      9  C   UNL     1      -5.775  14.952  23.724  0.00  0.00    +0.000 A 
ATOM     10  C   UNL     1      -4.687  15.767  23.657  0.00  0.00    +0.000 A 
ATOM     11  C   UNL     1      -3.351  15.286  23.636  0.00  0.00    +0.000 A 
ATOM     12  O   UNL     1      -2.378  16.026  23.517  0.00  0.00    +0.000 OA
ATOM     13  N   UNL     1      -3.275  13.899  23.775  0.00  0.00    +0.000 N 
ATOM     14  C   UNL     1      -4.376  13.041  23.984  0.00  0.00    +0.000 A 
ATOM     15  O   UNL     1      -4.218  11.853  24.279  0.00  0.00    +0.000 OA
ATOM     16  N   UNL     1      -5.647  13.591  23.835  0.00  0.00    +0.000 N 
ATOM     17  C   UNL     1      -6.820  12.739  23.857  0.00  0.00    +0.000 C 
ENDBRANCH   4  13
ENDBRANCH   1   4
BRANCH   1  18
ATOM     18  C   UNL     1      -0.943  11.844  21.859  0.00  0.00    +0.000 C 
BRANCH  18  19
ATOM     19  N   UNL     1       0.323  11.790  21.112  0.00  0.00    +0.000 NA
ATOM     20  C   UNL     1       1.008  10.486  21.266  0.00  0.00    +0.000 C 
ATOM     21  C   UNL     1       0.330   9.347  20.483  0.00  0.00    +0.000 C 
ATOM     22  N   UNL     1       0.331   9.597  19.026  0.00  0.00    +0.000 NA
ATOM     23  C   UNL     1      -0.361  10.885  18.791  0.00  0.00    +0.000 C 
ATOM     24  C   UNL     1       0.133  12.070  19.667  0.00  0.00    +0.000 C 
BRANCH  22  25
ATOM     25  C   UNL     1       1.695   9.604  18.460  0.00  0.00    +0.000 C 
BRANCH  25  26
ATOM     26  C   UNL     1       2.037   8.336  17.666  0.00  0.00    +0.000 C 
BRANCH  26  27
ATOM     27  C   UNL     1       2.774   7.334  18.542  0.00  0.00    +0.000 C 
BRANCH  27  28
ATOM     28  O   UNL     1       2.748   6.055  17.907  0.00  0.00    +0.000 OA
BRANCH  28  29
ATOM     29  C   UNL     1       2.154   5.072  18.652  0.00  0.00    +0.000 A 
ATOM     30  C   UNL     1       1.786   3.928  17.944  0.00  0.00    +0.000 A 
ATOM     31  C   UNL     1       1.155   2.869  18.597  0.00  0.00    +0.000 A 
ATOM     32  C   UNL     1       0.902   2.943  19.965  0.00  0.00    +0.000 A 
ATOM     33  C   UNL     1       1.291   4.074  20.683  0.00  0.00    +0.000 A 
ATOM     34  C   UNL     1       1.921   5.136  20.029  0.00  0.00    +0.000 A 
ENDBRANCH  28  29
ENDBRANCH  27  28
ENDBRANCH  26  27
ENDBRANCH  25  26
ENDBRANCH  22  25
ENDBRANCH  18  19
ENDBRANCH   1  18
TORSDOF 10
ENDMDL
MODEL 8
REMARK VINA RESULT:      -6.5      0.844      1.213
REMARK  Name = 
REMARK  12 active torsions:
REMARK  status: ('A' for Active; 'I' for Inactive)
REMARK    1  A    between atoms: C_1  and  N_2
REMARK    2  A    between atoms: N_9  and  C_10
REMARK    3  A    between atoms: C_10  and  C_11
REMARK    4  A    between atoms: C_11  and  O_12
REMARK    5  A    between atoms: C_11  and  C_13
REMARK    6  A    between atoms: C_13  and  N_14
REMARK    7  A    between atoms: N_17  and  C_18
REMARK    8  A    between atoms: C_18  and  C_19
REMARK    9  A    between atoms: C_19  and  C_20
REMARK   10  A    between atoms: C_20  and  O_21
REMARK   11  A    between atoms: O_21  and  C_22
REMARK   12  A    between atoms: N_32  and  C_33
REMARK                            x       y       z     vdW  Elec       q    Type
REMARK                         _______ _______ _______ _____ _____    ______ ____
ROOT
ATOM      1  C   UNL     1       0.974   9.310  21.143  0.00  0.00    +0.000 C 
ENDROOT
BRANCH   1   2
ATOM      2  O   UNL     1      -0.124   9.484  22.048  0.00  0.00    +0.000 OA
ATOM      3  H   UNL     1      -0.545   8.619  22.188  0.00  0.00    +0.000 HD
ENDBRANCH   1   2
BRANCH   1   4
ATOM      4  C   UNL     1       1.050  10.487  20.141  0.00  0.00    +0.000 C 
BRANCH   4  13
ATOM      5  C   UNL     1      -2.617  10.087  15.962  0.00  0.00    +0.000 C 
ATOM      6  N   UNL     1      -2.923  10.785  17.185  0.00  0.00    +0.000 N 
ATOM      7  C   UNL     1      -4.093  11.447  17.470  0.00  0.00    +0.000 A 
ATOM      8  N   UNL     1      -4.047  12.026  18.654  0.00  0.00    +0.000 NA
ATOM      9  C   UNL     1      -2.805  11.727  19.127  0.00  0.00    +0.000 A 
ATOM     10  C   UNL     1      -2.103  10.947  18.261  0.00  0.00    +0.000 A 
ATOM     11  C   UNL     1      -0.796  10.462  18.530  0.00  0.00    +0.000 A 
ATOM     12  O   UNL     1      -0.193   9.711  17.769  0.00  0.00    +0.000 OA
ATOM     13  N   UNL     1      -0.280  10.943  19.736  0.00  0.00    +0.000 N 
ATOM     14  C   UNL     1      -0.929  11.861  20.589  0.00  0.00    +0.000 A 
ATOM     15  O   UNL     1      -0.341  12.379  21.542  0.00  0.00    +0.000 OA
ATOM     16  N   UNL     1      -2.263  12.153  20.313  0.00  0.00    +0.000 N 
ATOM     17  C   UNL     1      -3.047  12.944  21.241  0.00  0.00    +0.000 C 
ENDBRANCH   4  13
ENDBRANCH   1   4
BRANCH   1  18
ATOM     18  C   UNL     1       0.844   7.944  20.418  0.00  0.00    +0.000 C 
BRANCH  18  19
ATOM     19  N   UNL     1       2.091   7.166  20.361  0.00  0.00    +0.000 NA
ATOM     20  C   UNL     1       1.920   5.794  20.889  0.00  0.00    +0.000 C 
ATOM     21  C   UNL     1       1.133   4.871  19.940  0.00  0.00    +0.000 C 
ATOM     22  N   UNL     1       1.822   4.687  18.645  0.00  0.00    +0.000 NA
ATOM     23  C   UNL     1       2.012   6.027  18.044  0.00  0.00    +0.000 C 
ATOM     24  C   UNL     1       2.643   7.092  18.985  0.00  0.00    +0.000 C 
BRANCH  22  25
ATOM     25  C   UNL     1       3.107   3.973  18.791  0.00  0.00    +0.000 C 
BRANCH  25  26
ATOM     26  C   UNL     1       3.546   3.236  17.519  0.00  0.00    +0.000 C 
BRANCH  26  27
ATOM     27  C   UNL     1       4.978   3.600  17.153  0.00  0.00    +0.000 C 
BRANCH  27  28
ATOM     28  O   UNL     1       5.017   4.965  16.735  0.00  0.00    +0.000 OA
BRANCH  28  29
ATOM     29  C   UNL     1       6.030   5.693  17.300  0.00  0.00    +0.000 A 
ATOM     30  C   UNL     1       6.716   5.056  18.335  0.00  0.00    +0.000 A 
ATOM     31  C   UNL     1       7.755   5.711  18.997  0.00  0.00    +0.000 A 
ATOM     32  C   UNL     1       8.124   7.000  18.618  0.00  0.00    +0.000 A 
ATOM     33  C   UNL     1       7.459   7.630  17.567  0.00  0.00    +0.000 A 
ATOM     34  C   UNL     1       6.416   6.976  16.904  0.00  0.00    +0.000 A 
ENDBRANCH  28  29
ENDBRANCH  27  28
ENDBRANCH  26  27
ENDBRANCH  25  26
ENDBRANCH  22  25
ENDBRANCH  18  19
ENDBRANCH   1  18
TORSDOF 10
ENDMDL
MODEL 9
REMARK VINA RESULT:      -6.5      2.079      3.465
REMARK  Name = 
REMARK  12 active torsions:
REMARK  status: ('A' for Active; 'I' for Inactive)
REMARK    1  A    between atoms: C_1  and  N_2
REMARK    2  A    between atoms: N_9  and  C_10
REMARK    3  A    between atoms: C_10  and  C_11
REMARK    4  A    between atoms: C_11  and  O_12
REMARK    5  A    between atoms: C_11  and  C_13
REMARK    6  A    between atoms: C_13  and  N_14
REMARK    7  A    between atoms: N_17  and  C_18
REMARK    8  A    between atoms: C_18  and  C_19
REMARK    9  A    between atoms: C_19  and  C_20
REMARK   10  A    between atoms: C_20  and  O_21
REMARK   11  A    between atoms: O_21  and  C_22
REMARK   12  A    between atoms: N_32  and  C_33
REMARK                            x       y       z     vdW  Elec       q    Type
REMARK                         _______ _______ _______ _____ _____    ______ ____
ROOT
ATOM      1  C   UNL     1       0.986   8.832  21.194  0.00  0.00    +0.000 C 
ENDROOT
BRANCH   1   2
ATOM      2  O   UNL     1       0.799   8.909  22.614  0.00  0.00    +0.000 OA
ATOM      3  H   UNL     1       1.372   8.245  23.033  0.00  0.00    +0.000 HD
ENDBRANCH   1   2
BRANCH   1   4
ATOM      4  C   UNL     1      -0.033   9.734  20.458  0.00  0.00    +0.000 C 
BRANCH   4  13
ATOM      5  C   UNL     1      -1.658  13.965  23.703  0.00  0.00    +0.000 C 
ATOM      6  N   UNL     1      -0.580  14.097  22.755  0.00  0.00    +0.000 N 
ATOM      7  C   UNL     1       0.145  15.237  22.506  0.00  0.00    +0.000 A 
ATOM      8  N   UNL     1       1.031  15.048  21.547  0.00  0.00    +0.000 NA
ATOM      9  C   UNL     1       0.854  13.750  21.175  0.00  0.00    +0.000 A 
ATOM     10  C   UNL     1      -0.108  13.134  21.915  0.00  0.00    +0.000 A 
ATOM     11  C   UNL     1      -0.462  11.768  21.754  0.00  0.00    +0.000 A 
ATOM     12  O   UNL     1      -1.290  11.206  22.465  0.00  0.00    +0.000 OA
ATOM     13  N   UNL     1       0.222  11.154  20.702  0.00  0.00    +0.000 N 
ATOM     14  C   UNL     1       1.123  11.802  19.831  0.00  0.00    +0.000 A 
ATOM     15  O   UNL     1       1.550  11.243  18.817  0.00  0.00    +0.000 OA
ATOM     16  N   UNL     1       1.516  13.095  20.168  0.00  0.00    +0.000 N 
ATOM     17  C   UNL     1       2.570  13.757  19.426  0.00  0.00    +0.000 C 
ENDBRANCH   4  13
ENDBRANCH   1   4
BRANCH   1  18
ATOM     18  C   UNL     1       0.886   7.354  20.732  0.00  0.00    +0.000 C 
BRANCH  18  19
ATOM     19  N   UNL     1       2.172   6.639  20.706  0.00  0.00    +0.000 NA
ATOM     20  C   UNL     1       2.009   5.185  20.931  0.00  0.00    +0.000 C 
ATOM     21  C   UNL     1       1.408   4.445  19.721  0.00  0.00    +0.000 C 
ATOM     22  N   UNL     1       2.274   4.541  18.527  0.00  0.00    +0.000 NA
ATOM     23  C   UNL     1       2.468   5.978  18.227  0.00  0.00    +0.000 C 
ATOM     24  C   UNL     1       2.906   6.853  19.434  0.00  0.00    +0.000 C 
BRANCH  22  25
ATOM     25  C   UNL     1       3.566   3.849  18.714  0.00  0.00    +0.000 C 
BRANCH  25  26
ATOM     26  C   UNL     1       4.052   3.108  17.462  0.00  0.00    +0.000 C 
BRANCH  26  27
ATOM     27  C   UNL     1       4.549   4.091  16.412  0.00  0.00    +0.000 C 
BRANCH  27  28
ATOM     28  O   UNL     1       5.972   4.007  16.335  0.00  0.00    +0.000 OA
BRANCH  28  29
ATOM     29  C   UNL     1       6.630   4.941  17.090  0.00  0.00    +0.000 A 
ATOM     30  C   UNL     1       6.554   6.251  16.616  0.00  0.00    +0.000 A 
ATOM     31  C   UNL     1       7.203   7.283  17.295  0.00  0.00    +0.000 A 
ATOM     32  C   UNL     1       7.917   7.012  18.459  0.00  0.00    +0.000 A 
ATOM     33  C   UNL     1       7.974   5.709  18.952  0.00  0.00    +0.000 A 
ATOM     34  C   UNL     1       7.327   4.674  18.272  0.00  0.00    +0.000 A 
ENDBRANCH  28  29
ENDBRANCH  27  28
ENDBRANCH  26  27
ENDBRANCH  25  26
ENDBRANCH  22  25
ENDBRANCH  18  19
ENDBRANCH   1  18
TORSDOF 10
ENDMDL
