MODEL 1
REMARK VINA RESULT:      -7.2      0.000      0.000
REMARK  Name = 
REMARK  4 active torsions:
REMARK  status: ('A' for Active; 'I' for Inactive)
REMARK    1  A    between atoms: C_1  and  C_2
REMARK    2  A    between atoms: C_2  and  C_3
REMARK    3  A    between atoms: C_2  and  C_4
REMARK    4  A    between atoms: C_4  and  C_5
REMARK                            x       y       z     vdW  Elec       q    Type
REMARK                         _______ _______ _______ _____ _____    ______ ____
ROOT
ATOM      1  C   UNL     1       3.951   3.387  19.039  0.00  0.00    +0.000 A 
ATOM      2  C   UNL     1       3.351   3.290  17.795  0.00  0.00    +0.000 A 
ATOM      3  N   UNL     1       3.925   3.694  16.637  0.00  0.00    +0.000 NA
ATOM      4  C   UNL     1       5.154   4.215  16.662  0.00  0.00    +0.000 A 
ATOM      5  N   UNL     1       5.708   4.538  15.500  0.00  0.00    +0.000 NA
ATOM      6  C   UNL     1       6.941   5.026  15.514  0.00  0.00    +0.000 A 
ATOM      7  N   UNL     1       7.524   5.321  14.296  0.00  0.00    +0.000 N 
ATOM      8  N   UNL     1       7.661   5.273  16.607  0.00  0.00    +0.000 NA
ATOM      9  C   UNL     1       7.101   4.944  17.772  0.00  0.00    +0.000 A 
ATOM     10  N   UNL     1       7.877   5.215  18.905  0.00  0.00    +0.000 N 
ATOM     11  C   UNL     1       5.826   4.392  17.868  0.00  0.00    +0.000 A 
ATOM     12  C   UNL     1       5.202   3.991  19.072  0.00  0.00    +0.000 A 
ATOM     13  H   UNL     1       6.808   5.485  13.602  0.00  0.00    +0.000 HD
ATOM     14  H   UNL     1       8.238   6.026  14.409  0.00  0.00    +0.000 HD
ATOM     15  H   UNL     1       8.778   5.557  18.576  0.00  0.00    +0.000 HD
ATOM     16  H   UNL     1       7.985   4.396  19.494  0.00  0.00    +0.000 HD
ENDROOT
BRANCH   1  17
ATOM     17  C   UNL     1       3.320   2.821  20.284  0.00  0.00    +0.000 C 
BRANCH  17  19
ATOM     18  C   UNL     1       1.235   2.699  21.754  0.00  0.00    +0.000 C 
ATOM     19  C   UNL     1       1.918   3.403  20.577  0.00  0.00    +0.000 C 
ATOM     20  C   UNL     1       2.015   4.903  20.865  0.00  0.00    +0.000 C 
ENDBRANCH  17  19
ENDBRANCH   1  17
TORSDOF 2
ENDMDL
MODEL 2
REMARK VINA RESULT:      -7.2      2.879      6.175
REMARK  Name = 
REMARK  4 active torsions:
REMARK  status: ('A' for Active; 'I' for Inactive)
REMARK    1  A    between atoms: C_1  and  C_2
REMARK    2  A    between atoms: C_2  and  C_3
REMARK    3  A    between atoms: C_2  and  C_4
REMARK    4  A    between atoms: C_4  and  C_5
REMARK                            x       y       z     vdW  Elec       q    Type
REMARK                         _______ _______ _______ _____ _____    ______ ____
ROOT
ATOM      1  C   UNL     1       6.512   4.259  13.438  0.00  0.00    +0.000 A 
ATOM      2  C   UNL     1       7.567   5.084  13.786  0.00  0.00    +0.000 A 
ATOM      3  N   UNL     1       7.825   5.503  15.047  0.00  0.00    +0.000 NA
ATOM      4  C   UNL     1       7.032   5.103  16.045  0.00  0.00    +0.000 A 
ATOM      5  N   UNL     1       7.356   5.481  17.275  0.00  0.00    +0.000 NA
ATOM      6  C   UNL     1       6.591   5.063  18.275  0.00  0.00    +0.000 A 
ATOM      7  N   UNL     1       6.960   5.428  19.555  0.00  0.00    +0.000 N 
ATOM      8  N   UNL     1       5.485   4.332  18.147  0.00  0.00    +0.000 NA
ATOM      9  C   UNL     1       5.166   3.952  16.908  0.00  0.00    +0.000 A 
ATOM     10  N   UNL     1       3.999   3.186  16.801  0.00  0.00    +0.000 N 
ATOM     11  C   UNL     1       5.920   4.306  15.792  0.00  0.00    +0.000 A 
ATOM     12  C   UNL     1       5.648   3.899  14.466  0.00  0.00    +0.000 A 
ATOM     13  H   UNL     1       7.525   6.265  19.526  0.00  0.00    +0.000 HD
ATOM     14  H   UNL     1       6.156   5.427  20.167  0.00  0.00    +0.000 HD
ATOM     15  H   UNL     1       3.665   3.014  17.748  0.00  0.00    +0.000 HD
ATOM     16  H   UNL     1       4.162   2.318  16.303  0.00  0.00    +0.000 HD
ENDROOT
BRANCH   1  17
ATOM     17  C   UNL     1       6.331   3.729  12.040  0.00  0.00    +0.000 C 
BRANCH  17  19
ATOM     18  C   UNL     1       4.017   3.119  11.148  0.00  0.00    +0.000 C 
ATOM     19  C   UNL     1       5.241   2.639  11.935  0.00  0.00    +0.000 C 
ATOM     20  C   UNL     1       5.810   1.379  11.278  0.00  0.00    +0.000 C 
ENDBRANCH  17  19
ENDBRANCH   1  17
TORSDOF 2
ENDMDL
MODEL 3
REMARK VINA RESULT:      -7.0      2.588      5.903
REMARK  Name = 
REMARK  4 active torsions:
REMARK  status: ('A' for Active; 'I' for Inactive)
REMARK    1  A    between atoms: C_1  and  C_2
REMARK    2  A    between atoms: C_2  and  C_3
REMARK    3  A    between atoms: C_2  and  C_4
REMARK    4  A    between atoms: C_4  and  C_5
REMARK                            x       y       z     vdW  Elec       q    Type
REMARK                         _______ _______ _______ _____ _____    ______ ____
ROOT
ATOM      1  C   UNL     1       5.792   4.369  14.444  0.00  0.00    +0.000 A 
ATOM      2  C   UNL     1       6.953   5.122  14.458  0.00  0.00    +0.000 A 
ATOM      3  N   UNL     1       7.573   5.548  15.584  0.00  0.00    +0.000 NA
ATOM      4  C   UNL     1       7.061   5.227  16.775  0.00  0.00    +0.000 A 
ATOM      5  N   UNL     1       7.733   5.607  17.855  0.00  0.00    +0.000 NA
ATOM      6  C   UNL     1       7.247   5.266  19.041  0.00  0.00    +0.000 A 
ATOM      7  N   UNL     1       7.975   5.630  20.157  0.00  0.00    +0.000 N 
ATOM      8  N   UNL     1       6.104   4.615  19.248  0.00  0.00    +0.000 NA
ATOM      9  C   UNL     1       5.434   4.233  18.159  0.00  0.00    +0.000 A 
ATOM     10  N   UNL     1       4.235   3.552  18.405  0.00  0.00    +0.000 N 
ATOM     11  C   UNL     1       5.873   4.509  16.867  0.00  0.00    +0.000 A 
ATOM     12  C   UNL     1       5.222   4.095  15.682  0.00  0.00    +0.000 A 
ATOM     13  H   UNL     1       8.564   6.423  19.941  0.00  0.00    +0.000 HD
ATOM     14  H   UNL     1       7.372   5.700  20.964  0.00  0.00    +0.000 HD
ATOM     15  H   UNL     1       4.164   3.424  19.412  0.00  0.00    +0.000 HD
ATOM     16  H   UNL     1       4.199   2.665  17.916  0.00  0.00    +0.000 HD
ENDROOT
BRANCH   1  17
ATOM     17  C   UNL     1       5.201   3.824  13.170  0.00  0.00    +0.000 C 
BRANCH  17  19
ATOM     18  C   UNL     1       5.511   2.003  11.408  0.00  0.00    +0.000 C 
ATOM     19  C   UNL     1       6.208   3.010  12.328  0.00  0.00    +0.000 C 
ATOM     20  C   UNL     1       7.082   3.947  11.491  0.00  0.00    +0.000 C 
ENDBRANCH  17  19
ENDBRANCH   1  17
TORSDOF 2
ENDMDL
MODEL 4
REMARK VINA RESULT:      -7.0      1.647      2.819
REMARK  Name = 
REMARK  4 active torsions:
REMARK  status: ('A' for Active; 'I' for Inactive)
REMARK    1  A    between atoms: C_1  and  C_2
REMARK    2  A    between atoms: C_2  and  C_3
REMARK    3  A    between atoms: C_2  and  C_4
REMARK    4  A    between atoms: C_4  and  C_5
REMARK                            x       y       z     vdW  Elec       q    Type
REMARK                         _______ _______ _______ _____ _____    ______ ____
ROOT
ATOM      1  C   UNL     1       3.998   3.154  17.999  0.00  0.00    +0.000 A 
ATOM      2  C   UNL     1       4.616   3.262  19.232  0.00  0.00    +0.000 A 
ATOM      3  N   UNL     1       5.610   4.137  19.514  0.00  0.00    +0.000 NA
ATOM      4  C   UNL     1       6.038   4.971  18.564  0.00  0.00    +0.000 A 
ATOM      5  N   UNL     1       6.968   5.858  18.897  0.00  0.00    +0.000 NA
ATOM      6  C   UNL     1       7.376   6.710  17.966  0.00  0.00    +0.000 A 
ATOM      7  N   UNL     1       8.314   7.655  18.335  0.00  0.00    +0.000 N 
ATOM      8  N   UNL     1       6.969   6.721  16.699  0.00  0.00    +0.000 NA
ATOM      9  C   UNL     1       6.032   5.830  16.369  0.00  0.00    +0.000 A 
ATOM     10  N   UNL     1       5.623   5.862  15.030  0.00  0.00    +0.000 N 
ATOM     11  C   UNL     1       5.509   4.913  17.278  0.00  0.00    +0.000 A 
ATOM     12  C   UNL     1       4.491   3.976  16.991  0.00  0.00    +0.000 A 
ATOM     13  H   UNL     1       8.834   7.330  19.138  0.00  0.00    +0.000 HD
ATOM     14  H   UNL     1       8.839   7.963  17.530  0.00  0.00    +0.000 HD
ATOM     15  H   UNL     1       6.101   6.646  14.590  0.00  0.00    +0.000 HD
ATOM     16  H   UNL     1       4.616   5.946  14.946  0.00  0.00    +0.000 HD
ENDROOT
BRANCH   1  17
ATOM     17  C   UNL     1       2.821   2.245  17.764  0.00  0.00    +0.000 C 
BRANCH  17  19
ATOM     18  C   UNL     1       1.214   2.706  19.694  0.00  0.00    +0.000 C 
ATOM     19  C   UNL     1       1.473   2.866  18.193  0.00  0.00    +0.000 C 
ATOM     20  C   UNL     1       1.431   4.351  17.822  0.00  0.00    +0.000 C 
ENDBRANCH  17  19
ENDBRANCH   1  17
TORSDOF 2
ENDMDL
MODEL 5
REMARK VINA RESULT:      -7.0      3.041      5.903
REMARK  Name = 
REMARK  4 active torsions:
REMARK  status: ('A' for Active; 'I' for Inactive)
REMARK    1  A    between atoms: C_1  and  C_2
REMARK    2  A    between atoms: C_2  and  C_3
REMARK    3  A    between atoms: C_2  and  C_4
REMARK    4  A    between atoms: C_4  and  C_5
REMARK                            x       y       z     vdW  Elec       q    Type
REMARK                         _______ _______ _______ _____ _____    ______ ____
ROOT
ATOM      1  C   UNL     1       4.271   5.972  17.997  0.00  0.00    +0.000 A 
ATOM      2  C   UNL     1       3.096   6.540  18.457  0.00  0.00    +0.000 A 
ATOM      3  N   UNL     1       2.278   5.966  19.370  0.00  0.00    +0.000 NA
ATOM      4  C   UNL     1       2.604   4.780  19.889  0.00  0.00    +0.000 A 
ATOM      5  N   UNL     1       1.811   4.281  20.829  0.00  0.00    +0.000 NA
ATOM      6  C   UNL     1       2.145   3.117  21.371  0.00  0.00    +0.000 A 
ATOM      7  N   UNL     1       1.335   2.627  22.377  0.00  0.00    +0.000 N 
ATOM      8  N   UNL     1       3.189   2.372  21.014  0.00  0.00    +0.000 NA
ATOM      9  C   UNL     1       3.985   2.879  20.070  0.00  0.00    +0.000 A 
ATOM     10  N   UNL     1       5.073   2.074  19.712  0.00  0.00    +0.000 N 
ATOM     11  C   UNL     1       3.745   4.108  19.461  0.00  0.00    +0.000 A 
ATOM     12  C   UNL     1       4.575   4.707  18.486  0.00  0.00    +0.000 A 
ATOM     13  H   UNL     1       0.408   3.022  22.297  0.00  0.00    +0.000 HD
ATOM     14  H   UNL     1       1.413   1.622  22.433  0.00  0.00    +0.000 HD
ATOM     15  H   UNL     1       5.065   1.266  20.331  0.00  0.00    +0.000 HD
ATOM     16  H   UNL     1       5.951   2.578  19.774  0.00  0.00    +0.000 HD
ENDROOT
BRANCH   1  17
ATOM     17  C   UNL     1       5.205   6.698  17.065  0.00  0.00    +0.000 C 
BRANCH  17  19
ATOM     18  C   UNL     1       7.152   5.499  15.926  0.00  0.00    +0.000 C 
ATOM     19  C   UNL     1       6.673   6.231  17.185  0.00  0.00    +0.000 C 
ATOM     20  C   UNL     1       7.590   7.426  17.460  0.00  0.00    +0.000 C 
ENDBRANCH  17  19
ENDBRANCH   1  17
TORSDOF 2
ENDMDL
MODEL 6
REMARK VINA RESULT:      -6.9      2.905      5.964
REMARK  Name = 
REMARK  4 active torsions:
REMARK  status: ('A' for Active; 'I' for Inactive)
REMARK    1  A    between atoms: C_1  and  C_2
REMARK    2  A    between atoms: C_2  and  C_3
REMARK    3  A    between atoms: C_2  and  C_4
REMARK    4  A    between atoms: C_4  and  C_5
REMARK                            x       y       z     vdW  Elec       q    Type
REMARK                         _______ _______ _______ _____ _____    ______ ____
ROOT
ATOM      1  C   UNL     1       4.443   5.311  17.027  0.00  0.00    +0.000 A 
ATOM      2  C   UNL     1       3.974   6.267  17.911  0.00  0.00    +0.000 A 
ATOM      3  N   UNL     1       3.336   5.987  19.071  0.00  0.00    +0.000 NA
ATOM      4  C   UNL     1       3.139   4.713  19.420  0.00  0.00    +0.000 A 
ATOM      5  N   UNL     1       2.569   4.479  20.595  0.00  0.00    +0.000 NA
ATOM      6  C   UNL     1       2.399   3.215  20.962  0.00  0.00    +0.000 A 
ATOM      7  N   UNL     1       1.842   2.982  22.205  0.00  0.00    +0.000 N 
ATOM      8  N   UNL     1       2.705   2.150  20.225  0.00  0.00    +0.000 NA
ATOM      9  C   UNL     1       3.281   2.391  19.046  0.00  0.00    +0.000 A 
ATOM     10  N   UNL     1       3.591   1.254  18.290  0.00  0.00    +0.000 N 
ATOM     11  C   UNL     1       3.537   3.678  18.579  0.00  0.00    +0.000 A 
ATOM     12  C   UNL     1       4.178   3.987  17.358  0.00  0.00    +0.000 A 
ATOM     13  H   UNL     1       1.297   3.783  22.495  0.00  0.00    +0.000 HD
ATOM     14  H   UNL     1       1.393   2.078  22.226  0.00  0.00    +0.000 HD
ATOM     15  H   UNL     1       3.365   0.442  18.862  0.00  0.00    +0.000 HD
ATOM     16  H   UNL     1       4.564   1.245  18.004  0.00  0.00    +0.000 HD
ENDROOT
BRANCH   1  17
ATOM     17  C   UNL     1       5.246   5.668  15.805  0.00  0.00    +0.000 C 
BRANCH  17  19
ATOM     18  C   UNL     1       6.927   4.843  14.068  0.00  0.00    +0.000 C 
ATOM     19  C   UNL     1       6.344   4.634  15.470  0.00  0.00    +0.000 C 
ATOM     20  C   UNL     1       7.468   4.698  16.506  0.00  0.00    +0.000 C 
ENDBRANCH  17  19
ENDBRANCH   1  17
TORSDOF 2
ENDMDL
MODEL 7
REMARK VINA RESULT:      -6.8      1.032      1.236
REMARK  Name = 
REMARK  4 active torsions:
REMARK  status: ('A' for Active; 'I' for Inactive)
REMARK    1  A    between atoms: C_1  and  C_2
REMARK    2  A    between atoms: C_2  and  C_3
REMARK    3  A    between atoms: C_2  and  C_4
REMARK    4  A    between atoms: C_4  and  C_5
REMARK                            x       y       z     vdW  Elec       q    Type
REMARK                         _______ _______ _______ _____ _____    ______ ____
ROOT
ATOM      1  C   UNL     1       3.378   4.875  19.343  0.00  0.00    +0.000 A 
ATOM      2  C   UNL     1       2.859   4.985  18.065  0.00  0.00    +0.000 A 
ATOM      3  N   UNL     1       3.609   5.142  16.948  0.00  0.00    +0.000 NA
ATOM      4  C   UNL     1       4.939   5.189  17.053  0.00  0.00    +0.000 A 
ATOM      5  N   UNL     1       5.641   5.278  15.930  0.00  0.00    +0.000 NA
ATOM      6  C   UNL     1       6.964   5.294  16.024  0.00  0.00    +0.000 A 
ATOM      7  N   UNL     1       7.686   5.346  14.847  0.00  0.00    +0.000 N 
ATOM      8  N   UNL     1       7.657   5.281  17.161  0.00  0.00    +0.000 NA
ATOM      9  C   UNL     1       6.947   5.188  18.287  0.00  0.00    +0.000 A 
ATOM     10  N   UNL     1       7.699   5.178  19.468  0.00  0.00    +0.000 N 
ATOM     11  C   UNL     1       5.555   5.130  18.299  0.00  0.00    +0.000 A 
ATOM     12  C   UNL     1       4.758   4.992  19.459  0.00  0.00    +0.000 A 
ATOM     13  H   UNL     1       7.119   5.746  14.113  0.00  0.00    +0.000 HD
ATOM     14  H   UNL     1       8.597   5.751  15.010  0.00  0.00    +0.000 HD
ATOM     15  H   UNL     1       8.681   5.171  19.198  0.00  0.00    +0.000 HD
ATOM     16  H   UNL     1       7.470   4.382  20.054  0.00  0.00    +0.000 HD
ENDROOT
BRANCH   1  17
ATOM     17  C   UNL     1       2.512   4.588  20.542  0.00  0.00    +0.000 C 
BRANCH  17  19
ATOM     18  C   UNL     1       1.735   2.631  21.986  0.00  0.00    +0.000 C 
ATOM     19  C   UNL     1       1.951   3.149  20.561  0.00  0.00    +0.000 C 
ATOM     20  C   UNL     1       0.632   3.082  19.787  0.00  0.00    +0.000 C 
ENDBRANCH  17  19
ENDBRANCH   1  17
TORSDOF 2
ENDMDL
MODEL 8
REMARK VINA RESULT:      -6.8      2.737      5.913
REMARK  Name = 
REMARK  4 active torsions:
REMARK  status: ('A' for Active; 'I' for Inactive)
REMARK    1  A    between atoms: C_1  and  C_2
REMARK    2  A    between atoms: C_2  and  C_3
REMARK    3  A    between atoms: C_2  and  C_4
REMARK    4  A    between atoms: C_4  and  C_5
REMARK                            x       y       z     vdW  Elec       q    Type
REMARK                         _______ _______ _______ _____ _____    ______ ____
ROOT
ATOM      1  C   UNL     1       4.523   5.490  16.944  0.00  0.00    +0.000 A 
ATOM      2  C   UNL     1       4.509   6.321  18.051  0.00  0.00    +0.000 A 
ATOM      3  N   UNL     1       3.963   5.992  19.245  0.00  0.00    +0.000 NA
ATOM      4  C   UNL     1       3.401   4.790  19.401  0.00  0.00    +0.000 A 
ATOM      5  N   UNL     1       2.936   4.481  20.604  0.00  0.00    +0.000 NA
ATOM      6  C   UNL     1       2.405   3.277  20.774  0.00  0.00    +0.000 A 
ATOM      7  N   UNL     1       1.960   2.950  22.041  0.00  0.00    +0.000 N 
ATOM      8  N   UNL     1       2.248   2.362  19.821  0.00  0.00    +0.000 NA
ATOM      9  C   UNL     1       2.721   2.677  18.613  0.00  0.00    +0.000 A 
ATOM     10  N   UNL     1       2.542   1.697  17.628  0.00  0.00    +0.000 N 
ATOM     11  C   UNL     1       3.328   3.899  18.335  0.00  0.00    +0.000 A 
ATOM     12  C   UNL     1       3.878   4.267  17.086  0.00  0.00    +0.000 A 
ATOM     13  H   UNL     1       1.751   3.791  22.561  0.00  0.00    +0.000 HD
ATOM     14  H   UNL     1       1.244   2.240  21.990  0.00  0.00    +0.000 HD
ATOM     15  H   UNL     1       2.133   0.884  18.085  0.00  0.00    +0.000 HD
ATOM     16  H   UNL     1       3.413   1.463  17.167  0.00  0.00    +0.000 HD
ENDROOT
BRANCH   1  17
ATOM     17  C   UNL     1       5.241   5.855  15.672  0.00  0.00    +0.000 C 
BRANCH  17  19
ATOM     18  C   UNL     1       7.152   4.562  16.765  0.00  0.00    +0.000 C 
ATOM     19  C   UNL     1       6.538   5.046  15.448  0.00  0.00    +0.000 C 
ATOM     20  C   UNL     1       6.265   3.845  14.539  0.00  0.00    +0.000 C 
ENDBRANCH  17  19
ENDBRANCH   1  17
TORSDOF 2
ENDMDL
MODEL 9
REMARK VINA RESULT:      -6.8      2.596      6.070
REMARK  Name = 
REMARK  4 active torsions:
REMARK  status: ('A' for Active; 'I' for Inactive)
REMARK    1  A    between atoms: C_1  and  C_2
REMARK    2  A    between atoms: C_2  and  C_3
REMARK    3  A    between atoms: C_2  and  C_4
REMARK    4  A    between atoms: C_4  and  C_5
REMARK                            x       y       z     vdW  Elec       q    Type
REMARK                         _______ _______ _______ _____ _____    ______ ____
ROOT
ATOM      1  C   UNL     1       5.409   4.504  16.459  0.00  0.00    +0.000 A 
ATOM      2  C   UNL     1       4.646   5.626  16.731  0.00  0.00    +0.000 A 
ATOM      3  N   UNL     1       3.538   5.626  17.509  0.00  0.00    +0.000 NA
ATOM      4  C   UNL     1       3.135   4.485  18.075  0.00  0.00    +0.000 A 
ATOM      5  N   UNL     1       2.084   4.539  18.883  0.00  0.00    +0.000 NA
ATOM      6  C   UNL     1       1.696   3.416  19.473  0.00  0.00    +0.000 A 
ATOM      7  N   UNL     1       0.626   3.490  20.344  0.00  0.00    +0.000 N 
ATOM      8  N   UNL     1       2.241   2.217  19.282  0.00  0.00    +0.000 NA
ATOM      9  C   UNL     1       3.300   2.169  18.471  0.00  0.00    +0.000 A 
ATOM     10  N   UNL     1       3.853   0.896  18.287  0.00  0.00    +0.000 N 
ATOM     11  C   UNL     1       3.810   3.294  17.829  0.00  0.00    +0.000 A 
ATOM     12  C   UNL     1       4.949   3.305  16.992  0.00  0.00    +0.000 A 
ATOM     13  H   UNL     1       0.055   4.294  20.122  0.00  0.00    +0.000 HD
ATOM     14  H   UNL     1       0.166   2.594  20.414  0.00  0.00    +0.000 HD
ATOM     15  H   UNL     1       3.348   0.258  18.899  0.00  0.00    +0.000 HD
ATOM     16  H   UNL     1       4.848   0.885  18.481  0.00  0.00    +0.000 HD
ENDROOT
BRANCH   1  17
ATOM     17  C   UNL     1       6.695   4.574  15.679  0.00  0.00    +0.000 C 
BRANCH  17  19
ATOM     18  C   UNL     1       7.797   5.274  13.484  0.00  0.00    +0.000 C 
ATOM     19  C   UNL     1       6.487   4.893  14.182  0.00  0.00    +0.000 C 
ATOM     20  C   UNL     1       5.856   3.695  13.466  0.00  0.00    +0.000 C 
ENDBRANCH  17  19
ENDBRANCH   1  17
TORSDOF 2
ENDMDL
