MODEL 1
REMARK VINA RESULT:      -7.5      0.000      0.000
REMARK  Name = 
REMARK  8 active torsions:
REMARK  status: ('A' for Active; 'I' for Inactive)
REMARK    1  A    between atoms: C_1  and  C_2
REMARK    2  A    between atoms: C_2  and  C_3
REMARK    3  A    between atoms: C_3  and  C_4
REMARK    4  A    between atoms: C_4  and  C_5
REMARK    5  A    between atoms: C_5  and  C_6
REMARK    6  A    between atoms: C_6  and  C_7
REMARK    7  A    between atoms: N_9  and  C_10
REMARK    8  A    between atoms: C_13  and  C_14
REMARK                            x       y       z     vdW  Elec       q    Type
REMARK                         _______ _______ _______ _____ _____    ______ ____
ROOT
ATOM      1  C   UNL     1       6.317   3.927  15.082  0.00  0.00    +0.000 C 
ATOM      2  C   UNL     1       5.282   3.872  16.190  0.00  0.00    +0.000 C 
ATOM      3  N   UNL     1       5.380   5.173  16.767  0.00  0.00    +0.000 N 
ATOM      4  C   UNL     1       6.563   5.781  16.372  0.00  0.00    +0.000 C 
ATOM      5  O   UNL     1       7.039   6.843  16.737  0.00  0.00    +0.000 OA
ATOM      6  O   UNL     1       7.215   4.970  15.483  0.00  0.00    +0.000 OA
ENDROOT
BRANCH   3   7
ATOM      7  C   UNL     1       4.444   5.709  17.679  0.00  0.00    +0.000 A 
ATOM      8  C   UNL     1       3.779   6.901  17.378  0.00  0.00    +0.000 A 
ATOM      9  C   UNL     1       2.856   7.450  18.261  0.00  0.00    +0.000 A 
ATOM     10  C   UNL     1       2.589   6.827  19.481  0.00  0.00    +0.000 A 
ATOM     11  C   UNL     1       1.634   7.448  20.453  0.00  0.00    +0.000 C 
ATOM     12  C   UNL     1       3.249   5.632  19.792  0.00  0.00    +0.000 A 
ATOM     13  C   UNL     1       4.156   5.064  18.888  0.00  0.00    +0.000 A 
ENDBRANCH   3   7
BRANCH   1  14
ATOM     14  C   UNL     1       5.725   4.280  13.712  0.00  0.00    +0.000 C 
BRANCH  14  15
ATOM     15  C   UNL     1       6.315   3.387  12.618  0.00  0.00    +0.000 C 
BRANCH  15  16
ATOM     16  C   UNL     1       5.227   2.758  11.750  0.00  0.00    +0.000 C 
BRANCH  16  17
ATOM     17  C   UNL     1       4.233   3.822  11.285  0.00  0.00    +0.000 C 
BRANCH  17  19
ATOM     18  C   UNL     1       2.685   4.369   9.384  0.00  0.00    +0.000 C 
ATOM     19  C   UNL     1       3.255   3.262  10.257  0.00  0.00    +0.000 C 
ENDBRANCH  17  19
ENDBRANCH  16  17
ENDBRANCH  15  16
ENDBRANCH  14  15
ENDBRANCH   1  14
TORSDOF 6
ENDMDL
MODEL 2
REMARK VINA RESULT:      -7.4      1.385      1.628
REMARK  Name = 
REMARK  8 active torsions:
REMARK  status: ('A' for Active; 'I' for Inactive)
REMARK    1  A    between atoms: C_1  and  C_2
REMARK    2  A    between atoms: C_2  and  C_3
REMARK    3  A    between atoms: C_3  and  C_4
REMARK    4  A    between atoms: C_4  and  C_5
REMARK    5  A    between atoms: C_5  and  C_6
REMARK    6  A    between atoms: C_6  and  C_7
REMARK    7  A    between atoms: N_9  and  C_10
REMARK    8  A    between atoms: C_13  and  C_14
REMARK                            x       y       z     vdW  Elec       q    Type
REMARK                         _______ _______ _______ _____ _____    ______ ____
ROOT
ATOM      1  C   UNL     1       7.200   4.764  15.365  0.00  0.00    +0.000 C 
ATOM      2  C   UNL     1       6.274   4.005  16.298  0.00  0.00    +0.000 C 
ATOM      3  N   UNL     1       5.625   5.058  17.009  0.00  0.00    +0.000 N 
ATOM      4  C   UNL     1       6.330   6.242  16.855  0.00  0.00    +0.000 C 
ATOM      5  O   UNL     1       6.143   7.323  17.390  0.00  0.00    +0.000 OA
ATOM      6  O   UNL     1       7.376   6.038  15.995  0.00  0.00    +0.000 OA
ENDROOT
BRANCH   3   7
ATOM      7  C   UNL     1       4.483   4.880  17.823  0.00  0.00    +0.000 A 
ATOM      8  C   UNL     1       3.319   4.328  17.281  0.00  0.00    +0.000 A 
ATOM      9  C   UNL     1       2.183   4.146  18.061  0.00  0.00    +0.000 A 
ATOM     10  C   UNL     1       2.177   4.531  19.402  0.00  0.00    +0.000 A 
ATOM     11  C   UNL     1       0.935   4.383  20.225  0.00  0.00    +0.000 C 
ATOM     12  C   UNL     1       3.338   5.083  19.955  0.00  0.00    +0.000 A 
ATOM     13  C   UNL     1       4.493   5.239  19.176  0.00  0.00    +0.000 A 
ENDBRANCH   3   7
BRANCH   1  14
ATOM     14  C   UNL     1       6.612   4.977  13.965  0.00  0.00    +0.000 C 
BRANCH  14  15
ATOM     15  C   UNL     1       5.916   3.708  13.468  0.00  0.00    +0.000 C 
BRANCH  15  16
ATOM     16  C   UNL     1       6.216   3.435  11.996  0.00  0.00    +0.000 C 
BRANCH  16  17
ATOM     17  C   UNL     1       5.153   2.516  11.395  0.00  0.00    +0.000 C 
BRANCH  17  19
ATOM     18  C   UNL     1       3.504   3.887  10.087  0.00  0.00    +0.000 C 
ATOM     19  C   UNL     1       3.776   3.174  11.402  0.00  0.00    +0.000 C 
ENDBRANCH  17  19
ENDBRANCH  16  17
ENDBRANCH  15  16
ENDBRANCH  14  15
ENDBRANCH   1  14
TORSDOF 6
ENDMDL
MODEL 3
REMARK VINA RESULT:      -7.2      1.606      1.949
REMARK  Name = 
REMARK  8 active torsions:
REMARK  status: ('A' for Active; 'I' for Inactive)
REMARK    1  A    between atoms: C_1  and  C_2
REMARK    2  A    between atoms: C_2  and  C_3
REMARK    3  A    between atoms: C_3  and  C_4
REMARK    4  A    between atoms: C_4  and  C_5
REMARK    5  A    between atoms: C_5  and  C_6
REMARK    6  A    between atoms: C_6  and  C_7
REMARK    7  A    between atoms: N_9  and  C_10
REMARK    8  A    between atoms: C_13  and  C_14
REMARK                            x       y       z     vdW  Elec       q    Type
REMARK                         _______ _______ _______ _____ _____    ______ ____
ROOT
ATOM      1  C   UNL     1       6.183   4.446  14.839  0.00  0.00    +0.000 C 
ATOM      2  C   UNL     1       5.676   3.644  16.024  0.00  0.00    +0.000 C 
ATOM      3  N   UNL     1       4.801   4.569  16.668  0.00  0.00    +0.000 N 
ATOM      4  C   UNL     1       5.050   5.855  16.214  0.00  0.00    +0.000 C 
ATOM      5  O   UNL     1       4.578   6.912  16.602  0.00  0.00    +0.000 OA
ATOM      6  O   UNL     1       5.997   5.813  15.226  0.00  0.00    +0.000 OA
ENDROOT
BRANCH   3   7
ATOM      7  C   UNL     1       3.887   4.218  17.686  0.00  0.00    +0.000 A 
ATOM      8  C   UNL     1       3.088   5.202  18.277  0.00  0.00    +0.000 A 
ATOM      9  C   UNL     1       2.184   4.882  19.283  0.00  0.00    +0.000 A 
ATOM     10  C   UNL     1       2.069   3.568  19.738  0.00  0.00    +0.000 A 
ATOM     11  C   UNL     1       1.132   3.235  20.857  0.00  0.00    +0.000 C 
ATOM     12  C   UNL     1       2.863   2.574  19.152  0.00  0.00    +0.000 A 
ATOM     13  C   UNL     1       3.753   2.893  18.117  0.00  0.00    +0.000 A 
ENDBRANCH   3   7
BRANCH   1  14
ATOM     14  C   UNL     1       5.399   4.184  13.547  0.00  0.00    +0.000 C 
BRANCH  14  15
ATOM     15  C   UNL     1       6.234   3.364  12.561  0.00  0.00    +0.000 C 
BRANCH  15  16
ATOM     16  C   UNL     1       5.395   2.858  11.390  0.00  0.00    +0.000 C 
BRANCH  16  17
ATOM     17  C   UNL     1       3.942   3.305  11.541  0.00  0.00    +0.000 C 
BRANCH  17  19
ATOM     18  C   UNL     1       2.850   4.246   9.483  0.00  0.00    +0.000 C 
ATOM     19  C   UNL     1       3.126   2.987  10.291  0.00  0.00    +0.000 C 
ENDBRANCH  17  19
ENDBRANCH  16  17
ENDBRANCH  15  16
ENDBRANCH  14  15
ENDBRANCH   1  14
TORSDOF 6
ENDMDL
MODEL 4
REMARK VINA RESULT:      -7.1      1.921      2.498
REMARK  Name = 
REMARK  8 active torsions:
REMARK  status: ('A' for Active; 'I' for Inactive)
REMARK    1  A    between atoms: C_1  and  C_2
REMARK    2  A    between atoms: C_2  and  C_3
REMARK    3  A    between atoms: C_3  and  C_4
REMARK    4  A    between atoms: C_4  and  C_5
REMARK    5  A    between atoms: C_5  and  C_6
REMARK    6  A    between atoms: C_6  and  C_7
REMARK    7  A    between atoms: N_9  and  C_10
REMARK    8  A    between atoms: C_13  and  C_14
REMARK                            x       y       z     vdW  Elec       q    Type
REMARK                         _______ _______ _______ _____ _____    ______ ____
ROOT
ATOM      1  C   UNL     1       7.302   4.807  15.553  0.00  0.00    +0.000 C 
ATOM      2  C   UNL     1       6.386   3.953  16.411  0.00  0.00    +0.000 C 
ATOM      3  N   UNL     1       5.604   4.932  17.094  0.00  0.00    +0.000 N 
ATOM      4  C   UNL     1       6.214   6.174  17.005  0.00  0.00    +0.000 C 
ATOM      5  O   UNL     1       5.901   7.224  17.542  0.00  0.00    +0.000 OA
ATOM      6  O   UNL     1       7.327   6.078  16.213  0.00  0.00    +0.000 OA
ENDROOT
BRANCH   3   7
ATOM      7  C   UNL     1       4.433   4.641  17.827  0.00  0.00    +0.000 A 
ATOM      8  C   UNL     1       4.523   4.301  19.180  0.00  0.00    +0.000 A 
ATOM      9  C   UNL     1       3.385   4.006  19.922  0.00  0.00    +0.000 A 
ATOM     10  C   UNL     1       2.125   4.027  19.322  0.00  0.00    +0.000 A 
ATOM     11  C   UNL     1       0.906   3.659  20.110  0.00  0.00    +0.000 C 
ATOM     12  C   UNL     1       2.024   4.369  17.968  0.00  0.00    +0.000 A 
ATOM     13  C   UNL     1       3.168   4.694  17.228  0.00  0.00    +0.000 A 
ENDBRANCH   3   7
BRANCH   1  14
ATOM     14  C   UNL     1       6.789   4.999  14.121  0.00  0.00    +0.000 C 
BRANCH  14  15
ATOM     15  C   UNL     1       6.058   3.746  13.631  0.00  0.00    +0.000 C 
BRANCH  15  16
ATOM     16  C   UNL     1       6.092   3.627  12.110  0.00  0.00    +0.000 C 
BRANCH  16  17
ATOM     17  C   UNL     1       5.112   2.553  11.636  0.00  0.00    +0.000 C 
BRANCH  17  19
ATOM     18  C   UNL     1       7.309   1.547  10.948  0.00  0.00    +0.000 C 
ATOM     19  C   UNL     1       5.838   1.276  11.225  0.00  0.00    +0.000 C 
ENDBRANCH  17  19
ENDBRANCH  16  17
ENDBRANCH  15  16
ENDBRANCH  14  15
ENDBRANCH   1  14
TORSDOF 6
ENDMDL
MODEL 5
REMARK VINA RESULT:      -7.0      4.100      7.108
REMARK  Name = 
REMARK  8 active torsions:
REMARK  status: ('A' for Active; 'I' for Inactive)
REMARK    1  A    between atoms: C_1  and  C_2
REMARK    2  A    between atoms: C_2  and  C_3
REMARK    3  A    between atoms: C_3  and  C_4
REMARK    4  A    between atoms: C_4  and  C_5
REMARK    5  A    between atoms: C_5  and  C_6
REMARK    6  A    between atoms: C_6  and  C_7
REMARK    7  A    between atoms: N_9  and  C_10
REMARK    8  A    between atoms: C_13  and  C_14
REMARK                            x       y       z     vdW  Elec       q    Type
REMARK                         _______ _______ _______ _____ _____    ______ ____
ROOT
ATOM      1  C   UNL     1       7.817   7.320  17.449  0.00  0.00    +0.000 C 
ATOM      2  C   UNL     1       6.610   6.586  16.896  0.00  0.00    +0.000 C 
ATOM      3  N   UNL     1       6.135   5.873  18.037  0.00  0.00    +0.000 N 
ATOM      4  C   UNL     1       7.119   5.828  19.013  0.00  0.00    +0.000 C 
ATOM      5  O   UNL     1       7.121   5.227  20.076  0.00  0.00    +0.000 OA
ATOM      6  O   UNL     1       8.200   6.561  18.602  0.00  0.00    +0.000 OA
ENDROOT
BRANCH   3   7
ATOM      7  C   UNL     1       4.878   5.231  18.106  0.00  0.00    +0.000 A 
ATOM      8  C   UNL     1       3.873   5.752  18.926  0.00  0.00    +0.000 A 
ATOM      9  C   UNL     1       2.630   5.137  19.013  0.00  0.00    +0.000 A 
ATOM     10  C   UNL     1       2.366   3.971  18.293  0.00  0.00    +0.000 A 
ATOM     11  C   UNL     1       1.044   3.282  18.429  0.00  0.00    +0.000 C 
ATOM     12  C   UNL     1       3.365   3.443  17.467  0.00  0.00    +0.000 A 
ATOM     13  C   UNL     1       4.608   4.080  17.357  0.00  0.00    +0.000 A 
ENDBRANCH   3   7
BRANCH   1  14
ATOM     14  C   UNL     1       7.509   8.760  17.880  0.00  0.00    +0.000 C 
BRANCH  14  15
ATOM     15  C   UNL     1       8.744   9.417  18.502  0.00  0.00    +0.000 C 
BRANCH  15  16
ATOM     16  C   UNL     1       8.852  10.892  18.126  0.00  0.00    +0.000 C 
BRANCH  16  17
ATOM     17  C   UNL     1       9.876  11.597  19.015  0.00  0.00    +0.000 C 
BRANCH  17  19
ATOM     18  C   UNL     1      12.333  11.709  19.526  0.00  0.00    +0.000 C 
ATOM     19  C   UNL     1      11.288  11.475  18.447  0.00  0.00    +0.000 C 
ENDBRANCH  17  19
ENDBRANCH  16  17
ENDBRANCH  15  16
ENDBRANCH  14  15
ENDBRANCH   1  14
TORSDOF 6
ENDMDL
MODEL 6
REMARK VINA RESULT:      -7.0      1.637      2.187
REMARK  Name = 
REMARK  8 active torsions:
REMARK  status: ('A' for Active; 'I' for Inactive)
REMARK    1  A    between atoms: C_1  and  C_2
REMARK    2  A    between atoms: C_2  and  C_3
REMARK    3  A    between atoms: C_3  and  C_4
REMARK    4  A    between atoms: C_4  and  C_5
REMARK    5  A    between atoms: C_5  and  C_6
REMARK    6  A    between atoms: C_6  and  C_7
REMARK    7  A    between atoms: N_9  and  C_10
REMARK    8  A    between atoms: C_13  and  C_14
REMARK                            x       y       z     vdW  Elec       q    Type
REMARK                         _______ _______ _______ _____ _____    ______ ____
ROOT
ATOM      1  C   UNL     1       6.846   4.845  15.633  0.00  0.00    +0.000 C 
ATOM      2  C   UNL     1       6.217   4.217  16.864  0.00  0.00    +0.000 C 
ATOM      3  N   UNL     1       5.045   5.010  17.047  0.00  0.00    +0.000 N 
ATOM      4  C   UNL     1       5.149   6.188  16.323  0.00  0.00    +0.000 C 
ATOM      5  O   UNL     1       4.398   7.150  16.310  0.00  0.00    +0.000 OA
ATOM      6  O   UNL     1       6.307   6.172  15.593  0.00  0.00    +0.000 OA
ENDROOT
BRANCH   3   7
ATOM      7  C   UNL     1       3.985   4.669  17.917  0.00  0.00    +0.000 A 
ATOM      8  C   UNL     1       4.013   5.091  19.249  0.00  0.00    +0.000 A 
ATOM      9  C   UNL     1       2.984   4.765  20.125  0.00  0.00    +0.000 A 
ATOM     10  C   UNL     1       1.907   3.990  19.694  0.00  0.00    +0.000 A 
ATOM     11  C   UNL     1       0.827   3.597  20.653  0.00  0.00    +0.000 C 
ATOM     12  C   UNL     1       1.869   3.564  18.361  0.00  0.00    +0.000 A 
ATOM     13  C   UNL     1       2.891   3.918  17.470  0.00  0.00    +0.000 A 
ENDBRANCH   3   7
BRANCH   1  14
ATOM     14  C   UNL     1       6.485   4.122  14.329  0.00  0.00    +0.000 C 
BRANCH  14  15
ATOM     15  C   UNL     1       7.329   4.647  13.165  0.00  0.00    +0.000 C 
BRANCH  15  16
ATOM     16  C   UNL     1       6.930   4.003  11.839  0.00  0.00    +0.000 C 
BRANCH  16  17
ATOM     17  C   UNL     1       5.730   3.077  12.034  0.00  0.00    +0.000 C 
BRANCH  17  19
ATOM     18  C   UNL     1       3.588   3.041  10.722  0.00  0.00    +0.000 C 
ATOM     19  C   UNL     1       4.415   3.798  11.749  0.00  0.00    +0.000 C 
ENDBRANCH  17  19
ENDBRANCH  16  17
ENDBRANCH  15  16
ENDBRANCH  14  15
ENDBRANCH   1  14
TORSDOF 6
ENDMDL
MODEL 7
REMARK VINA RESULT:      -6.9      3.429      6.384
REMARK  Name = 
REMARK  8 active torsions:
REMARK  status: ('A' for Active; 'I' for Inactive)
REMARK    1  A    between atoms: C_1  and  C_2
REMARK    2  A    between atoms: C_2  and  C_3
REMARK    3  A    between atoms: C_3  and  C_4
REMARK    4  A    between atoms: C_4  and  C_5
REMARK    5  A    between atoms: C_5  and  C_6
REMARK    6  A    between atoms: C_6  and  C_7
REMARK    7  A    between atoms: N_9  and  C_10
REMARK    8  A    between atoms: C_13  and  C_14
REMARK                            x       y       z     vdW  Elec       q    Type
REMARK                         _______ _______ _______ _____ _____    ______ ____
ROOT
ATOM      1  C   UNL     1       6.388   7.061  17.022  0.00  0.00    +0.000 C 
ATOM      2  C   UNL     1       5.113   6.703  17.764  0.00  0.00    +0.000 C 
ATOM      3  N   UNL     1       4.672   5.537  17.070  0.00  0.00    +0.000 N 
ATOM      4  C   UNL     1       5.317   5.439  15.846  0.00  0.00    +0.000 C 
ATOM      5  O   UNL     1       5.130   4.642  14.941  0.00  0.00    +0.000 OA
ATOM      6  O   UNL     1       6.238   6.446  15.737  0.00  0.00    +0.000 OA
ENDROOT
BRANCH   3   7
ATOM      7  C   UNL     1       3.655   4.674  17.536  0.00  0.00    +0.000 A 
ATOM      8  C   UNL     1       3.902   3.303  17.652  0.00  0.00    +0.000 A 
ATOM      9  C   UNL     1       2.917   2.433  18.105  0.00  0.00    +0.000 A 
ATOM     10  C   UNL     1       1.649   2.913  18.436  0.00  0.00    +0.000 A 
ATOM     11  C   UNL     1       0.574   1.967  18.873  0.00  0.00    +0.000 C 
ATOM     12  C   UNL     1       1.391   4.284  18.325  0.00  0.00    +0.000 A 
ATOM     13  C   UNL     1       2.394   5.165  17.897  0.00  0.00    +0.000 A 
ENDBRANCH   3   7
BRANCH   1  14
ATOM     14  C   UNL     1       7.655   6.516  17.691  0.00  0.00    +0.000 C 
BRANCH  14  15
ATOM     15  C   UNL     1       8.295   7.576  18.591  0.00  0.00    +0.000 C 
BRANCH  15  16
ATOM     16  C   UNL     1       8.180   8.975  17.990  0.00  0.00    +0.000 C 
BRANCH  16  17
ATOM     17  C   UNL     1       8.980   9.980  18.819  0.00  0.00    +0.000 C 
BRANCH  17  19
ATOM     18  C   UNL     1      10.559  11.609  17.740  0.00  0.00    +0.000 C 
ATOM     19  C   UNL     1       9.110  11.320  18.101  0.00  0.00    +0.000 C 
ENDBRANCH  17  19
ENDBRANCH  16  17
ENDBRANCH  15  16
ENDBRANCH  14  15
ENDBRANCH   1  14
TORSDOF 6
ENDMDL
MODEL 8
REMARK VINA RESULT:      -6.9      1.861      2.833
REMARK  Name = 
REMARK  8 active torsions:
REMARK  status: ('A' for Active; 'I' for Inactive)
REMARK    1  A    between atoms: C_1  and  C_2
REMARK    2  A    between atoms: C_2  and  C_3
REMARK    3  A    between atoms: C_3  and  C_4
REMARK    4  A    between atoms: C_4  and  C_5
REMARK    5  A    between atoms: C_5  and  C_6
REMARK    6  A    between atoms: C_6  and  C_7
REMARK    7  A    between atoms: N_9  and  C_10
REMARK    8  A    between atoms: C_13  and  C_14
REMARK                            x       y       z     vdW  Elec       q    Type
REMARK                         _______ _______ _______ _____ _____    ______ ____
ROOT
ATOM      1  C   UNL     1       7.195   5.573  16.373  0.00  0.00    +0.000 C 
ATOM      2  C   UNL     1       6.435   4.631  17.288  0.00  0.00    +0.000 C 
ATOM      3  N   UNL     1       5.144   5.237  17.348  0.00  0.00    +0.000 N 
ATOM      4  C   UNL     1       5.212   6.548  16.903  0.00  0.00    +0.000 C 
ATOM      5  O   UNL     1       4.344   7.405  16.902  0.00  0.00    +0.000 OA
ATOM      6  O   UNL     1       6.482   6.813  16.464  0.00  0.00    +0.000 OA
ENDROOT
BRANCH   3   7
ATOM      7  C   UNL     1       3.996   4.605  17.876  0.00  0.00    +0.000 A 
ATOM      8  C   UNL     1       3.497   4.993  19.123  0.00  0.00    +0.000 A 
ATOM      9  C   UNL     1       2.371   4.385  19.665  0.00  0.00    +0.000 A 
ATOM     10  C   UNL     1       1.725   3.356  18.979  0.00  0.00    +0.000 A 
ATOM     11  C   UNL     1       0.543   2.667  19.588  0.00  0.00    +0.000 C 
ATOM     12  C   UNL     1       2.215   2.961  17.728  0.00  0.00    +0.000 A 
ATOM     13  C   UNL     1       3.332   3.595  17.169  0.00  0.00    +0.000 A 
ENDBRANCH   3   7
BRANCH   1  14
ATOM     14  C   UNL     1       7.214   5.116  14.909  0.00  0.00    +0.000 C 
BRANCH  14  15
ATOM     15  C   UNL     1       6.375   3.850  14.723  0.00  0.00    +0.000 C 
BRANCH  15  16
ATOM     16  C   UNL     1       5.508   3.922  13.469  0.00  0.00    +0.000 C 
BRANCH  16  17
ATOM     17  C   UNL     1       6.254   3.339  12.269  0.00  0.00    +0.000 C 
BRANCH  17  19
ATOM     18  C   UNL     1       6.339   1.148  11.044  0.00  0.00    +0.000 C 
ATOM     19  C   UNL     1       5.438   2.251  11.577  0.00  0.00    +0.000 C 
ENDBRANCH  17  19
ENDBRANCH  16  17
ENDBRANCH  15  16
ENDBRANCH  14  15
ENDBRANCH   1  14
TORSDOF 6
ENDMDL
MODEL 9
REMARK VINA RESULT:      -6.9      4.169      6.476
REMARK  Name = 
REMARK  8 active torsions:
REMARK  status: ('A' for Active; 'I' for Inactive)
REMARK    1  A    between atoms: C_1  and  C_2
REMARK    2  A    between atoms: C_2  and  C_3
REMARK    3  A    between atoms: C_3  and  C_4
REMARK    4  A    between atoms: C_4  and  C_5
REMARK    5  A    between atoms: C_5  and  C_6
REMARK    6  A    between atoms: C_6  and  C_7
REMARK    7  A    between atoms: N_9  and  C_10
REMARK    8  A    between atoms: C_13  and  C_14
REMARK                            x       y       z     vdW  Elec       q    Type
REMARK                         _______ _______ _______ _____ _____    ______ ____
ROOT
ATOM      1  C   UNL     1       7.443   6.831  17.326  0.00  0.00    +0.000 C 
ATOM      2  C   UNL     1       6.114   6.102  17.249  0.00  0.00    +0.000 C 
ATOM      3  N   UNL     1       5.966   5.593  18.575  0.00  0.00    +0.000 N 
ATOM      4  C   UNL     1       7.185   5.628  19.236  0.00  0.00    +0.000 C 
ATOM      5  O   UNL     1       7.473   5.189  20.338  0.00  0.00    +0.000 OA
ATOM      6  O   UNL     1       8.120   6.225  18.434  0.00  0.00    +0.000 OA
ENDROOT
BRANCH   3   7
ATOM      7  C   UNL     1       4.767   5.050  19.087  0.00  0.00    +0.000 A 
ATOM      8  C   UNL     1       3.702   5.894  19.413  0.00  0.00    +0.000 A 
ATOM      9  C   UNL     1       2.513   5.383  19.922  0.00  0.00    +0.000 A 
ATOM     10  C   UNL     1       2.367   4.012  20.135  0.00  0.00    +0.000 A 
ATOM     11  C   UNL     1       1.105   3.470  20.731  0.00  0.00    +0.000 C 
ATOM     12  C   UNL     1       3.427   3.157  19.809  0.00  0.00    +0.000 A 
ATOM     13  C   UNL     1       4.614   3.670  19.269  0.00  0.00    +0.000 A 
ENDBRANCH   3   7
BRANCH   1  14
ATOM     14  C   UNL     1       7.298   8.334  17.594  0.00  0.00    +0.000 C 
BRANCH  14  15
ATOM     15  C   UNL     1       8.560   8.893  18.255  0.00  0.00    +0.000 C 
BRANCH  15  16
ATOM     16  C   UNL     1       8.454  10.396  18.503  0.00  0.00    +0.000 C 
BRANCH  16  17
ATOM     17  C   UNL     1       9.759  11.094  18.123  0.00  0.00    +0.000 C 
BRANCH  17  19
ATOM     18  C   UNL     1       8.049  12.755  17.332  0.00  0.00    +0.000 C 
ATOM     19  C   UNL     1       9.514  12.532  17.673  0.00  0.00    +0.000 C 
ENDBRANCH  17  19
ENDBRANCH  16  17
ENDBRANCH  15  16
ENDBRANCH  14  15
ENDBRANCH   1  14
TORSDOF 6
ENDMDL
