MODEL 1
REMARK VINA RESULT:      -7.6      0.000      0.000
REMARK  Name = 
REMARK  6 active torsions:
REMARK  status: ('A' for Active; 'I' for Inactive)
REMARK    1  A    between atoms: C_1  and  C_2
REMARK    2  A    between atoms: C_8  and  C_9
REMARK    3  A    between atoms: C_9  and  C_11
REMARK    4  A    between atoms: C_17  and  O_18
REMARK    5  A    between atoms: O_18  and  C_19
REMARK    6  A    between atoms: C_19  and  C_20
REMARK                            x       y       z     vdW  Elec       q    Type
REMARK                         _______ _______ _______ _____ _____    ______ ____
ROOT
ATOM      1  C   UNL     1      -0.136   9.092  21.126  0.00  0.00    +0.000 C 
ATOM      2  C   UNL     1       0.897   8.729  20.098  0.00  0.00    +0.000 A 
ATOM      3  C   UNL     1       1.220   9.586  19.117  0.00  0.00    +0.000 A 
ATOM      4  C   UNL     1       2.225   9.295  18.089  0.00  0.00    +0.000 A 
ATOM      5  O   UNL     1       2.500  10.124  17.233  0.00  0.00    +0.000 OA
ATOM      6  O   UNL     1       2.846   8.059  18.172  0.00  0.00    +0.000 OA
ATOM      7  C   UNL     1       2.515   7.089  19.158  0.00  0.00    +0.000 A 
ATOM      8  C   UNL     1       3.182   5.832  19.112  0.00  0.00    +0.000 A 
ATOM      9  C   UNL     1       2.860   4.872  20.089  0.00  0.00    +0.000 A 
ATOM     10  C   UNL     1       1.953   5.229  21.100  0.00  0.00    +0.000 A 
ATOM     11  C   UNL     1       1.309   6.472  21.129  0.00  0.00    +0.000 A 
ATOM     12  C   UNL     1       1.571   7.419  20.141  0.00  0.00    +0.000 A 
ENDROOT
BRANCH   8  13
ATOM     13  C   UNL     1       4.136   5.630  17.990  0.00  0.00    +0.000 C 
ATOM     14  O   UNL     1       3.728   5.046  16.987  0.00  0.00    +0.000 OA
BRANCH  13  15
ATOM     15  C   UNL     1       5.575   6.014  18.052  0.00  0.00    +0.000 A 
ATOM     16  C   UNL     1       6.133   7.009  17.244  0.00  0.00    +0.000 A 
ATOM     17  C   UNL     1       7.445   7.440  17.479  0.00  0.00    +0.000 A 
ATOM     18  C   UNL     1       8.205   6.862  18.499  0.00  0.00    +0.000 A 
ATOM     19  C   UNL     1       7.669   5.840  19.276  0.00  0.00    +0.000 A 
ATOM     20  C   UNL     1       6.360   5.415  19.052  0.00  0.00    +0.000 A 
ENDBRANCH  13  15
ENDBRANCH   8  13
BRANCH   9  21
ATOM     21  O   UNL     1       3.295   3.587  20.270  0.00  0.00    +0.000 OA
BRANCH  21  22
ATOM     22  C   UNL     1       2.543   2.469  19.817  0.00  0.00    +0.000 C 
BRANCH  22  23
ATOM     23  C   UNL     1       3.013   1.872  18.493  0.00  0.00    +0.000 C 
ATOM     24  N   UNL     1       2.494   2.419  17.356  0.00  0.00    +0.000 N 
ATOM     25  O   UNL     1       3.829   0.961  18.429  0.00  0.00    +0.000 OA
ATOM     26  H   UNL     1       1.795   3.146  17.390  0.00  0.00    +0.000 HD
ATOM     27  H   UNL     1       2.801   2.044  16.472  0.00  0.00    +0.000 HD
ENDBRANCH  22  23
ENDBRANCH  21  22
ENDBRANCH   9  21
TORSDOF 5
ENDMDL
MODEL 2
REMARK VINA RESULT:      -7.4      2.118      5.233
REMARK  Name = 
REMARK  6 active torsions:
REMARK  status: ('A' for Active; 'I' for Inactive)
REMARK    1  A    between atoms: C_1  and  C_2
REMARK    2  A    between atoms: C_8  and  C_9
REMARK    3  A    between atoms: C_9  and  C_11
REMARK    4  A    between atoms: C_17  and  O_18
REMARK    5  A    between atoms: O_18  and  C_19
REMARK    6  A    between atoms: C_19  and  C_20
REMARK                            x       y       z     vdW  Elec       q    Type
REMARK                         _______ _______ _______ _____ _____    ______ ____
ROOT
ATOM      1  C   UNL     1       6.014   3.644  14.520  0.00  0.00    +0.000 C 
ATOM      2  C   UNL     1       5.688   4.621  15.612  0.00  0.00    +0.000 A 
ATOM      3  C   UNL     1       6.476   5.683  15.841  0.00  0.00    +0.000 A 
ATOM      4  C   UNL     1       6.208   6.677  16.886  0.00  0.00    +0.000 A 
ATOM      5  O   UNL     1       6.947   7.641  17.034  0.00  0.00    +0.000 OA
ATOM      6  O   UNL     1       5.074   6.469  17.653  0.00  0.00    +0.000 OA
ATOM      7  C   UNL     1       4.223   5.341  17.491  0.00  0.00    +0.000 A 
ATOM      8  C   UNL     1       3.115   5.205  18.374  0.00  0.00    +0.000 A 
ATOM      9  C   UNL     1       2.269   4.091  18.213  0.00  0.00    +0.000 A 
ATOM     10  C   UNL     1       2.521   3.213  17.146  0.00  0.00    +0.000 A 
ATOM     11  C   UNL     1       3.616   3.365  16.288  0.00  0.00    +0.000 A 
ATOM     12  C   UNL     1       4.498   4.431  16.461  0.00  0.00    +0.000 A 
ENDROOT
BRANCH   8  13
ATOM     13  C   UNL     1       2.979   6.242  19.430  0.00  0.00    +0.000 C 
ATOM     14  O   UNL     1       3.407   5.978  20.553  0.00  0.00    +0.000 OA
BRANCH  13  15
ATOM     15  C   UNL     1       2.275   7.540  19.225  0.00  0.00    +0.000 A 
ATOM     16  C   UNL     1       2.173   8.163  17.977  0.00  0.00    +0.000 A 
ATOM     17  C   UNL     1       1.349   9.284  17.827  0.00  0.00    +0.000 A 
ATOM     18  C   UNL     1       0.650   9.799  18.922  0.00  0.00    +0.000 A 
ATOM     19  C   UNL     1       0.784   9.210  20.175  0.00  0.00    +0.000 A 
ATOM     20  C   UNL     1       1.597   8.087  20.328  0.00  0.00    +0.000 A 
ENDBRANCH  13  15
ENDBRANCH   8  13
BRANCH   9  21
ATOM     21  O   UNL     1       1.175   3.679  18.923  0.00  0.00    +0.000 OA
BRANCH  21  22
ATOM     22  C   UNL     1       1.236   2.587  19.832  0.00  0.00    +0.000 C 
BRANCH  22  23
ATOM     23  C   UNL     1       2.200   2.778  21.001  0.00  0.00    +0.000 C 
ATOM     24  N   UNL     1       3.482   2.351  20.813  0.00  0.00    +0.000 N 
ATOM     25  O   UNL     1       1.867   3.303  22.056  0.00  0.00    +0.000 OA
ATOM     26  H   UNL     1       3.766   1.885  19.964  0.00  0.00    +0.000 HD
ATOM     27  H   UNL     1       4.135   2.478  21.571  0.00  0.00    +0.000 HD
ENDBRANCH  22  23
ENDBRANCH  21  22
ENDBRANCH   9  21
TORSDOF 5
ENDMDL
MODEL 3
REMARK VINA RESULT:      -7.3      2.667      5.499
REMARK  Name = 
REMARK  6 active torsions:
REMARK  status: ('A' for Active; 'I' for Inactive)
REMARK    1  A    between atoms: C_1  and  C_2
REMARK    2  A    between atoms: C_8  and  C_9
REMARK    3  A    between atoms: C_9  and  C_11
REMARK    4  A    between atoms: C_17  and  O_18
REMARK    5  A    between atoms: O_18  and  C_19
REMARK    6  A    between atoms: C_19  and  C_20
REMARK                            x       y       z     vdW  Elec       q    Type
REMARK                         _______ _______ _______ _____ _____    ______ ____
ROOT
ATOM      1  C   UNL     1       1.175   2.785  21.913  0.00  0.00    +0.000 C 
ATOM      2  C   UNL     1       2.455   2.952  21.146  0.00  0.00    +0.000 A 
ATOM      3  C   UNL     1       3.408   2.008  21.189  0.00  0.00    +0.000 A 
ATOM      4  C   UNL     1       4.676   2.107  20.456  0.00  0.00    +0.000 A 
ATOM      5  O   UNL     1       5.499   1.204  20.510  0.00  0.00    +0.000 OA
ATOM      6  O   UNL     1       4.857   3.251  19.697  0.00  0.00    +0.000 OA
ATOM      7  C   UNL     1       3.906   4.308  19.646  0.00  0.00    +0.000 A 
ATOM      8  C   UNL     1       4.225   5.460  18.873  0.00  0.00    +0.000 A 
ATOM      9  C   UNL     1       3.285   6.505  18.819  0.00  0.00    +0.000 A 
ATOM     10  C   UNL     1       2.052   6.327  19.469  0.00  0.00    +0.000 A 
ATOM     11  C   UNL     1       1.757   5.185  20.223  0.00  0.00    +0.000 A 
ATOM     12  C   UNL     1       2.695   4.160  20.336  0.00  0.00    +0.000 A 
ENDROOT
BRANCH   8  13
ATOM     13  C   UNL     1       5.562   5.472  18.225  0.00  0.00    +0.000 C 
ATOM     14  O   UNL     1       6.493   5.997  18.836  0.00  0.00    +0.000 OA
BRANCH  13  15
ATOM     15  C   UNL     1       5.814   4.967  16.845  0.00  0.00    +0.000 A 
ATOM     16  C   UNL     1       4.826   4.360  16.064  0.00  0.00    +0.000 A 
ATOM     17  C   UNL     1       5.085   4.073  14.718  0.00  0.00    +0.000 A 
ATOM     18  C   UNL     1       6.333   4.365  14.161  0.00  0.00    +0.000 A 
ATOM     19  C   UNL     1       7.333   4.928  14.947  0.00  0.00    +0.000 A 
ATOM     20  C   UNL     1       7.077   5.225  16.285  0.00  0.00    +0.000 A 
ENDBRANCH  13  15
ENDBRANCH   8  13
BRANCH   9  21
ATOM     21  O   UNL     1       3.329   7.728  18.206  0.00  0.00    +0.000 OA
BRANCH  21  22
ATOM     22  C   UNL     1       2.173   8.320  17.626  0.00  0.00    +0.000 C 
BRANCH  22  23
ATOM     23  C   UNL     1       1.710   9.613  18.295  0.00  0.00    +0.000 C 
ATOM     24  N   UNL     1       2.166  10.779  17.754  0.00  0.00    +0.000 N 
ATOM     25  O   UNL     1       0.953   9.627  19.257  0.00  0.00    +0.000 OA
ATOM     26  H   UNL     1       2.818  10.786  16.983  0.00  0.00    +0.000 HD
ATOM     27  H   UNL     1       1.863  11.643  18.176  0.00  0.00    +0.000 HD
ENDBRANCH  22  23
ENDBRANCH  21  22
ENDBRANCH   9  21
TORSDOF 5
ENDMDL
MODEL 4
REMARK VINA RESULT:      -7.3      2.151      5.330
REMARK  Name = 
REMARK  6 active torsions:
REMARK  status: ('A' for Active; 'I' for Inactive)
REMARK    1  A    between atoms: C_1  and  C_2
REMARK    2  A    between atoms: C_8  and  C_9
REMARK    3  A    between atoms: C_9  and  C_11
REMARK    4  A    between atoms: C_17  and  O_18
REMARK    5  A    between atoms: O_18  and  C_19
REMARK    6  A    between atoms: C_19  and  C_20
REMARK                            x       y       z     vdW  Elec       q    Type
REMARK                         _______ _______ _______ _____ _____    ______ ____
ROOT
ATOM      1  C   UNL     1       6.627   4.068  14.405  0.00  0.00    +0.000 C 
ATOM      2  C   UNL     1       6.187   4.912  15.567  0.00  0.00    +0.000 A 
ATOM      3  C   UNL     1       6.929   5.950  15.980  0.00  0.00    +0.000 A 
ATOM      4  C   UNL     1       6.551   6.817  17.102  0.00  0.00    +0.000 A 
ATOM      5  O   UNL     1       7.253   7.768  17.420  0.00  0.00    +0.000 OA
ATOM      6  O   UNL     1       5.361   6.510  17.739  0.00  0.00    +0.000 OA
ATOM      7  C   UNL     1       4.552   5.396  17.380  0.00  0.00    +0.000 A 
ATOM      8  C   UNL     1       3.376   5.148  18.142  0.00  0.00    +0.000 A 
ATOM      9  C   UNL     1       2.573   4.049  17.786  0.00  0.00    +0.000 A 
ATOM     10  C   UNL     1       2.934   3.299  16.654  0.00  0.00    +0.000 A 
ATOM     11  C   UNL     1       4.094   3.561  15.916  0.00  0.00    +0.000 A 
ATOM     12  C   UNL     1       4.934   4.612  16.282  0.00  0.00    +0.000 A 
ENDROOT
BRANCH   8  13
ATOM     13  C   UNL     1       3.128   6.057  19.291  0.00  0.00    +0.000 C 
ATOM     14  O   UNL     1       3.567   5.726  20.392  0.00  0.00    +0.000 OA
BRANCH  13  15
ATOM     15  C   UNL     1       2.303   7.295  19.199  0.00  0.00    +0.000 A 
ATOM     16  C   UNL     1       1.685   7.883  20.307  0.00  0.00    +0.000 A 
ATOM     17  C   UNL     1       1.077   9.137  20.178  0.00  0.00    +0.000 A 
ATOM     18  C   UNL     1       1.062   9.792  18.944  0.00  0.00    +0.000 A 
ATOM     19  C   UNL     1       1.637   9.191  17.828  0.00  0.00    +0.000 A 
ATOM     20  C   UNL     1       2.252   7.945  17.954  0.00  0.00    +0.000 A 
ENDBRANCH  13  15
ENDBRANCH   8  13
BRANCH   9  21
ATOM     21  O   UNL     1       1.431   3.545  18.348  0.00  0.00    +0.000 OA
BRANCH  21  22
ATOM     22  C   UNL     1       1.451   2.404  19.195  0.00  0.00    +0.000 C 
BRANCH  22  23
ATOM     23  C   UNL     1       1.881   2.680  20.634  0.00  0.00    +0.000 C 
ATOM     24  N   UNL     1       3.219   2.626  20.895  0.00  0.00    +0.000 N 
ATOM     25  O   UNL     1       1.085   2.958  21.522  0.00  0.00    +0.000 OA
ATOM     26  H   UNL     1       3.887   2.365  20.184  0.00  0.00    +0.000 HD
ATOM     27  H   UNL     1       3.522   2.815  21.837  0.00  0.00    +0.000 HD
ENDBRANCH  22  23
ENDBRANCH  21  22
ENDBRANCH   9  21
TORSDOF 5
ENDMDL
MODEL 5
REMARK VINA RESULT:      -7.3      2.149      5.289
REMARK  Name = 
REMARK  6 active torsions:
REMARK  status: ('A' for Active; 'I' for Inactive)
REMARK    1  A    between atoms: C_1  and  C_2
REMARK    2  A    between atoms: C_8  and  C_9
REMARK    3  A    between atoms: C_9  and  C_11
REMARK    4  A    between atoms: C_17  and  O_18
REMARK    5  A    between atoms: O_18  and  C_19
REMARK    6  A    between atoms: C_19  and  C_20
REMARK                            x       y       z     vdW  Elec       q    Type
REMARK                         _______ _______ _______ _____ _____    ______ ____
ROOT
ATOM      1  C   UNL     1       7.067   4.480  14.567  0.00  0.00    +0.000 C 
ATOM      2  C   UNL     1       6.503   5.253  15.724  0.00  0.00    +0.000 A 
ATOM      3  C   UNL     1       7.163   6.303  16.235  0.00  0.00    +0.000 A 
ATOM      4  C   UNL     1       6.661   7.103  17.358  0.00  0.00    +0.000 A 
ATOM      5  O   UNL     1       7.292   8.068  17.767  0.00  0.00    +0.000 OA
ATOM      6  O   UNL     1       5.441   6.718  17.888  0.00  0.00    +0.000 OA
ATOM      7  C   UNL     1       4.714   5.587  17.423  0.00  0.00    +0.000 A 
ATOM      8  C   UNL     1       3.497   5.255  18.081  0.00  0.00    +0.000 A 
ATOM      9  C   UNL     1       2.774   4.140  17.620  0.00  0.00    +0.000 A 
ATOM     10  C   UNL     1       3.254   3.456  16.490  0.00  0.00    +0.000 A 
ATOM     11  C   UNL     1       4.453   3.800  15.855  0.00  0.00    +0.000 A 
ATOM     12  C   UNL     1       5.214   4.868  16.328  0.00  0.00    +0.000 A 
ENDROOT
BRANCH   8  13
ATOM     13  C   UNL     1       3.121   6.103  19.242  0.00  0.00    +0.000 C 
ATOM     14  O   UNL     1       3.336   5.660  20.371  0.00  0.00    +0.000 OA
BRANCH  13  15
ATOM     15  C   UNL     1       2.419   7.412  19.116  0.00  0.00    +0.000 A 
ATOM     16  C   UNL     1       2.264   8.078  17.896  0.00  0.00    +0.000 A 
ATOM     17  C   UNL     1       1.443   9.210  17.824  0.00  0.00    +0.000 A 
ATOM     18  C   UNL     1       0.800   9.691  18.968  0.00  0.00    +0.000 A 
ATOM     19  C   UNL     1       0.988   9.057  20.192  0.00  0.00    +0.000 A 
ATOM     20  C   UNL     1       1.798   7.924  20.267  0.00  0.00    +0.000 A 
ENDBRANCH  13  15
ENDBRANCH   8  13
BRANCH   9  21
ATOM     21  O   UNL     1       1.617   3.564  18.071  0.00  0.00    +0.000 OA
BRANCH  21  22
ATOM     22  C   UNL     1       1.624   2.531  19.047  0.00  0.00    +0.000 C 
BRANCH  22  23
ATOM     23  C   UNL     1       1.282   2.985  20.465  0.00  0.00    +0.000 C 
ATOM     24  N   UNL     1       0.575   4.146  20.582  0.00  0.00    +0.000 N 
ATOM     25  O   UNL     1       1.598   2.346  21.460  0.00  0.00    +0.000 OA
ATOM     26  H   UNL     1       0.335   4.704  19.775  0.00  0.00    +0.000 HD
ATOM     27  H   UNL     1       0.332   4.456  21.509  0.00  0.00    +0.000 HD
ENDBRANCH  22  23
ENDBRANCH  21  22
ENDBRANCH   9  21
TORSDOF 5
ENDMDL
MODEL 6
REMARK VINA RESULT:      -7.3      2.476      4.046
REMARK  Name = 
REMARK  6 active torsions:
REMARK  status: ('A' for Active; 'I' for Inactive)
REMARK    1  A    between atoms: C_1  and  C_2
REMARK    2  A    between atoms: C_8  and  C_9
REMARK    3  A    between atoms: C_9  and  C_11
REMARK    4  A    between atoms: C_17  and  O_18
REMARK    5  A    between atoms: O_18  and  C_19
REMARK    6  A    between atoms: C_19  and  C_20
REMARK                            x       y       z     vdW  Elec       q    Type
REMARK                         _______ _______ _______ _____ _____    ______ ____
ROOT
ATOM      1  C   UNL     1       0.753   2.928  20.462  0.00  0.00    +0.000 C 
ATOM      2  C   UNL     1       1.550   4.110  19.991  0.00  0.00    +0.000 A 
ATOM      3  C   UNL     1       1.401   5.312  20.567  0.00  0.00    +0.000 A 
ATOM      4  C   UNL     1       2.155   6.503  20.159  0.00  0.00    +0.000 A 
ATOM      5  O   UNL     1       1.999   7.569  20.738  0.00  0.00    +0.000 OA
ATOM      6  O   UNL     1       3.054   6.332  19.120  0.00  0.00    +0.000 OA
ATOM      7  C   UNL     1       3.225   5.095  18.437  0.00  0.00    +0.000 A 
ATOM      8  C   UNL     1       4.141   5.053  17.348  0.00  0.00    +0.000 A 
ATOM      9  C   UNL     1       4.315   3.830  16.673  0.00  0.00    +0.000 A 
ATOM     10  C   UNL     1       3.632   2.701  17.154  0.00  0.00    +0.000 A 
ATOM     11  C   UNL     1       2.738   2.763  18.229  0.00  0.00    +0.000 A 
ATOM     12  C   UNL     1       2.508   3.975  18.879  0.00  0.00    +0.000 A 
ENDROOT
BRANCH   8  13
ATOM     13  C   UNL     1       4.802   6.334  16.988  0.00  0.00    +0.000 C 
ATOM     14  O   UNL     1       4.238   7.062  16.171  0.00  0.00    +0.000 OA
BRANCH  13  15
ATOM     15  C   UNL     1       6.145   6.739  17.492  0.00  0.00    +0.000 A 
ATOM     16  C   UNL     1       6.744   7.960  17.168  0.00  0.00    +0.000 A 
ATOM     17  C   UNL     1       7.922   8.349  17.817  0.00  0.00    +0.000 A 
ATOM     18  C   UNL     1       8.514   7.513  18.767  0.00  0.00    +0.000 A 
ATOM     19  C   UNL     1       7.946   6.277  19.059  0.00  0.00    +0.000 A 
ATOM     20  C   UNL     1       6.768   5.889  18.422  0.00  0.00    +0.000 A 
ENDBRANCH  13  15
ENDBRANCH   8  13
BRANCH   9  21
ATOM     21  O   UNL     1       5.077   3.500  15.585  0.00  0.00    +0.000 OA
BRANCH  21  22
ATOM     22  C   UNL     1       6.470   3.779  15.531  0.00  0.00    +0.000 C 
BRANCH  22  23
ATOM     23  C   UNL     1       6.940   4.454  14.244  0.00  0.00    +0.000 C 
ATOM     24  N   UNL     1       7.789   5.513  14.383  0.00  0.00    +0.000 N 
ATOM     25  O   UNL     1       6.600   4.071  13.132  0.00  0.00    +0.000 OA
ATOM     26  H   UNL     1       8.053   5.865  15.292  0.00  0.00    +0.000 HD
ATOM     27  H   UNL     1       8.117   5.965  13.544  0.00  0.00    +0.000 HD
ENDBRANCH  22  23
ENDBRANCH  21  22
ENDBRANCH   9  21
TORSDOF 5
ENDMDL
MODEL 7
REMARK VINA RESULT:      -7.1      0.856      1.293
REMARK  Name = 
REMARK  6 active torsions:
REMARK  status: ('A' for Active; 'I' for Inactive)
REMARK    1  A    between atoms: C_1  and  C_2
REMARK    2  A    between atoms: C_8  and  C_9
REMARK    3  A    between atoms: C_9  and  C_11
REMARK    4  A    between atoms: C_17  and  O_18
REMARK    5  A    between atoms: O_18  and  C_19
REMARK    6  A    between atoms: C_19  and  C_20
REMARK                            x       y       z     vdW  Elec       q    Type
REMARK                         _______ _______ _______ _____ _____    ______ ____
ROOT
ATOM      1  C   UNL     1      -0.249   9.220  21.106  0.00  0.00    +0.000 C 
ATOM      2  C   UNL     1       0.809   8.823  20.118  0.00  0.00    +0.000 A 
ATOM      3  C   UNL     1       1.218   9.678  19.169  0.00  0.00    +0.000 A 
ATOM      4  C   UNL     1       2.253   9.354  18.180  0.00  0.00    +0.000 A 
ATOM      5  O   UNL     1       2.607  10.183  17.353  0.00  0.00    +0.000 OA
ATOM      6  O   UNL     1       2.808   8.088  18.267  0.00  0.00    +0.000 OA
ATOM      7  C   UNL     1       2.386   7.119  19.219  0.00  0.00    +0.000 A 
ATOM      8  C   UNL     1       2.991   5.831  19.178  0.00  0.00    +0.000 A 
ATOM      9  C   UNL     1       2.579   4.872  20.121  0.00  0.00    +0.000 A 
ATOM     10  C   UNL     1       1.645   5.258  21.098  0.00  0.00    +0.000 A 
ATOM     11  C   UNL     1       1.063   6.531  21.123  0.00  0.00    +0.000 A 
ATOM     12  C   UNL     1       1.416   7.480  20.165  0.00  0.00    +0.000 A 
ENDROOT
BRANCH   8  13
ATOM     13  C   UNL     1       3.983   5.601  18.096  0.00  0.00    +0.000 C 
ATOM     14  O   UNL     1       3.615   4.974  17.103  0.00  0.00    +0.000 OA
BRANCH  13  15
ATOM     15  C   UNL     1       5.414   6.007  18.189  0.00  0.00    +0.000 A 
ATOM     16  C   UNL     1       6.301   5.464  19.125  0.00  0.00    +0.000 A 
ATOM     17  C   UNL     1       7.667   5.760  19.039  0.00  0.00    +0.000 A 
ATOM     18  C   UNL     1       8.143   6.612  18.040  0.00  0.00    +0.000 A 
ATOM     19  C   UNL     1       7.259   7.189  17.135  0.00  0.00    +0.000 A 
ATOM     20  C   UNL     1       5.899   6.891  17.211  0.00  0.00    +0.000 A 
ENDBRANCH  13  15
ENDBRANCH   8  13
BRANCH   9  21
ATOM     21  O   UNL     1       2.941   3.564  20.297  0.00  0.00    +0.000 OA
BRANCH  21  22
ATOM     22  C   UNL     1       2.002   2.503  20.179  0.00  0.00    +0.000 C 
BRANCH  22  23
ATOM     23  C   UNL     1       1.492   2.252  18.762  0.00  0.00    +0.000 C 
ATOM     24  N   UNL     1       2.436   2.067  17.795  0.00  0.00    +0.000 N 
ATOM     25  O   UNL     1       0.300   2.195  18.487  0.00  0.00    +0.000 OA
ATOM     26  H   UNL     1       3.423   2.144  17.996  0.00  0.00    +0.000 HD
ATOM     27  H   UNL     1       2.118   1.890  16.855  0.00  0.00    +0.000 HD
ENDBRANCH  22  23
ENDBRANCH  21  22
ENDBRANCH   9  21
TORSDOF 5
ENDMDL
MODEL 8
REMARK VINA RESULT:      -7.0      2.124      5.122
REMARK  Name = 
REMARK  6 active torsions:
REMARK  status: ('A' for Active; 'I' for Inactive)
REMARK    1  A    between atoms: C_1  and  C_2
REMARK    2  A    between atoms: C_8  and  C_9
REMARK    3  A    between atoms: C_9  and  C_11
REMARK    4  A    between atoms: C_17  and  O_18
REMARK    5  A    between atoms: O_18  and  C_19
REMARK    6  A    between atoms: C_19  and  C_20
REMARK                            x       y       z     vdW  Elec       q    Type
REMARK                         _______ _______ _______ _____ _____    ______ ____
ROOT
ATOM      1  C   UNL     1       1.104   2.691  21.907  0.00  0.00    +0.000 C 
ATOM      2  C   UNL     1       2.102   2.888  20.803  0.00  0.00    +0.000 A 
ATOM      3  C   UNL     1       2.850   1.865  20.362  0.00  0.00    +0.000 A 
ATOM      4  C   UNL     1       3.835   1.990  19.282  0.00  0.00    +0.000 A 
ATOM      5  O   UNL     1       4.471   1.017  18.902  0.00  0.00    +0.000 OA
ATOM      6  O   UNL     1       3.969   3.248  18.718  0.00  0.00    +0.000 OA
ATOM      7  C   UNL     1       3.240   4.383  19.171  0.00  0.00    +0.000 A 
ATOM      8  C   UNL     1       3.501   5.637  18.550  0.00  0.00    +0.000 A 
ATOM      9  C   UNL     1       2.779   6.761  18.993  0.00  0.00    +0.000 A 
ATOM     10  C   UNL     1       1.789   6.573  19.972  0.00  0.00    +0.000 A 
ATOM     11  C   UNL     1       1.546   5.330  20.568  0.00  0.00    +0.000 A 
ATOM     12  C   UNL     1       2.287   4.213  20.184  0.00  0.00    +0.000 A 
ENDROOT
BRANCH   8  13
ATOM     13  C   UNL     1       4.562   5.653  17.510  0.00  0.00    +0.000 C 
ATOM     14  O   UNL     1       4.318   5.111  16.432  0.00  0.00    +0.000 OA
BRANCH  13  15
ATOM     15  C   UNL     1       5.928   6.207  17.732  0.00  0.00    +0.000 A 
ATOM     16  C   UNL     1       6.385   7.377  17.117  0.00  0.00    +0.000 A 
ATOM     17  C   UNL     1       7.608   7.933  17.508  0.00  0.00    +0.000 A 
ATOM     18  C   UNL     1       8.385   7.312  18.490  0.00  0.00    +0.000 A 
ATOM     19  C   UNL     1       7.955   6.124  19.072  0.00  0.00    +0.000 A 
ATOM     20  C   UNL     1       6.733   5.571  18.692  0.00  0.00    +0.000 A 
ENDBRANCH  13  15
ENDBRANCH   8  13
BRANCH   9  21
ATOM     21  O   UNL     1       2.842   8.078  18.624  0.00  0.00    +0.000 OA
BRANCH  21  22
ATOM     22  C   UNL     1       1.817   8.692  17.854  0.00  0.00    +0.000 C 
BRANCH  22  23
ATOM     23  C   UNL     1       1.361  10.057  18.365  0.00  0.00    +0.000 C 
ATOM     24  N   UNL     1       2.021  11.146  17.875  0.00  0.00    +0.000 N 
ATOM     25  O   UNL     1       0.439  10.193  19.159  0.00  0.00    +0.000 OA
ATOM     26  H   UNL     1       2.805  11.051  17.247  0.00  0.00    +0.000 HD
ATOM     27  H   UNL     1       1.727  12.056  18.194  0.00  0.00    +0.000 HD
ENDBRANCH  22  23
ENDBRANCH  21  22
ENDBRANCH   9  21
TORSDOF 5
ENDMDL
MODEL 9
REMARK VINA RESULT:      -6.9      2.016      2.407
REMARK  Name = 
REMARK  6 active torsions:
REMARK  status: ('A' for Active; 'I' for Inactive)
REMARK    1  A    between atoms: C_1  and  C_2
REMARK    2  A    between atoms: C_8  and  C_9
REMARK    3  A    between atoms: C_9  and  C_11
REMARK    4  A    between atoms: C_17  and  O_18
REMARK    5  A    between atoms: O_18  and  C_19
REMARK    6  A    between atoms: C_19  and  C_20
REMARK                            x       y       z     vdW  Elec       q    Type
REMARK                         _______ _______ _______ _____ _____    ______ ____
ROOT
ATOM      1  C   UNL     1       1.011   8.186  21.591  0.00  0.00    +0.000 C 
ATOM      2  C   UNL     1       1.590   7.692  20.296  0.00  0.00    +0.000 A 
ATOM      3  C   UNL     1       1.805   8.534  19.274  0.00  0.00    +0.000 A 
ATOM      4  C   UNL     1       2.375   8.116  17.989  0.00  0.00    +0.000 A 
ATOM      5  O   UNL     1       2.575   8.932  17.100  0.00  0.00    +0.000 OA
ATOM      6  O   UNL     1       2.690   6.773  17.866  0.00  0.00    +0.000 OA
ATOM      7  C   UNL     1       2.444   5.821  18.895  0.00  0.00    +0.000 A 
ATOM      8  C   UNL     1       2.761   4.458  18.635  0.00  0.00    +0.000 A 
ATOM      9  C   UNL     1       2.522   3.514  19.652  0.00  0.00    +0.000 A 
ATOM     10  C   UNL     1       2.053   3.977  20.893  0.00  0.00    +0.000 A 
ATOM     11  C   UNL     1       1.750   5.323  21.129  0.00  0.00    +0.000 A 
ATOM     12  C   UNL     1       1.927   6.268  20.119  0.00  0.00    +0.000 A 
ENDROOT
BRANCH   8  13
ATOM     13  C   UNL     1       3.277   4.145  17.277  0.00  0.00    +0.000 C 
ATOM     14  O   UNL     1       2.531   3.545  16.503  0.00  0.00    +0.000 OA
BRANCH  13  15
ATOM     15  C   UNL     1       4.671   4.436  16.837  0.00  0.00    +0.000 A 
ATOM     16  C   UNL     1       5.759   4.452  17.715  0.00  0.00    +0.000 A 
ATOM     17  C   UNL     1       7.059   4.557  17.207  0.00  0.00    +0.000 A 
ATOM     18  C   UNL     1       7.272   4.671  15.830  0.00  0.00    +0.000 A 
ATOM     19  C   UNL     1       6.190   4.700  14.957  0.00  0.00    +0.000 A 
ATOM     20  C   UNL     1       4.893   4.588  15.458  0.00  0.00    +0.000 A 
ENDBRANCH  13  15
ENDBRANCH   8  13
BRANCH   9  21
ATOM     21  O   UNL     1       2.682   2.156  19.679  0.00  0.00    +0.000 OA
BRANCH  21  22
ATOM     22  C   UNL     1       3.855   1.527  19.178  0.00  0.00    +0.000 C 
BRANCH  22  23
ATOM     23  C   UNL     1       4.899   1.179  20.237  0.00  0.00    +0.000 C 
ATOM     24  N   UNL     1       5.603   0.026  20.047  0.00  0.00    +0.000 N 
ATOM     25  O   UNL     1       5.124   1.893  21.206  0.00  0.00    +0.000 OA
ATOM     26  H   UNL     1       5.408  -0.592  19.273  0.00  0.00    +0.000 HD
ATOM     27  H   UNL     1       6.303  -0.214  20.731  0.00  0.00    +0.000 HD
ENDBRANCH  22  23
ENDBRANCH  21  22
ENDBRANCH   9  21
TORSDOF 5
ENDMDL
