MODEL 1
REMARK VINA RESULT:      -8.3      0.000      0.000
REMARK  Name = 
REMARK  10 active torsions:
REMARK  status: ('A' for Active; 'I' for Inactive)
REMARK    1  A    between atoms: C_1  and  C_2
REMARK    2  A    between atoms: C_2  and  C_3
REMARK    3  A    between atoms: N_5  and  C_6
REMARK    4  A    between atoms: C_6  and  C_7
REMARK    5  A    between atoms: C_10  and  C_11
REMARK    6  A    between atoms: C_24  and  C_25
REMARK    7  A    between atoms: C_25  and  C_26
REMARK    8  A    between atoms: C_27  and  C_28
REMARK    9  A    between atoms: C_28  and  C_29
REMARK   10  A    between atoms: C_29  and  O_31
REMARK                            x       y       z     vdW  Elec       q    Type
REMARK                         _______ _______ _______ _____ _____    ______ ____
ROOT
ATOM      1  C   UNL     1       2.307   6.685  19.591  0.00  0.00    +0.000 A 
ATOM      2  C   UNL     1       1.655   7.222  20.708  0.00  0.00    +0.000 A 
ATOM      3  C   UNL     1       1.102   8.500  20.659  0.00  0.00    +0.000 A 
ATOM      4  C   UNL     1       1.182   9.284  19.498  0.00  0.00    +0.000 A 
ATOM      5  C   UNL     1       1.746   8.710  18.351  0.00  0.00    +0.000 A 
ATOM      6  C   UNL     1       2.304   7.422  18.398  0.00  0.00    +0.000 A 
ENDROOT
BRANCH   4   7
ATOM      7  C   UNL     1       0.739  10.683  19.583  0.00  0.00    +0.000 A 
ATOM      8  N   UNL     1       0.288  11.252  20.687  0.00  0.00    +0.000 NA
ATOM      9  C   UNL     1       0.031  12.563  20.388  0.00  0.00    +0.000 A 
ATOM     10  C   UNL     1      -0.465  13.618  21.169  0.00  0.00    +0.000 A 
ATOM     11 CL   UNL     1      -0.803  13.268  22.806  0.00  0.00    +0.000 Cl
ATOM     12  C   UNL     1      -0.671  14.881  20.617  0.00  0.00    +0.000 A 
ATOM     13  C   UNL     1      -0.351  15.095  19.278  0.00  0.00    +0.000 A 
ATOM     14 CL   UNL     1      -0.613  16.657  18.597  0.00  0.00    +0.000 Cl
ATOM     15  C   UNL     1       0.174  14.077  18.464  0.00  0.00    +0.000 A 
ATOM     16  C   UNL     1       0.339  12.817  19.054  0.00  0.00    +0.000 A 
ATOM     17  N   UNL     1       0.787  11.610  18.569  0.00  0.00    +0.000 N 
ATOM     18  H   UNL     1       1.101  11.432  17.628  0.00  0.00    +0.000 HD
ENDBRANCH   4   7
BRANCH   1  19
ATOM     19  C   UNL     1       3.163   5.451  19.772  0.00  0.00    +0.000 C 
BRANCH  19  22
ATOM     20  C   UNL     1       6.380   5.539  18.330  0.00  0.00    +0.000 A 
ATOM     21  N   UNL     1       5.508   5.895  19.272  0.00  0.00    +0.000 NA
ATOM     22  N   UNL     1       4.361   5.267  18.954  0.00  0.00    +0.000 N 
ATOM     23  C   UNL     1       4.487   4.475  17.821  0.00  0.00    +0.000 A 
ATOM     24  C   UNL     1       5.825   4.579  17.443  0.00  0.00    +0.000 A 
BRANCH  20  26
ATOM     25  C   UNL     1       7.702   7.545  17.650  0.00  0.00    +0.000 C 
ATOM     26  C   UNL     1       7.737   6.163  18.291  0.00  0.00    +0.000 C 
ENDBRANCH  20  26
BRANCH  23  27
ATOM     27  C   UNL     1       3.420   3.693  17.091  0.00  0.00    +0.000 C 
ATOM     28  C   UNL     1       2.857   2.424  17.696  0.00  0.00    +0.000 C 
ENDBRANCH  23  27
BRANCH  24  29
ATOM     29  C   UNL     1       6.507   3.901  16.290  0.00  0.00    +0.000 C 
BRANCH  29  30
ATOM     30  C   UNL     1       6.457   4.646  14.969  0.00  0.00    +0.000 C 
ATOM     31  O   UNL     1       5.530   4.525  14.181  0.00  0.00    +0.000 OA
BRANCH  30  32
ATOM     32  O   UNL     1       7.541   5.395  14.671  0.00  0.00    +0.000 OA
ATOM     33  H   UNL     1       7.494   6.315  14.995  0.00  0.00    +0.000 HD
ENDBRANCH  30  32
ENDBRANCH  29  30
ENDBRANCH  24  29
ENDBRANCH  19  22
ENDBRANCH   1  19
TORSDOF 8
ENDMDL
MODEL 2
REMARK VINA RESULT:      -8.1      0.996      1.525
REMARK  Name = 
REMARK  10 active torsions:
REMARK  status: ('A' for Active; 'I' for Inactive)
REMARK    1  A    between atoms: C_1  and  C_2
REMARK    2  A    between atoms: C_2  and  C_3
REMARK    3  A    between atoms: N_5  and  C_6
REMARK    4  A    between atoms: C_6  and  C_7
REMARK    5  A    between atoms: C_10  and  C_11
REMARK    6  A    between atoms: C_24  and  C_25
REMARK    7  A    between atoms: C_25  and  C_26
REMARK    8  A    between atoms: C_27  and  C_28
REMARK    9  A    between atoms: C_28  and  C_29
REMARK   10  A    between atoms: C_29  and  O_31
REMARK                            x       y       z     vdW  Elec       q    Type
REMARK                         _______ _______ _______ _____ _____    ______ ____
ROOT
ATOM      1  C   UNL     1       2.255   6.841  19.562  0.00  0.00    +0.000 A 
ATOM      2  C   UNL     1       1.622   7.438  20.660  0.00  0.00    +0.000 A 
ATOM      3  C   UNL     1       1.143   8.744  20.578  0.00  0.00    +0.000 A 
ATOM      4  C   UNL     1       1.280   9.496  19.402  0.00  0.00    +0.000 A 
ATOM      5  C   UNL     1       1.823   8.868  18.274  0.00  0.00    +0.000 A 
ATOM      6  C   UNL     1       2.308   7.551  18.355  0.00  0.00    +0.000 A 
ENDROOT
BRANCH   4   7
ATOM      7  C   UNL     1       0.916  10.919  19.452  0.00  0.00    +0.000 A 
ATOM      8  N   UNL     1       1.665  11.894  18.968  0.00  0.00    +0.000 NA
ATOM      9  C   UNL     1       0.972  13.062  19.148  0.00  0.00    +0.000 A 
ATOM     10  C   UNL     1       1.289  14.392  18.833  0.00  0.00    +0.000 A 
ATOM     11 CL   UNL     1       2.787  14.662  18.060  0.00  0.00    +0.000 Cl
ATOM     12  C   UNL     1       0.413  15.429  19.149  0.00  0.00    +0.000 A 
ATOM     13  C   UNL     1      -0.801  15.127  19.760  0.00  0.00    +0.000 A 
ATOM     14 CL   UNL     1      -1.880  16.414  20.156  0.00  0.00    +0.000 Cl
ATOM     15  C   UNL     1      -1.174  13.808  20.070  0.00  0.00    +0.000 A 
ATOM     16  C   UNL     1      -0.251  12.800  19.759  0.00  0.00    +0.000 A 
ATOM     17  N   UNL     1      -0.262  11.437  19.938  0.00  0.00    +0.000 N 
ATOM     18  H   UNL     1      -1.009  10.902  20.353  0.00  0.00    +0.000 HD
ENDBRANCH   4   7
BRANCH   1  19
ATOM     19  C   UNL     1       3.038   5.565  19.780  0.00  0.00    +0.000 C 
BRANCH  19  22
ATOM     20  C   UNL     1       6.246   5.371  18.326  0.00  0.00    +0.000 A 
ATOM     21  N   UNL     1       5.413   5.796  19.275  0.00  0.00    +0.000 NA
ATOM     22  N   UNL     1       4.212   5.279  18.955  0.00  0.00    +0.000 N 
ATOM     23  C   UNL     1       4.261   4.489  17.815  0.00  0.00    +0.000 A 
ATOM     24  C   UNL     1       5.601   4.474  17.433  0.00  0.00    +0.000 A 
BRANCH  20  26
ATOM     25  C   UNL     1       7.730   7.302  17.782  0.00  0.00    +0.000 C 
ATOM     26  C   UNL     1       7.654   5.868  18.287  0.00  0.00    +0.000 C 
ENDBRANCH  20  26
BRANCH  23  27
ATOM     27  C   UNL     1       3.125   3.815  17.082  0.00  0.00    +0.000 C 
ATOM     28  C   UNL     1       2.591   2.483  17.564  0.00  0.00    +0.000 C 
ENDBRANCH  23  27
BRANCH  24  29
ATOM     29  C   UNL     1       6.215   3.747  16.272  0.00  0.00    +0.000 C 
BRANCH  29  30
ATOM     30  C   UNL     1       6.286   4.528  14.973  0.00  0.00    +0.000 C 
ATOM     31  O   UNL     1       5.426   4.447  14.109  0.00  0.00    +0.000 OA
BRANCH  30  32
ATOM     32  O   UNL     1       7.405   5.263  14.786  0.00  0.00    +0.000 OA
ATOM     33  H   UNL     1       8.220   4.735  14.689  0.00  0.00    +0.000 HD
ENDBRANCH  30  32
ENDBRANCH  29  30
ENDBRANCH  24  29
ENDBRANCH  19  22
ENDBRANCH   1  19
TORSDOF 8
ENDMDL
MODEL 3
REMARK VINA RESULT:      -8.0      1.065      1.925
REMARK  Name = 
REMARK  10 active torsions:
REMARK  status: ('A' for Active; 'I' for Inactive)
REMARK    1  A    between atoms: C_1  and  C_2
REMARK    2  A    between atoms: C_2  and  C_3
REMARK    3  A    between atoms: N_5  and  C_6
REMARK    4  A    between atoms: C_6  and  C_7
REMARK    5  A    between atoms: C_10  and  C_11
REMARK    6  A    between atoms: C_24  and  C_25
REMARK    7  A    between atoms: C_25  and  C_26
REMARK    8  A    between atoms: C_27  and  C_28
REMARK    9  A    between atoms: C_28  and  C_29
REMARK   10  A    between atoms: C_29  and  O_31
REMARK                            x       y       z     vdW  Elec       q    Type
REMARK                         _______ _______ _______ _____ _____    ______ ____
ROOT
ATOM      1  C   UNL     1       2.272   6.350  19.955  0.00  0.00    +0.000 A 
ATOM      2  C   UNL     1       1.507   6.634  21.093  0.00  0.00    +0.000 A 
ATOM      3  C   UNL     1       0.959   7.901  21.281  0.00  0.00    +0.000 A 
ATOM      4  C   UNL     1       1.156   8.925  20.342  0.00  0.00    +0.000 A 
ATOM      5  C   UNL     1       1.836   8.614  19.158  0.00  0.00    +0.000 A 
ATOM      6  C   UNL     1       2.390   7.337  18.967  0.00  0.00    +0.000 A 
ENDROOT
BRANCH   4   7
ATOM      7  C   UNL     1       0.703  10.277  20.697  0.00  0.00    +0.000 A 
ATOM      8  N   UNL     1       0.911  11.349  19.951  0.00  0.00    +0.000 NA
ATOM      9  C   UNL     1       0.297  12.400  20.579  0.00  0.00    +0.000 A 
ATOM     10  C   UNL     1       0.202  13.760  20.243  0.00  0.00    +0.000 A 
ATOM     11 CL   UNL     1       0.947  14.244  18.784  0.00  0.00    +0.000 Cl
ATOM     12  C   UNL     1      -0.466  14.656  21.074  0.00  0.00    +0.000 A 
ATOM     13  C   UNL     1      -1.067  14.182  22.238  0.00  0.00    +0.000 A 
ATOM     14 CL   UNL     1      -1.887  15.295  23.268  0.00  0.00    +0.000 Cl
ATOM     15  C   UNL     1      -1.023  12.825  22.602  0.00  0.00    +0.000 A 
ATOM     16  C   UNL     1      -0.317  11.964  21.750  0.00  0.00    +0.000 A 
ATOM     17  N   UNL     1      -0.047  10.617  21.799  0.00  0.00    +0.000 N 
ATOM     18  H   UNL     1      -0.348   9.980  22.520  0.00  0.00    +0.000 HD
ENDBRANCH   4   7
BRANCH   1  19
ATOM     19  C   UNL     1       3.108   5.089  19.937  0.00  0.00    +0.000 C 
BRANCH  19  22
ATOM     20  C   UNL     1       6.327   5.334  18.517  0.00  0.00    +0.000 A 
ATOM     21  N   UNL     1       5.465   5.544  19.512  0.00  0.00    +0.000 NA
ATOM     22  N   UNL     1       4.300   5.016  19.093  0.00  0.00    +0.000 N 
ATOM     23  C   UNL     1       4.403   4.432  17.838  0.00  0.00    +0.000 A 
ATOM     24  C   UNL     1       5.743   4.561  17.479  0.00  0.00    +0.000 A 
BRANCH  20  26
ATOM     25  C   UNL     1       7.760   7.295  17.941  0.00  0.00    +0.000 C 
ATOM     26  C   UNL     1       7.702   5.914  18.582  0.00  0.00    +0.000 C 
ENDBRANCH  20  26
BRANCH  23  27
ATOM     27  C   UNL     1       3.314   3.822  16.987  0.00  0.00    +0.000 C 
ATOM     28  C   UNL     1       2.605   2.564  17.442  0.00  0.00    +0.000 C 
ENDBRANCH  23  27
BRANCH  24  29
ATOM     29  C   UNL     1       6.406   4.077  16.221  0.00  0.00    +0.000 C 
BRANCH  29  30
ATOM     30  C   UNL     1       6.667   5.137  15.167  0.00  0.00    +0.000 C 
ATOM     31  O   UNL     1       7.764   5.297  14.653  0.00  0.00    +0.000 OA
BRANCH  30  32
ATOM     32  O   UNL     1       5.630   5.955  14.883  0.00  0.00    +0.000 OA
ATOM     33  H   UNL     1       5.605   6.265  13.957  0.00  0.00    +0.000 HD
ENDBRANCH  30  32
ENDBRANCH  29  30
ENDBRANCH  24  29
ENDBRANCH  19  22
ENDBRANCH   1  19
TORSDOF 8
ENDMDL
MODEL 4
REMARK VINA RESULT:      -7.8      5.770     10.552
REMARK  Name = 
REMARK  10 active torsions:
REMARK  status: ('A' for Active; 'I' for Inactive)
REMARK    1  A    between atoms: C_1  and  C_2
REMARK    2  A    between atoms: C_2  and  C_3
REMARK    3  A    between atoms: N_5  and  C_6
REMARK    4  A    between atoms: C_6  and  C_7
REMARK    5  A    between atoms: C_10  and  C_11
REMARK    6  A    between atoms: C_24  and  C_25
REMARK    7  A    between atoms: C_25  and  C_26
REMARK    8  A    between atoms: C_27  and  C_28
REMARK    9  A    between atoms: C_28  and  C_29
REMARK   10  A    between atoms: C_29  and  O_31
REMARK                            x       y       z     vdW  Elec       q    Type
REMARK                         _______ _______ _______ _____ _____    ______ ____
ROOT
ATOM      1  C   UNL     1      -0.469  11.001  19.640  0.00  0.00    +0.000 A 
ATOM      2  C   UNL     1      -0.164  10.638  18.322  0.00  0.00    +0.000 A 
ATOM      3  C   UNL     1       0.685   9.564  18.061  0.00  0.00    +0.000 A 
ATOM      4  C   UNL     1       1.256   8.818  19.104  0.00  0.00    +0.000 A 
ATOM      5  C   UNL     1       0.873   9.118  20.417  0.00  0.00    +0.000 A 
ATOM      6  C   UNL     1       0.019  10.202  20.682  0.00  0.00    +0.000 A 
ENDROOT
BRANCH   4   7
ATOM      7  C   UNL     1       2.278   7.822  18.754  0.00  0.00    +0.000 A 
ATOM      8  N   UNL     1       2.397   6.644  19.342  0.00  0.00    +0.000 NA
ATOM      9  C   UNL     1       3.416   5.981  18.711  0.00  0.00    +0.000 A 
ATOM     10  C   UNL     1       3.974   4.711  18.923  0.00  0.00    +0.000 A 
ATOM     11 CL   UNL     1       3.280   3.765  20.164  0.00  0.00    +0.000 Cl
ATOM     12  C   UNL     1       5.046   4.263  18.154  0.00  0.00    +0.000 A 
ATOM     13  C   UNL     1       5.545   5.085  17.145  0.00  0.00    +0.000 A 
ATOM     14 CL   UNL     1       6.875   4.531  16.199  0.00  0.00    +0.000 Cl
ATOM     15  C   UNL     1       5.001   6.353  16.877  0.00  0.00    +0.000 A 
ATOM     16  C   UNL     1       3.942   6.772  17.694  0.00  0.00    +0.000 A 
ATOM     17  N   UNL     1       3.202   7.930  17.742  0.00  0.00    +0.000 N 
ATOM     18  H   UNL     1       3.314   8.728  17.135  0.00  0.00    +0.000 HD
ENDBRANCH   4   7
BRANCH   1  19
ATOM     19  C   UNL     1      -1.118  12.344  19.892  0.00  0.00    +0.000 C 
BRANCH  19  22
ATOM     20  C   UNL     1      -4.299  12.733  21.365  0.00  0.00    +0.000 A 
ATOM     21  N   UNL     1      -2.969  12.792  21.415  0.00  0.00    +0.000 NA
ATOM     22  N   UNL     1      -2.548  12.418  20.193  0.00  0.00    +0.000 N 
ATOM     23  C   UNL     1      -3.600  12.144  19.329  0.00  0.00    +0.000 A 
ATOM     24  C   UNL     1      -4.756  12.421  20.057  0.00  0.00    +0.000 A 
BRANCH  20  26
ATOM     25  C   UNL     1      -4.261  12.801  23.859  0.00  0.00    +0.000 C 
ATOM     26  C   UNL     1      -5.106  12.956  22.602  0.00  0.00    +0.000 C 
ENDBRANCH  20  26
BRANCH  23  27
ATOM     27  C   UNL     1      -3.550  11.611  17.917  0.00  0.00    +0.000 C 
ATOM     28  C   UNL     1      -3.691  10.126  17.658  0.00  0.00    +0.000 C 
ENDBRANCH  23  27
BRANCH  24  29
ATOM     29  C   UNL     1      -6.180  12.316  19.590  0.00  0.00    +0.000 C 
BRANCH  29  30
ATOM     30  C   UNL     1      -6.841  10.967  19.801  0.00  0.00    +0.000 C 
ATOM     31  O   UNL     1      -7.040  10.498  20.912  0.00  0.00    +0.000 OA
BRANCH  30  32
ATOM     32  O   UNL     1      -7.128  10.268  18.680  0.00  0.00    +0.000 OA
ATOM     33  H   UNL     1      -8.080  10.096  18.548  0.00  0.00    +0.000 HD
ENDBRANCH  30  32
ENDBRANCH  29  30
ENDBRANCH  24  29
ENDBRANCH  19  22
ENDBRANCH   1  19
TORSDOF 8
ENDMDL
MODEL 5
REMARK VINA RESULT:      -7.8      1.837      2.715
REMARK  Name = 
REMARK  10 active torsions:
REMARK  status: ('A' for Active; 'I' for Inactive)
REMARK    1  A    between atoms: C_1  and  C_2
REMARK    2  A    between atoms: C_2  and  C_3
REMARK    3  A    between atoms: N_5  and  C_6
REMARK    4  A    between atoms: C_6  and  C_7
REMARK    5  A    between atoms: C_10  and  C_11
REMARK    6  A    between atoms: C_24  and  C_25
REMARK    7  A    between atoms: C_25  and  C_26
REMARK    8  A    between atoms: C_27  and  C_28
REMARK    9  A    between atoms: C_28  and  C_29
REMARK   10  A    between atoms: C_29  and  O_31
REMARK                            x       y       z     vdW  Elec       q    Type
REMARK                         _______ _______ _______ _____ _____    ______ ____
ROOT
ATOM      1  C   UNL     1       2.101   7.462  19.188  0.00  0.00    +0.000 A 
ATOM      2  C   UNL     1       1.811   8.710  18.622  0.00  0.00    +0.000 A 
ATOM      3  C   UNL     1       1.246   9.724  19.393  0.00  0.00    +0.000 A 
ATOM      4  C   UNL     1       0.952   9.527  20.751  0.00  0.00    +0.000 A 
ATOM      5  C   UNL     1       1.332   8.316  21.341  0.00  0.00    +0.000 A 
ATOM      6  C   UNL     1       1.900   7.291  20.565  0.00  0.00    +0.000 A 
ENDROOT
BRANCH   4   7
ATOM      7  C   UNL     1       0.194  10.577  21.447  0.00  0.00    +0.000 A 
ATOM      8  N   UNL     1       0.581  11.838  21.533  0.00  0.00    +0.000 NA
ATOM      9  C   UNL     1      -0.404  12.516  22.199  0.00  0.00    +0.000 A 
ATOM     10  C   UNL     1      -0.518  13.864  22.575  0.00  0.00    +0.000 A 
ATOM     11 CL   UNL     1       0.763  14.898  22.121  0.00  0.00    +0.000 Cl
ATOM     12  C   UNL     1      -1.627  14.316  23.287  0.00  0.00    +0.000 A 
ATOM     13  C   UNL     1      -2.642  13.416  23.602  0.00  0.00    +0.000 A 
ATOM     14 CL   UNL     1      -4.010  13.977  24.490  0.00  0.00    +0.000 Cl
ATOM     15  C   UNL     1      -2.586  12.064  23.224  0.00  0.00    +0.000 A 
ATOM     16  C   UNL     1      -1.440  11.648  22.533  0.00  0.00    +0.000 A 
ATOM     17  N   UNL     1      -1.036  10.428  22.042  0.00  0.00    +0.000 N 
ATOM     18  H   UNL     1      -1.555   9.566  22.105  0.00  0.00    +0.000 HD
ENDBRANCH   4   7
BRANCH   1  19
ATOM     19  C   UNL     1       2.405   6.300  18.269  0.00  0.00    +0.000 C 
BRANCH  19  22
ATOM     20  C   UNL     1       5.784   6.590  17.304  0.00  0.00    +0.000 A 
ATOM     21  N   UNL     1       4.675   7.086  17.850  0.00  0.00    +0.000 NA
ATOM     22  N   UNL     1       3.767   6.095  17.777  0.00  0.00    +0.000 N 
ATOM     23  C   UNL     1       4.287   4.939  17.212  0.00  0.00    +0.000 A 
ATOM     24  C   UNL     1       5.630   5.219  16.967  0.00  0.00    +0.000 A 
BRANCH  20  26
ATOM     25  C   UNL     1       7.993   7.315  18.212  0.00  0.00    +0.000 C 
ATOM     26  C   UNL     1       6.973   7.470  17.092  0.00  0.00    +0.000 C 
ENDBRANCH  20  26
BRANCH  23  27
ATOM     27  C   UNL     1       3.576   3.651  16.870  0.00  0.00    +0.000 C 
ATOM     28  C   UNL     1       3.592   2.490  17.842  0.00  0.00    +0.000 C 
ENDBRANCH  23  27
BRANCH  24  29
ATOM     29  C   UNL     1       6.666   4.303  16.383  0.00  0.00    +0.000 C 
BRANCH  29  30
ATOM     30  C   UNL     1       6.962   4.503  14.908  0.00  0.00    +0.000 C 
ATOM     31  O   UNL     1       7.796   5.301  14.507  0.00  0.00    +0.000 OA
BRANCH  30  32
ATOM     32  O   UNL     1       6.188   3.803  14.050  0.00  0.00    +0.000 OA
ATOM     33  H   UNL     1       5.268   4.124  13.986  0.00  0.00    +0.000 HD
ENDBRANCH  30  32
ENDBRANCH  29  30
ENDBRANCH  24  29
ENDBRANCH  19  22
ENDBRANCH   1  19
TORSDOF 8
ENDMDL
MODEL 6
REMARK VINA RESULT:      -7.7      0.949      1.042
REMARK  Name = 
REMARK  10 active torsions:
REMARK  status: ('A' for Active; 'I' for Inactive)
REMARK    1  A    between atoms: C_1  and  C_2
REMARK    2  A    between atoms: C_2  and  C_3
REMARK    3  A    between atoms: N_5  and  C_6
REMARK    4  A    between atoms: C_6  and  C_7
REMARK    5  A    between atoms: C_10  and  C_11
REMARK    6  A    between atoms: C_24  and  C_25
REMARK    7  A    between atoms: C_25  and  C_26
REMARK    8  A    between atoms: C_27  and  C_28
REMARK    9  A    between atoms: C_28  and  C_29
REMARK   10  A    between atoms: C_29  and  O_31
REMARK                            x       y       z     vdW  Elec       q    Type
REMARK                         _______ _______ _______ _____ _____    ______ ____
ROOT
ATOM      1  C   UNL     1       2.197   6.975  19.394  0.00  0.00    +0.000 A 
ATOM      2  C   UNL     1       1.616   7.640  20.481  0.00  0.00    +0.000 A 
ATOM      3  C   UNL     1       1.181   8.958  20.356  0.00  0.00    +0.000 A 
ATOM      4  C   UNL     1       1.311   9.654  19.144  0.00  0.00    +0.000 A 
ATOM      5  C   UNL     1       1.800   8.959  18.031  0.00  0.00    +0.000 A 
ATOM      6  C   UNL     1       2.241   7.631  18.156  0.00  0.00    +0.000 A 
ENDROOT
BRANCH   4   7
ATOM      7  C   UNL     1       0.998  11.091  19.143  0.00  0.00    +0.000 A 
ATOM      8  N   UNL     1      -0.134  11.603  19.594  0.00  0.00    +0.000 NA
ATOM      9  C   UNL     1      -0.032  12.964  19.480  0.00  0.00    +0.000 A 
ATOM     10  C   UNL     1      -0.930  13.996  19.797  0.00  0.00    +0.000 A 
ATOM     11 CL   UNL     1      -2.426  13.530  20.474  0.00  0.00    +0.000 Cl
ATOM     12  C   UNL     1      -0.600  15.328  19.557  0.00  0.00    +0.000 A 
ATOM     13  C   UNL     1       0.650  15.631  19.021  0.00  0.00    +0.000 A 
ATOM     14 CL   UNL     1       1.052  17.280  18.719  0.00  0.00    +0.000 Cl
ATOM     15  C   UNL     1       1.591  14.634  18.713  0.00  0.00    +0.000 A 
ATOM     16  C   UNL     1       1.207  13.307  18.946  0.00  0.00    +0.000 A 
ATOM     17  N   UNL     1       1.839  12.102  18.744  0.00  0.00    +0.000 N 
ATOM     18  H   UNL     1       2.767  11.978  18.369  0.00  0.00    +0.000 HD
ENDBRANCH   4   7
BRANCH   1  19
ATOM     19  C   UNL     1       2.941   5.682  19.646  0.00  0.00    +0.000 C 
BRANCH  19  22
ATOM     20  C   UNL     1       6.135   5.363  18.185  0.00  0.00    +0.000 A 
ATOM     21  N   UNL     1       5.316   5.846  19.118  0.00  0.00    +0.000 NA
ATOM     22  N   UNL     1       4.104   5.338  18.829  0.00  0.00    +0.000 N 
ATOM     23  C   UNL     1       4.131   4.496  17.725  0.00  0.00    +0.000 A 
ATOM     24  C   UNL     1       5.469   4.439  17.337  0.00  0.00    +0.000 A 
BRANCH  20  26
ATOM     25  C   UNL     1       8.213   5.825  19.488  0.00  0.00    +0.000 C 
ATOM     26  C   UNL     1       7.552   5.831  18.116  0.00  0.00    +0.000 C 
ENDBRANCH  20  26
BRANCH  23  27
ATOM     27  C   UNL     1       2.978   3.811  17.029  0.00  0.00    +0.000 C 
ATOM     28  C   UNL     1       2.403   2.528  17.591  0.00  0.00    +0.000 C 
ENDBRANCH  23  27
BRANCH  24  29
ATOM     29  C   UNL     1       6.062   3.649  16.206  0.00  0.00    +0.000 C 
BRANCH  29  30
ATOM     30  C   UNL     1       6.211   4.395  14.893  0.00  0.00    +0.000 C 
ATOM     31  O   UNL     1       5.402   4.293  13.983  0.00  0.00    +0.000 OA
BRANCH  30  32
ATOM     32  O   UNL     1       7.341   5.123  14.752  0.00  0.00    +0.000 OA
ATOM     33  H   UNL     1       8.154   4.589  14.670  0.00  0.00    +0.000 HD
ENDBRANCH  30  32
ENDBRANCH  29  30
ENDBRANCH  24  29
ENDBRANCH  19  22
ENDBRANCH   1  19
TORSDOF 8
ENDMDL
MODEL 7
REMARK VINA RESULT:      -7.7      2.653      4.123
REMARK  Name = 
REMARK  10 active torsions:
REMARK  status: ('A' for Active; 'I' for Inactive)
REMARK    1  A    between atoms: C_1  and  C_2
REMARK    2  A    between atoms: C_2  and  C_3
REMARK    3  A    between atoms: N_5  and  C_6
REMARK    4  A    between atoms: C_6  and  C_7
REMARK    5  A    between atoms: C_10  and  C_11
REMARK    6  A    between atoms: C_24  and  C_25
REMARK    7  A    between atoms: C_25  and  C_26
REMARK    8  A    between atoms: C_27  and  C_28
REMARK    9  A    between atoms: C_28  and  C_29
REMARK   10  A    between atoms: C_29  and  O_31
REMARK                            x       y       z     vdW  Elec       q    Type
REMARK                         _______ _______ _______ _____ _____    ______ ____
ROOT
ATOM      1  C   UNL     1       1.905   8.236  18.850  0.00  0.00    +0.000 A 
ATOM      2  C   UNL     1       1.745   8.110  20.236  0.00  0.00    +0.000 A 
ATOM      3  C   UNL     1       1.079   9.093  20.965  0.00  0.00    +0.000 A 
ATOM      4  C   UNL     1       0.554  10.233  20.337  0.00  0.00    +0.000 A 
ATOM      5  C   UNL     1       0.626  10.312  18.941  0.00  0.00    +0.000 A 
ATOM      6  C   UNL     1       1.298   9.322  18.204  0.00  0.00    +0.000 A 
ENDROOT
BRANCH   4   7
ATOM      7  C   UNL     1       0.029  11.307  21.194  0.00  0.00    +0.000 A 
ATOM      8  N   UNL     1       0.567  12.510  21.287  0.00  0.00    +0.000 NA
ATOM      9  C   UNL     1      -0.227  13.242  22.129  0.00  0.00    +0.000 A 
ATOM     10  C   UNL     1      -0.131  14.565  22.588  0.00  0.00    +0.000 A 
ATOM     11 CL   UNL     1       1.183  15.486  22.002  0.00  0.00    +0.000 Cl
ATOM     12  C   UNL     1      -1.066  15.081  23.482  0.00  0.00    +0.000 A 
ATOM     13  C   UNL     1      -2.122  14.274  23.899  0.00  0.00    +0.000 A 
ATOM     14 CL   UNL     1      -3.274  14.914  25.011  0.00  0.00    +0.000 Cl
ATOM     15  C   UNL     1      -2.276  12.953  23.446  0.00  0.00    +0.000 A 
ATOM     16  C   UNL     1      -1.297  12.467  22.569  0.00  0.00    +0.000 A 
ATOM     17  N   UNL     1      -1.112  11.248  21.959  0.00  0.00    +0.000 N 
ATOM     18  H   UNL     1      -1.712  10.443  22.054  0.00  0.00    +0.000 HD
ENDBRANCH   4   7
BRANCH   1  19
ATOM     19  C   UNL     1       2.894   7.333  18.148  0.00  0.00    +0.000 C 
BRANCH  19  22
ATOM     20  C   UNL     1       1.902   4.018  18.828  0.00  0.00    +0.000 A 
ATOM     21  N   UNL     1       1.687   5.333  18.846  0.00  0.00    +0.000 NA
ATOM     22  N   UNL     1       2.775   5.881  18.275  0.00  0.00    +0.000 N 
ATOM     23  C   UNL     1       3.691   4.927  17.853  0.00  0.00    +0.000 A 
ATOM     24  C   UNL     1       3.100   3.697  18.137  0.00  0.00    +0.000 A 
BRANCH  20  26
ATOM     25  C   UNL     1       1.266   2.951  20.993  0.00  0.00    +0.000 C 
ATOM     26  C   UNL     1       0.947   3.093  19.510  0.00  0.00    +0.000 C 
ENDBRANCH  20  26
BRANCH  23  27
ATOM     27  C   UNL     1       5.065   5.132  17.259  0.00  0.00    +0.000 C 
ATOM     28  C   UNL     1       5.285   4.956  15.771  0.00  0.00    +0.000 C 
ENDBRANCH  23  27
BRANCH  24  29
ATOM     29  C   UNL     1       3.654   2.328  17.861  0.00  0.00    +0.000 C 
BRANCH  29  30
ATOM     30  C   UNL     1       4.359   1.659  19.026  0.00  0.00    +0.000 C 
ATOM     31  O   UNL     1       4.753   2.282  20.002  0.00  0.00    +0.000 OA
BRANCH  30  32
ATOM     32  O   UNL     1       4.602   0.337  18.890  0.00  0.00    +0.000 OA
ATOM     33  H   UNL     1       4.863  -0.110  19.717  0.00  0.00    +0.000 HD
ENDBRANCH  30  32
ENDBRANCH  29  30
ENDBRANCH  24  29
ENDBRANCH  19  22
ENDBRANCH   1  19
TORSDOF 8
ENDMDL
MODEL 8
REMARK VINA RESULT:      -7.7      2.804      3.722
REMARK  Name = 
REMARK  10 active torsions:
REMARK  status: ('A' for Active; 'I' for Inactive)
REMARK    1  A    between atoms: C_1  and  C_2
REMARK    2  A    between atoms: C_2  and  C_3
REMARK    3  A    between atoms: N_5  and  C_6
REMARK    4  A    between atoms: C_6  and  C_7
REMARK    5  A    between atoms: C_10  and  C_11
REMARK    6  A    between atoms: C_24  and  C_25
REMARK    7  A    between atoms: C_25  and  C_26
REMARK    8  A    between atoms: C_27  and  C_28
REMARK    9  A    between atoms: C_28  and  C_29
REMARK   10  A    between atoms: C_29  and  O_31
REMARK                            x       y       z     vdW  Elec       q    Type
REMARK                         _______ _______ _______ _____ _____    ______ ____
ROOT
ATOM      1  C   UNL     1       2.014   7.770  18.811  0.00  0.00    +0.000 A 
ATOM      2  C   UNL     1       1.742   9.051  18.315  0.00  0.00    +0.000 A 
ATOM      3  C   UNL     1       1.225  10.040  19.150  0.00  0.00    +0.000 A 
ATOM      4  C   UNL     1       0.963   9.784  20.504  0.00  0.00    +0.000 A 
ATOM      5  C   UNL     1       1.327   8.535  21.024  0.00  0.00    +0.000 A 
ATOM      6  C   UNL     1       1.847   7.537  20.183  0.00  0.00    +0.000 A 
ENDROOT
BRANCH   4   7
ATOM      7  C   UNL     1       0.252  10.816  21.272  0.00  0.00    +0.000 A 
ATOM      8  N   UNL     1       0.650  12.073  21.370  0.00  0.00    +0.000 NA
ATOM      9  C   UNL     1      -0.291  12.736  22.111  0.00  0.00    +0.000 A 
ATOM     10  C   UNL     1      -0.376  14.073  22.530  0.00  0.00    +0.000 A 
ATOM     11 CL   UNL     1       0.881  15.115  22.030  0.00  0.00    +0.000 Cl
ATOM     12  C   UNL     1      -1.439  14.509  23.318  0.00  0.00    +0.000 A 
ATOM     13  C   UNL     1      -2.439  13.604  23.667  0.00  0.00    +0.000 A 
ATOM     14 CL   UNL     1      -3.750  14.145  24.648  0.00  0.00    +0.000 Cl
ATOM     15  C   UNL     1      -2.411  12.263  23.249  0.00  0.00    +0.000 A 
ATOM     16  C   UNL     1      -1.310  11.862  22.481  0.00  0.00    +0.000 A 
ATOM     17  N   UNL     1      -0.942  10.655  21.934  0.00  0.00    +0.000 N 
ATOM     18  H   UNL     1      -1.460   9.793  22.003  0.00  0.00    +0.000 HD
ENDBRANCH   4   7
BRANCH   1  19
ATOM     19  C   UNL     1       2.262   6.647  17.829  0.00  0.00    +0.000 C 
BRANCH  19  22
ATOM     20  C   UNL     1       5.139   4.700  18.440  0.00  0.00    +0.000 A 
ATOM     21  N   UNL     1       4.549   5.855  18.132  0.00  0.00    +0.000 NA
ATOM     22  N   UNL     1       3.228   5.596  18.150  0.00  0.00    +0.000 N 
ATOM     23  C   UNL     1       2.948   4.282  18.500  0.00  0.00    +0.000 A 
ATOM     24  C   UNL     1       4.186   3.701  18.770  0.00  0.00    +0.000 A 
BRANCH  20  26
ATOM     25  C   UNL     1       7.309   5.614  19.270  0.00  0.00    +0.000 C 
ATOM     26  C   UNL     1       6.627   4.582  18.381  0.00  0.00    +0.000 C 
ENDBRANCH  20  26
BRANCH  23  27
ATOM     27  C   UNL     1       1.613   3.578  18.541  0.00  0.00    +0.000 C 
ATOM     28  C   UNL     1       0.770   3.617  19.799  0.00  0.00    +0.000 C 
ENDBRANCH  23  27
BRANCH  24  29
ATOM     29  C   UNL     1       4.460   2.294  19.217  0.00  0.00    +0.000 C 
BRANCH  29  30
ATOM     30  C   UNL     1       4.515   2.082  20.718  0.00  0.00    +0.000 C 
ATOM     31  O   UNL     1       5.441   1.504  21.268  0.00  0.00    +0.000 OA
BRANCH  30  32
ATOM     32  O   UNL     1       3.433   2.498  21.414  0.00  0.00    +0.000 OA
ATOM     33  H   UNL     1       2.855   1.777  21.727  0.00  0.00    +0.000 HD
ENDBRANCH  30  32
ENDBRANCH  29  30
ENDBRANCH  24  29
ENDBRANCH  19  22
ENDBRANCH   1  19
TORSDOF 8
ENDMDL
MODEL 9
REMARK VINA RESULT:      -7.7      5.176      7.615
REMARK  Name = 
REMARK  10 active torsions:
REMARK  status: ('A' for Active; 'I' for Inactive)
REMARK    1  A    between atoms: C_1  and  C_2
REMARK    2  A    between atoms: C_2  and  C_3
REMARK    3  A    between atoms: N_5  and  C_6
REMARK    4  A    between atoms: C_6  and  C_7
REMARK    5  A    between atoms: C_10  and  C_11
REMARK    6  A    between atoms: C_24  and  C_25
REMARK    7  A    between atoms: C_25  and  C_26
REMARK    8  A    between atoms: C_27  and  C_28
REMARK    9  A    between atoms: C_28  and  C_29
REMARK   10  A    between atoms: C_29  and  O_31
REMARK                            x       y       z     vdW  Elec       q    Type
REMARK                         _______ _______ _______ _____ _____    ______ ____
ROOT
ATOM      1  C   UNL     1       7.186   5.988  17.796  0.00  0.00    +0.000 A 
ATOM      2  C   UNL     1       7.190   7.101  16.947  0.00  0.00    +0.000 A 
ATOM      3  C   UNL     1       7.835   8.278  17.324  0.00  0.00    +0.000 A 
ATOM      4  C   UNL     1       8.495   8.381  18.558  0.00  0.00    +0.000 A 
ATOM      5  C   UNL     1       8.576   7.238  19.363  0.00  0.00    +0.000 A 
ATOM      6  C   UNL     1       7.925   6.052  18.985  0.00  0.00    +0.000 A 
ENDROOT
BRANCH   4   7
ATOM      7  C   UNL     1       8.993   9.705  18.960  0.00  0.00    +0.000 A 
ATOM      8  N   UNL     1       9.510  10.588  18.124  0.00  0.00    +0.000 NA
ATOM      9  C   UNL     1       9.802  11.710  18.853  0.00  0.00    +0.000 A 
ATOM     10  C   UNL     1      10.369  12.940  18.485  0.00  0.00    +0.000 A 
ATOM     11 CL   UNL     1      10.762  13.141  16.836  0.00  0.00    +0.000 Cl
ATOM     12  C   UNL     1      10.597  13.934  19.435  0.00  0.00    +0.000 A 
ATOM     13  C   UNL     1      10.229  13.704  20.758  0.00  0.00    +0.000 A 
ATOM     14 CL   UNL     1      10.519  14.933  21.932  0.00  0.00    +0.000 Cl
ATOM     15  C   UNL     1       9.633  12.499  21.169  0.00  0.00    +0.000 A 
ATOM     16  C   UNL     1       9.448  11.517  20.186  0.00  0.00    +0.000 A 
ATOM     17  N   UNL     1       8.936  10.242  20.225  0.00  0.00    +0.000 N 
ATOM     18  H   UNL     1       8.576   9.775  21.042  0.00  0.00    +0.000 HD
ENDBRANCH   4   7
BRANCH   1  19
ATOM     19  C   UNL     1       6.222   4.858  17.508  0.00  0.00    +0.000 C 
BRANCH  19  22
ATOM     20  C   UNL     1       2.982   6.114  18.110  0.00  0.00    +0.000 A 
ATOM     21  N   UNL     1       4.297   6.281  17.974  0.00  0.00    +0.000 NA
ATOM     22  N   UNL     1       4.786   5.057  17.699  0.00  0.00    +0.000 N 
ATOM     23  C   UNL     1       3.790   4.092  17.623  0.00  0.00    +0.000 A 
ATOM     24  C   UNL     1       2.593   4.781  17.813  0.00  0.00    +0.000 A 
BRANCH  20  26
ATOM     25  C   UNL     1       2.035   7.328  20.075  0.00  0.00    +0.000 C 
ATOM     26  C   UNL     1       2.125   7.254  18.556  0.00  0.00    +0.000 C 
ENDBRANCH  20  26
BRANCH  23  27
ATOM     27  C   UNL     1       3.931   2.601  17.431  0.00  0.00    +0.000 C 
ATOM     28  C   UNL     1       3.793   1.664  18.612  0.00  0.00    +0.000 C 
ENDBRANCH  23  27
BRANCH  24  29
ATOM     29  C   UNL     1       1.201   4.219  17.804  0.00  0.00    +0.000 C 
BRANCH  29  30
ATOM     30  C   UNL     1       0.789   3.467  19.056  0.00  0.00    +0.000 C 
ATOM     31  O   UNL     1       0.979   3.908  20.180  0.00  0.00    +0.000 OA
BRANCH  30  32
ATOM     32  O   UNL     1       0.268   2.236  18.861  0.00  0.00    +0.000 OA
ATOM     33  H   UNL     1      -0.503   2.216  18.263  0.00  0.00    +0.000 HD
ENDBRANCH  30  32
ENDBRANCH  29  30
ENDBRANCH  24  29
ENDBRANCH  19  22
ENDBRANCH   1  19
TORSDOF 8
ENDMDL
