MODEL 1
REMARK VINA RESULT:      -7.3      0.000      0.000
REMARK  Name = 
REMARK  6 active torsions:
REMARK  status: ('A' for Active; 'I' for Inactive)
REMARK    1  A    between atoms: C_2  and  C_14
REMARK    2  A    between atoms: N_3  and  C_4
REMARK    3  A    between atoms: C_4  and  C_5
REMARK    4  A    between atoms: C_5  and  C_6
REMARK    5  A    between atoms: C_6  and  N_7
REMARK    6  A    between atoms: N_18  and  C_19
REMARK                            x       y       z     vdW  Elec       q    Type
REMARK                         _______ _______ _______ _____ _____    ______ ____
ROOT
ATOM      1  O   UNL     1       5.474   5.458  19.958  0.00  0.00    +0.000 OA
ATOM      2  C   UNL     1       6.122   4.654  19.305  0.00  0.00    +0.000 C 
ATOM      3  N   UNL     1       5.664   3.394  18.993  0.00  0.00    +0.000 N 
ATOM      4  H   UNL     1       6.158   2.828  18.315  0.00  0.00    +0.000 HD
ENDROOT
BRANCH   2   5
ATOM      5  C   UNL     1       7.475   4.972  18.673  0.00  0.00    +0.000 C 
ATOM      6  C   UNL     1       7.709   6.475  18.519  0.00  0.00    +0.000 C 
ATOM      7  C   UNL     1       7.171   6.767  17.141  0.00  0.00    +0.000 C 
ATOM      8  O   UNL     1       6.987   7.894  16.716  0.00  0.00    +0.000 OA
ATOM      9  N   UNL     1       6.969   5.555  16.495  0.00  0.00    +0.000 N 
ATOM     10  C   UNL     1       7.541   4.464  17.246  0.00  0.00    +0.000 C 
BRANCH   9  11
ATOM     11  C   UNL     1       6.467   5.355  15.148  0.00  0.00    +0.000 C 
ATOM     12  C   UNL     1       7.522   4.940  14.126  0.00  0.00    +0.000 C 
ATOM     13  C   UNL     1       6.710   4.420  12.953  0.00  0.00    +0.000 C 
ATOM     14  C   UNL     1       5.405   3.890  13.548  0.00  0.00    +0.000 C 
ATOM     15  C   UNL     1       5.401   4.276  15.026  0.00  0.00    +0.000 C 
ENDBRANCH   9  11
ENDBRANCH   2   5
BRANCH   3  16
ATOM     16  C   UNL     1       4.358   2.918  19.401  0.00  0.00    +0.000 C 
BRANCH  16  17
ATOM     17  C   UNL     1       3.349   2.990  18.263  0.00  0.00    +0.000 C 
BRANCH  17  18
ATOM     18  C   UNL     1       1.962   3.492  18.700  0.00  0.00    +0.000 C 
BRANCH  18  19
ATOM     19  N   UNL     1       1.829   4.951  18.898  0.00  0.00    +0.000 NA
ATOM     20  C   UNL     1       2.128   5.386  20.266  0.00  0.00    +0.000 C 
ATOM     21  C   UNL     1       1.343   6.652  20.642  0.00  0.00    +0.000 C 
ATOM     22  C   UNL     1       1.929   7.964  20.136  0.00  0.00    +0.000 C 
ATOM     23  C   UNL     1       2.074   8.043  18.623  0.00  0.00    +0.000 C 
ATOM     24  C   UNL     1       3.114   7.064  18.099  0.00  0.00    +0.000 C 
ATOM     25  C   UNL     1       2.587   5.650  17.844  0.00  0.00    +0.000 C 
ENDBRANCH  18  19
ENDBRANCH  17  18
ENDBRANCH  16  17
ENDBRANCH   3  16
TORSDOF 6
ENDMDL
MODEL 2
REMARK VINA RESULT:      -7.1      3.704      7.428
REMARK  Name = 
REMARK  6 active torsions:
REMARK  status: ('A' for Active; 'I' for Inactive)
REMARK    1  A    between atoms: C_2  and  C_14
REMARK    2  A    between atoms: N_3  and  C_4
REMARK    3  A    between atoms: C_4  and  C_5
REMARK    4  A    between atoms: C_5  and  C_6
REMARK    5  A    between atoms: C_6  and  N_7
REMARK    6  A    between atoms: N_18  and  C_19
REMARK                            x       y       z     vdW  Elec       q    Type
REMARK                         _______ _______ _______ _____ _____    ______ ____
ROOT
ATOM      1  O   UNL     1       5.977   5.877  18.794  0.00  0.00    +0.000 OA
ATOM      2  C   UNL     1       5.552   6.417  17.783  0.00  0.00    +0.000 C 
ATOM      3  N   UNL     1       6.353   7.120  16.913  0.00  0.00    +0.000 N 
ATOM      4  H   UNL     1       5.992   7.406  16.011  0.00  0.00    +0.000 HD
ENDROOT
BRANCH   2   5
ATOM      5  C   UNL     1       4.106   6.303  17.308  0.00  0.00    +0.000 C 
ATOM      6  C   UNL     1       3.243   7.476  17.776  0.00  0.00    +0.000 C 
ATOM      7  C   UNL     1       2.687   6.990  19.090  0.00  0.00    +0.000 C 
ATOM      8  O   UNL     1       2.108   7.712  19.884  0.00  0.00    +0.000 OA
ATOM      9  N   UNL     1       2.936   5.627  19.183  0.00  0.00    +0.000 N 
ATOM     10  C   UNL     1       3.423   5.102  17.930  0.00  0.00    +0.000 C 
BRANCH   9  11
ATOM     11  C   UNL     1       2.572   4.744  20.276  0.00  0.00    +0.000 C 
ATOM     12  C   UNL     1       1.118   4.281  20.266  0.00  0.00    +0.000 C 
ATOM     13  C   UNL     1       1.104   3.102  21.224  0.00  0.00    +0.000 C 
ATOM     14  C   UNL     1       2.509   2.502  21.170  0.00  0.00    +0.000 C 
ATOM     15  C   UNL     1       3.365   3.446  20.329  0.00  0.00    +0.000 C 
ENDBRANCH   9  11
ENDBRANCH   2   5
BRANCH   3  16
ATOM     16  C   UNL     1       7.780   7.267  17.113  0.00  0.00    +0.000 C 
BRANCH  16  17
ATOM     17  C   UNL     1       8.096   8.253  18.230  0.00  0.00    +0.000 C 
BRANCH  17  18
ATOM     18  C   UNL     1       8.120   9.720  17.768  0.00  0.00    +0.000 C 
BRANCH  18  19
ATOM     19  N   UNL     1       9.234  10.547  18.278  0.00  0.00    +0.000 NA
ATOM     20  C   UNL     1       9.222  11.923  17.772  0.00  0.00    +0.000 C 
ATOM     21  C   UNL     1      10.639  12.510  17.696  0.00  0.00    +0.000 C 
ATOM     22  C   UNL     1      11.206  13.037  19.009  0.00  0.00    +0.000 C 
ATOM     23  C   UNL     1      11.285  11.999  20.118  0.00  0.00    +0.000 C 
ATOM     24  C   UNL     1       9.905  11.552  20.579  0.00  0.00    +0.000 C 
ATOM     25  C   UNL     1       9.289  10.425  19.746  0.00  0.00    +0.000 C 
ENDBRANCH  18  19
ENDBRANCH  17  18
ENDBRANCH  16  17
ENDBRANCH   3  16
TORSDOF 6
ENDMDL
MODEL 3
REMARK VINA RESULT:      -7.0      4.471      7.320
REMARK  Name = 
REMARK  6 active torsions:
REMARK  status: ('A' for Active; 'I' for Inactive)
REMARK    1  A    between atoms: C_2  and  C_14
REMARK    2  A    between atoms: N_3  and  C_4
REMARK    3  A    between atoms: C_4  and  C_5
REMARK    4  A    between atoms: C_5  and  C_6
REMARK    5  A    between atoms: C_6  and  N_7
REMARK    6  A    between atoms: N_18  and  C_19
REMARK                            x       y       z     vdW  Elec       q    Type
REMARK                         _______ _______ _______ _____ _____    ______ ____
ROOT
ATOM      1  O   UNL     1       5.649   7.066  17.383  0.00  0.00    +0.000 OA
ATOM      2  C   UNL     1       6.763   6.618  17.612  0.00  0.00    +0.000 C 
ATOM      3  N   UNL     1       7.858   7.414  17.859  0.00  0.00    +0.000 N 
ATOM      4  H   UNL     1       8.716   7.003  18.205  0.00  0.00    +0.000 HD
ENDROOT
BRANCH   2   5
ATOM      5  C   UNL     1       7.064   5.127  17.746  0.00  0.00    +0.000 C 
ATOM      6  C   UNL     1       7.343   4.464  16.397  0.00  0.00    +0.000 C 
ATOM      7  C   UNL     1       5.981   3.991  15.958  0.00  0.00    +0.000 C 
ATOM      8  O   UNL     1       5.738   3.588  14.833  0.00  0.00    +0.000 OA
ATOM      9  N   UNL     1       5.124   4.084  17.047  0.00  0.00    +0.000 N 
ATOM     10  C   UNL     1       5.854   4.373  18.258  0.00  0.00    +0.000 C 
BRANCH   9  11
ATOM     11  C   UNL     1       3.717   3.731  17.085  0.00  0.00    +0.000 C 
ATOM     12  C   UNL     1       3.398   2.459  17.865  0.00  0.00    +0.000 C 
ATOM     13  C   UNL     1       1.897   2.536  18.091  0.00  0.00    +0.000 C 
ATOM     14  C   UNL     1       1.554   4.025  18.117  0.00  0.00    +0.000 C 
ATOM     15  C   UNL     1       2.821   4.783  17.724  0.00  0.00    +0.000 C 
ENDBRANCH   9  11
ENDBRANCH   2   5
BRANCH   3  16
ATOM     16  C   UNL     1       7.779   8.860  17.886  0.00  0.00    +0.000 C 
BRANCH  16  17
ATOM     17  C   UNL     1       8.957   9.477  18.629  0.00  0.00    +0.000 C 
BRANCH  17  18
ATOM     18  C   UNL     1       8.704  10.920  19.097  0.00  0.00    +0.000 C 
BRANCH  18  19
ATOM     19  N   UNL     1       9.372  11.985  18.320  0.00  0.00    +0.000 NA
ATOM     20  C   UNL     1       9.423  13.274  19.017  0.00  0.00    +0.000 C 
ATOM     21  C   UNL     1       9.431  14.451  18.030  0.00  0.00    +0.000 C 
ATOM     22  C   UNL     1      10.782  14.778  17.405  0.00  0.00    +0.000 C 
ATOM     23  C   UNL     1      11.407  13.627  16.629  0.00  0.00    +0.000 C 
ATOM     24  C   UNL     1      11.803  12.475  17.540  0.00  0.00    +0.000 C 
ATOM     25  C   UNL     1      10.674  11.486  17.842  0.00  0.00    +0.000 C 
ENDBRANCH  18  19
ENDBRANCH  17  18
ENDBRANCH  16  17
ENDBRANCH   3  16
TORSDOF 6
ENDMDL
MODEL 4
REMARK VINA RESULT:      -7.0      4.424      7.408
REMARK  Name = 
REMARK  6 active torsions:
REMARK  status: ('A' for Active; 'I' for Inactive)
REMARK    1  A    between atoms: C_2  and  C_14
REMARK    2  A    between atoms: N_3  and  C_4
REMARK    3  A    between atoms: C_4  and  C_5
REMARK    4  A    between atoms: C_5  and  C_6
REMARK    5  A    between atoms: C_6  and  N_7
REMARK    6  A    between atoms: N_18  and  C_19
REMARK                            x       y       z     vdW  Elec       q    Type
REMARK                         _______ _______ _______ _____ _____    ______ ____
ROOT
ATOM      1  O   UNL     1       7.860   5.315  17.781  0.00  0.00    +0.000 OA
ATOM      2  C   UNL     1       7.140   6.086  17.163  0.00  0.00    +0.000 C 
ATOM      3  N   UNL     1       7.245   7.454  17.260  0.00  0.00    +0.000 N 
ATOM      4  H   UNL     1       6.745   8.048  16.610  0.00  0.00    +0.000 HD
ENDROOT
BRANCH   2   5
ATOM      5  C   UNL     1       6.100   5.636  16.140  0.00  0.00    +0.000 C 
ATOM      6  C   UNL     1       4.808   6.450  16.224  0.00  0.00    +0.000 C 
ATOM      7  C   UNL     1       3.967   5.661  17.195  0.00  0.00    +0.000 C 
ATOM      8  O   UNL     1       2.936   6.083  17.689  0.00  0.00    +0.000 OA
ATOM      9  N   UNL     1       4.568   4.422  17.374  0.00  0.00    +0.000 N 
ATOM     10  C   UNL     1       5.636   4.221  16.424  0.00  0.00    +0.000 C 
BRANCH   9  11
ATOM     11  C   UNL     1       4.102   3.338  18.219  0.00  0.00    +0.000 C 
ATOM     12  C   UNL     1       3.828   3.730  19.668  0.00  0.00    +0.000 C 
ATOM     13  C   UNL     1       3.001   2.577  20.209  0.00  0.00    +0.000 C 
ATOM     14  C   UNL     1       2.254   1.997  19.006  0.00  0.00    +0.000 C 
ATOM     15  C   UNL     1       2.797   2.700  17.764  0.00  0.00    +0.000 C 
ENDBRANCH   9  11
ENDBRANCH   2   5
BRANCH   3  16
ATOM     16  C   UNL     1       8.237   8.102  18.094  0.00  0.00    +0.000 C 
BRANCH  16  17
ATOM     17  C   UNL     1       8.149   9.620  18.001  0.00  0.00    +0.000 C 
BRANCH  17  18
ATOM     18  C   UNL     1       9.294  10.349  18.725  0.00  0.00    +0.000 C 
BRANCH  18  19
ATOM     19  N   UNL     1       9.698  11.654  18.159  0.00  0.00    +0.000 NA
ATOM     20  C   UNL     1       9.290  12.799  18.978  0.00  0.00    +0.000 C 
ATOM     21  C   UNL     1       9.057  14.053  18.123  0.00  0.00    +0.000 C 
ATOM     22  C   UNL     1      10.310  14.826  17.731  0.00  0.00    +0.000 C 
ATOM     23  C   UNL     1      11.326  14.013  16.942  0.00  0.00    +0.000 C 
ATOM     24  C   UNL     1      11.944  12.905  17.783  0.00  0.00    +0.000 C 
ATOM     25  C   UNL     1      11.133  11.608  17.824  0.00  0.00    +0.000 C 
ENDBRANCH  18  19
ENDBRANCH  17  18
ENDBRANCH  16  17
ENDBRANCH   3  16
TORSDOF 6
ENDMDL
MODEL 5
REMARK VINA RESULT:      -7.0      4.922      7.522
REMARK  Name = 
REMARK  6 active torsions:
REMARK  status: ('A' for Active; 'I' for Inactive)
REMARK    1  A    between atoms: C_2  and  C_14
REMARK    2  A    between atoms: N_3  and  C_4
REMARK    3  A    between atoms: C_4  and  C_5
REMARK    4  A    between atoms: C_5  and  C_6
REMARK    5  A    between atoms: C_6  and  N_7
REMARK    6  A    between atoms: N_18  and  C_19
REMARK                            x       y       z     vdW  Elec       q    Type
REMARK                         _______ _______ _______ _____ _____    ______ ____
ROOT
ATOM      1  O   UNL     1       6.667   7.477  16.814  0.00  0.00    +0.000 OA
ATOM      2  C   UNL     1       7.399   7.066  17.702  0.00  0.00    +0.000 C 
ATOM      3  N   UNL     1       8.307   7.865  18.358  0.00  0.00    +0.000 N 
ATOM      4  H   UNL     1       8.770   7.527  19.193  0.00  0.00    +0.000 HD
ENDROOT
BRANCH   2   5
ATOM      5  C   UNL     1       7.338   5.646  18.260  0.00  0.00    +0.000 C 
ATOM      6  C   UNL     1       7.692   4.591  17.212  0.00  0.00    +0.000 C 
ATOM      7  C   UNL     1       6.354   4.245  16.608  0.00  0.00    +0.000 C 
ATOM      8  O   UNL     1       6.226   3.585  15.591  0.00  0.00    +0.000 OA
ATOM      9  N   UNL     1       5.366   4.784  17.420  0.00  0.00    +0.000 N 
ATOM     10  C   UNL     1       5.922   5.279  18.656  0.00  0.00    +0.000 C 
BRANCH   9  11
ATOM     11  C   UNL     1       3.930   4.694  17.226  0.00  0.00    +0.000 C 
ATOM     12  C   UNL     1       3.319   3.343  17.590  0.00  0.00    +0.000 C 
ATOM     13  C   UNL     1       1.830   3.630  17.686  0.00  0.00    +0.000 C 
ATOM     14  C   UNL     1       1.712   5.100  18.091  0.00  0.00    +0.000 C 
ATOM     15  C   UNL     1       3.120   5.690  18.045  0.00  0.00    +0.000 C 
ENDBRANCH   9  11
ENDBRANCH   2   5
BRANCH   3  16
ATOM     16  C   UNL     1       8.460   9.275  18.063  0.00  0.00    +0.000 C 
BRANCH  16  17
ATOM     17  C   UNL     1       9.083  10.033  19.228  0.00  0.00    +0.000 C 
BRANCH  17  18
ATOM     18  C   UNL     1      10.107  11.095  18.795  0.00  0.00    +0.000 C 
BRANCH  18  19
ATOM     19  N   UNL     1      10.051  12.387  19.513  0.00  0.00    +0.000 NA
ATOM     20  C   UNL     1      10.223  12.259  20.964  0.00  0.00    +0.000 C 
ATOM     21  C   UNL     1       9.488  13.375  21.721  0.00  0.00    +0.000 C 
ATOM     22  C   UNL     1      10.214  14.713  21.791  0.00  0.00    +0.000 C 
ATOM     23  C   UNL     1      10.533  15.322  20.433  0.00  0.00    +0.000 C 
ATOM     24  C   UNL     1      11.557  14.499  19.666  0.00  0.00    +0.000 C 
ATOM     25  C   UNL     1      10.968  13.339  18.861  0.00  0.00    +0.000 C 
ENDBRANCH  18  19
ENDBRANCH  17  18
ENDBRANCH  16  17
ENDBRANCH   3  16
TORSDOF 6
ENDMDL
MODEL 6
REMARK VINA RESULT:      -7.0      4.258      7.637
REMARK  Name = 
REMARK  6 active torsions:
REMARK  status: ('A' for Active; 'I' for Inactive)
REMARK    1  A    between atoms: C_2  and  C_14
REMARK    2  A    between atoms: N_3  and  C_4
REMARK    3  A    between atoms: C_4  and  C_5
REMARK    4  A    between atoms: C_5  and  C_6
REMARK    5  A    between atoms: C_6  and  N_7
REMARK    6  A    between atoms: N_18  and  C_19
REMARK                            x       y       z     vdW  Elec       q    Type
REMARK                         _______ _______ _______ _____ _____    ______ ____
ROOT
ATOM      1  O   UNL     1       6.359   5.831  18.623  0.00  0.00    +0.000 OA
ATOM      2  C   UNL     1       6.018   6.595  17.731  0.00  0.00    +0.000 C 
ATOM      3  N   UNL     1       6.786   7.659  17.318  0.00  0.00    +0.000 N 
ATOM      4  H   UNL     1       6.544   8.160  16.472  0.00  0.00    +0.000 HD
ENDROOT
BRANCH   2   5
ATOM      5  C   UNL     1       4.748   6.415  16.903  0.00  0.00    +0.000 C 
ATOM      6  C   UNL     1       3.663   7.427  17.270  0.00  0.00    +0.000 C 
ATOM      7  C   UNL     1       2.878   6.716  18.343  0.00  0.00    +0.000 C 
ATOM      8  O   UNL     1       2.046   7.266  19.043  0.00  0.00    +0.000 OA
ATOM      9  N   UNL     1       3.264   5.383  18.343  0.00  0.00    +0.000 N 
ATOM     10  C   UNL     1       4.091   5.081  17.199  0.00  0.00    +0.000 C 
BRANCH   9  11
ATOM     11  C   UNL     1       2.765   4.328  19.207  0.00  0.00    +0.000 C 
ATOM     12  C   UNL     1       2.535   4.745  20.657  0.00  0.00    +0.000 C 
ATOM     13  C   UNL     1       1.666   3.635  21.222  0.00  0.00    +0.000 C 
ATOM     14  C   UNL     1       0.874   3.078  20.039  0.00  0.00    +0.000 C 
ATOM     15  C   UNL     1       1.426   3.745  18.780  0.00  0.00    +0.000 C 
ENDBRANCH   9  11
ENDBRANCH   2   5
BRANCH   3  16
ATOM     16  C   UNL     1       8.081   7.955  17.895  0.00  0.00    +0.000 C 
BRANCH  16  17
ATOM     17  C   UNL     1       8.353   9.454  17.933  0.00  0.00    +0.000 C 
BRANCH  17  18
ATOM     18  C   UNL     1       9.086   9.914  19.205  0.00  0.00    +0.000 C 
BRANCH  18  19
ATOM     19  N   UNL     1       9.665  11.274  19.167  0.00  0.00    +0.000 NA
ATOM     20  C   UNL     1      10.365  11.647  20.401  0.00  0.00    +0.000 C 
ATOM     21  C   UNL     1      10.320  13.163  20.641  0.00  0.00    +0.000 C 
ATOM     22  C   UNL     1      11.336  13.986  19.859  0.00  0.00    +0.000 C 
ATOM     23  C   UNL     1      11.231  13.838  18.348  0.00  0.00    +0.000 C 
ATOM     24  C   UNL     1      11.603  12.438  17.885  0.00  0.00    +0.000 C 
ATOM     25  C   UNL     1      10.457  11.425  17.933  0.00  0.00    +0.000 C 
ENDBRANCH  18  19
ENDBRANCH  17  18
ENDBRANCH  16  17
ENDBRANCH   3  16
TORSDOF 6
ENDMDL
MODEL 7
REMARK VINA RESULT:      -7.0      2.669      5.450
REMARK  Name = 
REMARK  6 active torsions:
REMARK  status: ('A' for Active; 'I' for Inactive)
REMARK    1  A    between atoms: C_2  and  C_14
REMARK    2  A    between atoms: N_3  and  C_4
REMARK    3  A    between atoms: C_4  and  C_5
REMARK    4  A    between atoms: C_5  and  C_6
REMARK    5  A    between atoms: C_6  and  N_7
REMARK    6  A    between atoms: N_18  and  C_19
REMARK                            x       y       z     vdW  Elec       q    Type
REMARK                         _______ _______ _______ _____ _____    ______ ____
ROOT
ATOM      1  O   UNL     1       5.083   6.780  15.574  0.00  0.00    +0.000 OA
ATOM      2  C   UNL     1       4.999   6.373  16.723  0.00  0.00    +0.000 C 
ATOM      3  N   UNL     1       4.217   6.979  17.680  0.00  0.00    +0.000 N 
ATOM      4  H   UNL     1       4.047   6.515  18.564  0.00  0.00    +0.000 HD
ENDROOT
BRANCH   2   5
ATOM      5  C   UNL     1       5.669   5.094  17.219  0.00  0.00    +0.000 C 
ATOM      6  C   UNL     1       5.102   3.841  16.551  0.00  0.00    +0.000 C 
ATOM      7  C   UNL     1       3.987   3.432  17.479  0.00  0.00    +0.000 C 
ATOM      8  O   UNL     1       3.152   2.589  17.197  0.00  0.00    +0.000 OA
ATOM      9  N   UNL     1       4.122   4.155  18.657  0.00  0.00    +0.000 N 
ATOM     10  C   UNL     1       5.379   4.864  18.689  0.00  0.00    +0.000 C 
BRANCH   9  11
ATOM     11  C   UNL     1       3.273   4.081  19.831  0.00  0.00    +0.000 C 
ATOM     12  C   UNL     1       1.805   4.419  19.581  0.00  0.00    +0.000 C 
ATOM     13  C   UNL     1       1.093   3.890  20.814  0.00  0.00    +0.000 C 
ATOM     14  C   UNL     1       1.942   2.723  21.319  0.00  0.00    +0.000 C 
ATOM     15  C   UNL     1       3.221   2.708  20.486  0.00  0.00    +0.000 C 
ENDBRANCH   9  11
ENDBRANCH   2   5
BRANCH   3  16
ATOM     16  C   UNL     1       3.409   8.148  17.400  0.00  0.00    +0.000 C 
BRANCH  16  17
ATOM     17  C   UNL     1       2.040   8.061  18.061  0.00  0.00    +0.000 C 
BRANCH  17  18
ATOM     18  C   UNL     1       1.329   9.419  18.187  0.00  0.00    +0.000 C 
BRANCH  18  19
ATOM     19  N   UNL     1       0.621   9.668  19.461  0.00  0.00    +0.000 NA
ATOM     20  C   UNL     1       1.080   8.817  20.563  0.00  0.00    +0.000 C 
ATOM     21  C   UNL     1      -0.039   8.559  21.583  0.00  0.00    +0.000 C 
ATOM     22  C   UNL     1      -0.281   9.673  22.593  0.00  0.00    +0.000 C 
ATOM     23  C   UNL     1      -0.639  11.015  21.971  0.00  0.00    +0.000 C 
ATOM     24  C   UNL     1       0.524  11.608  21.189  0.00  0.00    +0.000 C 
ATOM     25  C   UNL     1       0.638  11.115  19.744  0.00  0.00    +0.000 C 
ENDBRANCH  18  19
ENDBRANCH  17  18
ENDBRANCH  16  17
ENDBRANCH   3  16
TORSDOF 6
ENDMDL
MODEL 8
REMARK VINA RESULT:      -6.9      1.507      2.122
REMARK  Name = 
REMARK  6 active torsions:
REMARK  status: ('A' for Active; 'I' for Inactive)
REMARK    1  A    between atoms: C_2  and  C_14
REMARK    2  A    between atoms: N_3  and  C_4
REMARK    3  A    between atoms: C_4  and  C_5
REMARK    4  A    between atoms: C_5  and  C_6
REMARK    5  A    between atoms: C_6  and  N_7
REMARK    6  A    between atoms: N_18  and  C_19
REMARK                            x       y       z     vdW  Elec       q    Type
REMARK                         _______ _______ _______ _____ _____    ______ ____
ROOT
ATOM      1  O   UNL     1       5.586   3.390  19.414  0.00  0.00    +0.000 OA
ATOM      2  C   UNL     1       5.341   4.293  18.627  0.00  0.00    +0.000 C 
ATOM      3  N   UNL     1       4.077   4.550  18.146  0.00  0.00    +0.000 N 
ATOM      4  H   UNL     1       3.894   5.403  17.633  0.00  0.00    +0.000 HD
ENDROOT
BRANCH   2   5
ATOM      5  C   UNL     1       6.380   5.306  18.151  0.00  0.00    +0.000 C 
ATOM      6  C   UNL     1       5.743   6.524  17.480  0.00  0.00    +0.000 C 
ATOM      7  C   UNL     1       5.692   6.127  16.027  0.00  0.00    +0.000 C 
ATOM      8  O   UNL     1       5.066   6.745  15.183  0.00  0.00    +0.000 OA
ATOM      9  N   UNL     1       6.479   4.995  15.864  0.00  0.00    +0.000 N 
ATOM     10  C   UNL     1       7.246   4.720  17.054  0.00  0.00    +0.000 C 
BRANCH   9  11
ATOM     11  C   UNL     1       6.724   4.271  14.630  0.00  0.00    +0.000 C 
ATOM     12  C   UNL     1       5.465   3.845  13.878  0.00  0.00    +0.000 C 
ATOM     13  C   UNL     1       5.971   3.491  12.490  0.00  0.00    +0.000 C 
ATOM     14  C   UNL     1       7.218   4.348  12.267  0.00  0.00    +0.000 C 
ATOM     15  C   UNL     1       7.521   5.047  13.591  0.00  0.00    +0.000 C 
ENDBRANCH   9  11
ENDBRANCH   2   5
BRANCH   3  16
ATOM     16  C   UNL     1       2.919   3.777  18.548  0.00  0.00    +0.000 C 
BRANCH  16  17
ATOM     17  C   UNL     1       1.794   4.669  19.058  0.00  0.00    +0.000 C 
BRANCH  17  18
ATOM     18  C   UNL     1       2.285   5.859  19.900  0.00  0.00    +0.000 C 
BRANCH  18  19
ATOM     19  N   UNL     1       1.680   7.172  19.589  0.00  0.00    +0.000 NA
ATOM     20  C   UNL     1       1.742   8.124  20.702  0.00  0.00    +0.000 C 
ATOM     21  C   UNL     1       0.574   9.120  20.661  0.00  0.00    +0.000 C 
ATOM     22  C   UNL     1       0.738  10.290  19.699  0.00  0.00    +0.000 C 
ATOM     23  C   UNL     1       0.940   9.883  18.247  0.00  0.00    +0.000 C 
ATOM     24  C   UNL     1       2.268   9.171  18.035  0.00  0.00    +0.000 C 
ATOM     25  C   UNL     1       2.237   7.666  18.316  0.00  0.00    +0.000 C 
ENDBRANCH  18  19
ENDBRANCH  17  18
ENDBRANCH  16  17
ENDBRANCH   3  16
TORSDOF 6
ENDMDL
MODEL 9
REMARK VINA RESULT:      -6.9      0.951      1.325
REMARK  Name = 
REMARK  6 active torsions:
REMARK  status: ('A' for Active; 'I' for Inactive)
REMARK    1  A    between atoms: C_2  and  C_14
REMARK    2  A    between atoms: N_3  and  C_4
REMARK    3  A    between atoms: C_4  and  C_5
REMARK    4  A    between atoms: C_5  and  C_6
REMARK    5  A    between atoms: C_6  and  N_7
REMARK    6  A    between atoms: N_18  and  C_19
REMARK                            x       y       z     vdW  Elec       q    Type
REMARK                         _______ _______ _______ _____ _____    ______ ____
ROOT
ATOM      1  O   UNL     1       5.587   4.514  19.871  0.00  0.00    +0.000 OA
ATOM      2  C   UNL     1       5.898   4.444  18.691  0.00  0.00    +0.000 C 
ATOM      3  N   UNL     1       5.280   3.598  17.799  0.00  0.00    +0.000 N 
ATOM      4  H   UNL     1       5.454   3.693  16.806  0.00  0.00    +0.000 HD
ENDROOT
BRANCH   2   5
ATOM      5  C   UNL     1       6.941   5.346  18.036  0.00  0.00    +0.000 C 
ATOM      6  C   UNL     1       6.323   6.600  17.417  0.00  0.00    +0.000 C 
ATOM      7  C   UNL     1       6.028   6.174  16.001  0.00  0.00    +0.000 C 
ATOM      8  O   UNL     1       5.343   6.825  15.231  0.00  0.00    +0.000 OA
ATOM      9  N   UNL     1       6.683   4.971  15.770  0.00  0.00    +0.000 N 
ATOM     10  C   UNL     1       7.587   4.657  16.850  0.00  0.00    +0.000 C 
BRANCH   9  11
ATOM     11  C   UNL     1       6.684   4.198  14.542  0.00  0.00    +0.000 C 
ATOM     12  C   UNL     1       5.302   3.937  13.950  0.00  0.00    +0.000 C 
ATOM     13  C   UNL     1       5.592   3.491  12.527  0.00  0.00    +0.000 C 
ATOM     14  C   UNL     1       6.910   4.163  12.138  0.00  0.00    +0.000 C 
ATOM     15  C   UNL     1       7.455   4.837  13.396  0.00  0.00    +0.000 C 
ENDBRANCH   9  11
ENDBRANCH   2   5
BRANCH   3  16
ATOM     16  C   UNL     1       4.188   2.726  18.182  0.00  0.00    +0.000 C 
BRANCH  16  17
ATOM     17  C   UNL     1       2.909   3.055  17.424  0.00  0.00    +0.000 C 
BRANCH  17  18
ATOM     18  C   UNL     1       1.729   3.427  18.339  0.00  0.00    +0.000 C 
BRANCH  18  19
ATOM     19  N   UNL     1       1.662   4.837  18.776  0.00  0.00    +0.000 NA
ATOM     20  C   UNL     1       2.077   5.039  20.168  0.00  0.00    +0.000 C 
ATOM     21  C   UNL     1       1.367   6.246  20.801  0.00  0.00    +0.000 C 
ATOM     22  C   UNL     1       1.959   7.609  20.465  0.00  0.00    +0.000 C 
ATOM     23  C   UNL     1       1.994   7.927  18.978  0.00  0.00    +0.000 C 
ATOM     24  C   UNL     1       2.958   7.022  18.224  0.00  0.00    +0.000 C 
ATOM     25  C   UNL     1       2.364   5.680  17.791  0.00  0.00    +0.000 C 
ENDBRANCH  18  19
ENDBRANCH  17  18
ENDBRANCH  16  17
ENDBRANCH   3  16
TORSDOF 6
ENDMDL
