MODEL 1
REMARK VINA RESULT:      -7.1      0.000      0.000
REMARK  Name = 
REMARK  5 active torsions:
REMARK  status: ('A' for Active; 'I' for Inactive)
REMARK    1  A    between atoms: C_1  and  N_2
REMARK    2  A    between atoms: C_6  and  C_7
REMARK    3  A    between atoms: N_9  and  C_10
REMARK    4  A    between atoms: C_10  and  C_11
REMARK    5  A    between atoms: C_15  and  C_16
REMARK                            x       y       z     vdW  Elec       q    Type
REMARK                         _______ _______ _______ _____ _____    ______ ____
ROOT
ATOM      1  C   UNL     1       2.570   6.797  19.534  0.00  0.00    +0.000 C 
ENDROOT
BRANCH   1   2
ATOM      2  C   UNL     1       2.398   5.316  19.788  0.00  0.00    +0.000 A 
ATOM      3  C   UNL     1       1.789   4.878  20.959  0.00  0.00    +0.000 A 
ATOM      4  C   UNL     1       1.669   3.513  21.187  0.00  0.00    +0.000 A 
ATOM      5  C   UNL     1       2.143   2.615  20.236  0.00  0.00    +0.000 A 
ATOM      6  C   UNL     1       2.725   3.107  19.066  0.00  0.00    +0.000 A 
ATOM      7  N   UNL     1       2.851   4.452  18.838  0.00  0.00    +0.000 NA
BRANCH   6   8
ATOM      8  C   UNL     1       3.242   2.124  18.019  0.00  0.00    +0.000 C 
ATOM      9  F   UNL     1       2.291   1.759  17.105  0.00  0.00    +0.000 F 
ATOM     10  F   UNL     1       4.276   2.618  17.281  0.00  0.00    +0.000 F 
ATOM     11  F   UNL     1       3.688   0.953  18.557  0.00  0.00    +0.000 F 
ENDBRANCH   6   8
ENDBRANCH   1   2
BRANCH   1  14
ATOM     12  C   UNL     1       1.311   8.832  20.226  0.00  0.00    +0.000 C 
ATOM     13  O   UNL     1       1.367   9.330  19.106  0.00  0.00    +0.000 OA
ATOM     14  N   UNL     1       1.879   7.611  20.509  0.00  0.00    +0.000 N 
ATOM     15  H   UNL     1       1.936   7.293  21.464  0.00  0.00    +0.000 HD
BRANCH  12  21
ATOM     16  C   UNL     1      -0.921  11.031  20.111  0.00  0.00    +0.000 C 
ATOM     17  N   UNL     1      -0.340  10.430  21.288  0.00  0.00    +0.000 N 
ATOM     18  C   UNL     1      -0.709  10.746  22.567  0.00  0.00    +0.000 A 
ATOM     19  N   UNL     1      -0.043  10.042  23.449  0.00  0.00    +0.000 NA
ATOM     20  C   UNL     1       0.786   9.246  22.712  0.00  0.00    +0.000 A 
ATOM     21  C   UNL     1       0.642   9.461  21.347  0.00  0.00    +0.000 A 
ENDBRANCH  12  21
ENDBRANCH   1  14
TORSDOF 4
ENDMDL
MODEL 2
REMARK VINA RESULT:      -7.1      4.793      7.916
REMARK  Name = 
REMARK  5 active torsions:
REMARK  status: ('A' for Active; 'I' for Inactive)
REMARK    1  A    between atoms: C_1  and  N_2
REMARK    2  A    between atoms: C_6  and  C_7
REMARK    3  A    between atoms: N_9  and  C_10
REMARK    4  A    between atoms: C_10  and  C_11
REMARK    5  A    between atoms: C_15  and  C_16
REMARK                            x       y       z     vdW  Elec       q    Type
REMARK                         _______ _______ _______ _____ _____    ______ ____
ROOT
ATOM      1  C   UNL     1       3.035   5.760  19.519  0.00  0.00    +0.000 C 
ENDROOT
BRANCH   1   2
ATOM      2  C   UNL     1       2.324   7.093  19.466  0.00  0.00    +0.000 A 
ATOM      3  C   UNL     1       2.343   7.844  18.295  0.00  0.00    +0.000 A 
ATOM      4  C   UNL     1       1.709   9.080  18.277  0.00  0.00    +0.000 A 
ATOM      5  C   UNL     1       1.057   9.533  19.420  0.00  0.00    +0.000 A 
ATOM      6  C   UNL     1       1.047   8.729  20.562  0.00  0.00    +0.000 A 
ATOM      7  N   UNL     1       1.675   7.512  20.587  0.00  0.00    +0.000 NA
BRANCH   6   8
ATOM      8  C   UNL     1       0.329   9.222  21.816  0.00  0.00    +0.000 C 
ATOM      9  F   UNL     1      -0.167  10.491  21.690  0.00  0.00    +0.000 F 
ATOM     10  F   UNL     1      -0.742   8.451  22.159  0.00  0.00    +0.000 F 
ATOM     11  F   UNL     1       1.135   9.261  22.915  0.00  0.00    +0.000 F 
ENDBRANCH   6   8
ENDBRANCH   1   2
BRANCH   1  14
ATOM     12  C   UNL     1       5.042   4.823  18.378  0.00  0.00    +0.000 C 
ATOM     13  O   UNL     1       5.500   4.359  19.417  0.00  0.00    +0.000 OA
ATOM     14  N   UNL     1       3.857   5.521  18.353  0.00  0.00    +0.000 N 
ATOM     15  H   UNL     1       3.577   6.005  17.514  0.00  0.00    +0.000 HD
BRANCH  12  21
ATOM     16  C   UNL     1       7.373   6.567  17.212  0.00  0.00    +0.000 C 
ATOM     17  N   UNL     1       6.710   5.451  16.579  0.00  0.00    +0.000 N 
ATOM     18  C   UNL     1       7.031   4.978  15.337  0.00  0.00    +0.000 A 
ATOM     19  N   UNL     1       6.293   3.946  15.008  0.00  0.00    +0.000 NA
ATOM     20  C   UNL     1       5.466   3.749  16.078  0.00  0.00    +0.000 A 
ATOM     21  C   UNL     1       5.684   4.678  17.087  0.00  0.00    +0.000 A 
ENDBRANCH  12  21
ENDBRANCH   1  14
TORSDOF 4
ENDMDL
MODEL 3
REMARK VINA RESULT:      -7.1      4.406      6.178
REMARK  Name = 
REMARK  5 active torsions:
REMARK  status: ('A' for Active; 'I' for Inactive)
REMARK    1  A    between atoms: C_1  and  N_2
REMARK    2  A    between atoms: C_6  and  C_7
REMARK    3  A    between atoms: N_9  and  C_10
REMARK    4  A    between atoms: C_10  and  C_11
REMARK    5  A    between atoms: C_15  and  C_16
REMARK                            x       y       z     vdW  Elec       q    Type
REMARK                         _______ _______ _______ _____ _____    ______ ____
ROOT
ATOM      1  C   UNL     1       3.536   6.615  17.823  0.00  0.00    +0.000 C 
ENDROOT
BRANCH   1   2
ATOM      2  C   UNL     1       4.872   6.287  17.196  0.00  0.00    +0.000 A 
ATOM      3  C   UNL     1       6.044   6.777  17.760  0.00  0.00    +0.000 A 
ATOM      4  C   UNL     1       7.259   6.489  17.150  0.00  0.00    +0.000 A 
ATOM      5  C   UNL     1       7.279   5.705  16.000  0.00  0.00    +0.000 A 
ATOM      6  C   UNL     1       6.075   5.218  15.487  0.00  0.00    +0.000 A 
ATOM      7  N   UNL     1       4.875   5.503  16.082  0.00  0.00    +0.000 NA
BRANCH   6   8
ATOM      8  C   UNL     1       6.095   4.354  14.229  0.00  0.00    +0.000 C 
ATOM      9  F   UNL     1       6.422   3.048  14.476  0.00  0.00    +0.000 F 
ATOM     10  F   UNL     1       4.892   4.308  13.589  0.00  0.00    +0.000 F 
ATOM     11  F   UNL     1       7.000   4.779  13.302  0.00  0.00    +0.000 F 
ENDBRANCH   6   8
ENDBRANCH   1   2
BRANCH   1  14
ATOM     12  C   UNL     1       2.458   4.557  18.722  0.00  0.00    +0.000 C 
ATOM     13  O   UNL     1       2.028   4.220  17.623  0.00  0.00    +0.000 OA
ATOM     14  N   UNL     1       3.189   5.709  18.897  0.00  0.00    +0.000 N 
ATOM     15  H   UNL     1       3.411   6.028  19.827  0.00  0.00    +0.000 HD
BRANCH  12  21
ATOM     16  C   UNL     1       4.383   2.401  19.939  0.00  0.00    +0.000 C 
ATOM     17  N   UNL     1       3.107   2.833  20.460  0.00  0.00    +0.000 N 
ATOM     18  C   UNL     1       2.548   2.346  21.609  0.00  0.00    +0.000 A 
ATOM     19  N   UNL     1       1.399   2.921  21.867  0.00  0.00    +0.000 NA
ATOM     20  C   UNL     1       1.211   3.809  20.846  0.00  0.00    +0.000 A 
ATOM     21  C   UNL     1       2.255   3.782  19.930  0.00  0.00    +0.000 A 
ENDBRANCH  12  21
ENDBRANCH   1  14
TORSDOF 4
ENDMDL
MODEL 4
REMARK VINA RESULT:      -7.0      4.162      7.319
REMARK  Name = 
REMARK  5 active torsions:
REMARK  status: ('A' for Active; 'I' for Inactive)
REMARK    1  A    between atoms: C_1  and  N_2
REMARK    2  A    between atoms: C_6  and  C_7
REMARK    3  A    between atoms: N_9  and  C_10
REMARK    4  A    between atoms: C_10  and  C_11
REMARK    5  A    between atoms: C_15  and  C_16
REMARK                            x       y       z     vdW  Elec       q    Type
REMARK                         _______ _______ _______ _____ _____    ______ ____
ROOT
ATOM      1  C   UNL     1       2.745   8.029  18.234  0.00  0.00    +0.000 C 
ENDROOT
BRANCH   1   2
ATOM      2  C   UNL     1       1.597   8.833  18.804  0.00  0.00    +0.000 A 
ATOM      3  C   UNL     1       0.800   9.599  17.962  0.00  0.00    +0.000 A 
ATOM      4  C   UNL     1      -0.230  10.354  18.510  0.00  0.00    +0.000 A 
ATOM      5  C   UNL     1      -0.452  10.314  19.883  0.00  0.00    +0.000 A 
ATOM      6  C   UNL     1       0.363   9.509  20.682  0.00  0.00    +0.000 A 
ATOM      7  N   UNL     1       1.383   8.767  20.147  0.00  0.00    +0.000 NA
BRANCH   6   8
ATOM      8  C   UNL     1       0.118   9.461  22.188  0.00  0.00    +0.000 C 
ATOM      9  F   UNL     1      -0.272  10.663  22.711  0.00  0.00    +0.000 F 
ATOM     10  F   UNL     1      -0.861   8.581  22.545  0.00  0.00    +0.000 F 
ATOM     11  F   UNL     1       1.225   9.103  22.899  0.00  0.00    +0.000 F 
ENDBRANCH   6   8
ENDBRANCH   1   2
BRANCH   1  14
ATOM     12  C   UNL     1       3.093   5.611  18.723  0.00  0.00    +0.000 C 
ATOM     13  O   UNL     1       4.045   5.829  19.467  0.00  0.00    +0.000 OA
ATOM     14  N   UNL     1       2.420   6.627  18.084  0.00  0.00    +0.000 N 
ATOM     15  H   UNL     1       1.735   6.410  17.378  0.00  0.00    +0.000 HD
BRANCH  12  21
ATOM     16  C   UNL     1       0.977   4.020  20.402  0.00  0.00    +0.000 C 
ATOM     17  N   UNL     1       1.647   3.588  19.198  0.00  0.00    +0.000 N 
ATOM     18  C   UNL     1       1.432   2.379  18.596  0.00  0.00    +0.000 A 
ATOM     19  N   UNL     1       2.150   2.246  17.508  0.00  0.00    +0.000 NA
ATOM     20  C   UNL     1       2.855   3.412  17.407  0.00  0.00    +0.000 A 
ATOM     21  C   UNL     1       2.579   4.284  18.452  0.00  0.00    +0.000 A 
ENDBRANCH  12  21
ENDBRANCH   1  14
TORSDOF 4
ENDMDL
MODEL 5
REMARK VINA RESULT:      -7.0      4.798      8.073
REMARK  Name = 
REMARK  5 active torsions:
REMARK  status: ('A' for Active; 'I' for Inactive)
REMARK    1  A    between atoms: C_1  and  N_2
REMARK    2  A    between atoms: C_6  and  C_7
REMARK    3  A    between atoms: N_9  and  C_10
REMARK    4  A    between atoms: C_10  and  C_11
REMARK    5  A    between atoms: C_15  and  C_16
REMARK                            x       y       z     vdW  Elec       q    Type
REMARK                         _______ _______ _______ _____ _____    ______ ____
ROOT
ATOM      1  C   UNL     1       3.110   5.747  19.146  0.00  0.00    +0.000 C 
ENDROOT
BRANCH   1   2
ATOM      2  C   UNL     1       2.411   7.089  19.151  0.00  0.00    +0.000 A 
ATOM      3  C   UNL     1       2.410   7.875  18.005  0.00  0.00    +0.000 A 
ATOM      4  C   UNL     1       1.788   9.117  18.040  0.00  0.00    +0.000 A 
ATOM      5  C   UNL     1       1.169   9.540  19.212  0.00  0.00    +0.000 A 
ATOM      6  C   UNL     1       1.179   8.702  20.329  0.00  0.00    +0.000 A 
ATOM      7  N   UNL     1       1.795   7.478  20.301  0.00  0.00    +0.000 NA
BRANCH   6   8
ATOM      8  C   UNL     1       0.496   9.162  21.614  0.00  0.00    +0.000 C 
ATOM      9  F   UNL     1       1.312   9.099  22.711  0.00  0.00    +0.000 F 
ATOM     10  F   UNL     1       0.066  10.455  21.561  0.00  0.00    +0.000 F 
ATOM     11  F   UNL     1      -0.596   8.413  21.938  0.00  0.00    +0.000 F 
ENDBRANCH   6   8
ENDBRANCH   1   2
BRANCH   1  14
ATOM     12  C   UNL     1       4.504   4.404  17.578  0.00  0.00    +0.000 C 
ATOM     13  O   UNL     1       4.160   3.337  18.079  0.00  0.00    +0.000 OA
ATOM     14  N   UNL     1       4.043   5.612  18.049  0.00  0.00    +0.000 N 
ATOM     15  H   UNL     1       4.447   6.470  17.709  0.00  0.00    +0.000 HD
BRANCH  12  21
ATOM     16  C   UNL     1       7.630   4.640  17.668  0.00  0.00    +0.000 C 
ATOM     17  N   UNL     1       6.785   4.607  16.498  0.00  0.00    +0.000 N 
ATOM     18  C   UNL     1       7.256   4.665  15.215  0.00  0.00    +0.000 A 
ATOM     19  N   UNL     1       6.283   4.596  14.340  0.00  0.00    +0.000 NA
ATOM     20  C   UNL     1       5.144   4.489  15.087  0.00  0.00    +0.000 A 
ATOM     21  C   UNL     1       5.409   4.502  16.450  0.00  0.00    +0.000 A 
ENDBRANCH  12  21
ENDBRANCH   1  14
TORSDOF 4
ENDMDL
MODEL 6
REMARK VINA RESULT:      -6.9      4.192      7.180
REMARK  Name = 
REMARK  5 active torsions:
REMARK  status: ('A' for Active; 'I' for Inactive)
REMARK    1  A    between atoms: C_1  and  N_2
REMARK    2  A    between atoms: C_6  and  C_7
REMARK    3  A    between atoms: N_9  and  C_10
REMARK    4  A    between atoms: C_10  and  C_11
REMARK    5  A    between atoms: C_15  and  C_16
REMARK                            x       y       z     vdW  Elec       q    Type
REMARK                         _______ _______ _______ _____ _____    ______ ____
ROOT
ATOM      1  C   UNL     1       2.671   7.207  18.268  0.00  0.00    +0.000 C 
ENDROOT
BRANCH   1   2
ATOM      2  C   UNL     1       1.959   8.439  18.781  0.00  0.00    +0.000 A 
ATOM      3  C   UNL     1       1.863   9.570  17.978  0.00  0.00    +0.000 A 
ATOM      4  C   UNL     1       1.231  10.701  18.480  0.00  0.00    +0.000 A 
ATOM      5  C   UNL     1       0.697  10.674  19.764  0.00  0.00    +0.000 A 
ATOM      6  C   UNL     1       0.800   9.505  20.521  0.00  0.00    +0.000 A 
ATOM      7  N   UNL     1       1.426   8.388  20.032  0.00  0.00    +0.000 NA
BRANCH   6   8
ATOM      8  C   UNL     1       0.210   9.471  21.928  0.00  0.00    +0.000 C 
ATOM      9  F   UNL     1      -0.433  10.629  22.271  0.00  0.00    +0.000 F 
ATOM     10  F   UNL     1      -0.715   8.484  22.100  0.00  0.00    +0.000 F 
ATOM     11  F   UNL     1       1.149   9.283  22.898  0.00  0.00    +0.000 F 
ENDBRANCH   6   8
ENDBRANCH   1   2
BRANCH   1  14
ATOM     12  C   UNL     1       2.123   4.865  18.919  0.00  0.00    +0.000 C 
ATOM     13  O   UNL     1       1.645   4.600  17.820  0.00  0.00    +0.000 OA
ATOM     14  N   UNL     1       2.632   6.110  19.210  0.00  0.00    +0.000 N 
ATOM     15  H   UNL     1       2.891   6.338  20.158  0.00  0.00    +0.000 HD
BRANCH  12  21
ATOM     16  C   UNL     1       4.497   2.909  19.529  0.00  0.00    +0.000 C 
ATOM     17  N   UNL     1       3.262   3.048  20.265  0.00  0.00    +0.000 N 
ATOM     18  C   UNL     1       2.953   2.321  21.382  0.00  0.00    +0.000 A 
ATOM     19  N   UNL     1       1.783   2.657  21.868  0.00  0.00    +0.000 NA
ATOM     20  C   UNL     1       1.322   3.634  21.032  0.00  0.00    +0.000 A 
ATOM     21  C   UNL     1       2.213   3.908  20.003  0.00  0.00    +0.000 A 
ENDBRANCH  12  21
ENDBRANCH   1  14
TORSDOF 4
ENDMDL
MODEL 7
REMARK VINA RESULT:      -6.9      4.807      8.005
REMARK  Name = 
REMARK  5 active torsions:
REMARK  status: ('A' for Active; 'I' for Inactive)
REMARK    1  A    between atoms: C_1  and  N_2
REMARK    2  A    between atoms: C_6  and  C_7
REMARK    3  A    between atoms: N_9  and  C_10
REMARK    4  A    between atoms: C_10  and  C_11
REMARK    5  A    between atoms: C_15  and  C_16
REMARK                            x       y       z     vdW  Elec       q    Type
REMARK                         _______ _______ _______ _____ _____    ______ ____
ROOT
ATOM      1  C   UNL     1       5.483   6.476  16.900  0.00  0.00    +0.000 C 
ENDROOT
BRANCH   1   2
ATOM      2  C   UNL     1       4.276   5.936  17.634  0.00  0.00    +0.000 A 
ATOM      3  C   UNL     1       3.361   6.813  18.206  0.00  0.00    +0.000 A 
ATOM      4  C   UNL     1       2.275   6.295  18.901  0.00  0.00    +0.000 A 
ATOM      5  C   UNL     1       2.118   4.916  18.997  0.00  0.00    +0.000 A 
ATOM      6  C   UNL     1       3.052   4.079  18.384  0.00  0.00    +0.000 A 
ATOM      7  N   UNL     1       4.127   4.584  17.702  0.00  0.00    +0.000 NA
BRANCH   6   8
ATOM      8  C   UNL     1       2.878   2.566  18.484  0.00  0.00    +0.000 C 
ATOM      9  F   UNL     1       2.017   2.186  19.477  0.00  0.00    +0.000 F 
ATOM     10  F   UNL     1       2.381   2.006  17.345  0.00  0.00    +0.000 F 
ATOM     11  F   UNL     1       4.043   1.909  18.751  0.00  0.00    +0.000 F 
ENDBRANCH   6   8
ENDBRANCH   1   2
BRANCH   1  14
ATOM     12  C   UNL     1       6.721   5.038  15.285  0.00  0.00    +0.000 C 
ATOM     13  O   UNL     1       7.608   4.777  16.094  0.00  0.00    +0.000 OA
ATOM     14  N   UNL     1       5.666   5.861  15.603  0.00  0.00    +0.000 N 
ATOM     15  H   UNL     1       5.031   6.165  14.882  0.00  0.00    +0.000 HD
BRANCH  12  21
ATOM     16  C   UNL     1       8.568   5.844  12.883  0.00  0.00    +0.000 C 
ATOM     17  N   UNL     1       7.504   4.868  12.884  0.00  0.00    +0.000 N 
ATOM     18  C   UNL     1       7.151   4.124  11.792  0.00  0.00    +0.000 A 
ATOM     19  N   UNL     1       6.170   3.299  12.067  0.00  0.00    +0.000 NA
ATOM     20  C   UNL     1       5.881   3.522  13.383  0.00  0.00    +0.000 A 
ATOM     21  C   UNL     1       6.688   4.507  13.938  0.00  0.00    +0.000 A 
ENDBRANCH  12  21
ENDBRANCH   1  14
TORSDOF 4
ENDMDL
MODEL 8
REMARK VINA RESULT:      -6.9      5.344      6.569
REMARK  Name = 
REMARK  5 active torsions:
REMARK  status: ('A' for Active; 'I' for Inactive)
REMARK    1  A    between atoms: C_1  and  N_2
REMARK    2  A    between atoms: C_6  and  C_7
REMARK    3  A    between atoms: N_9  and  C_10
REMARK    4  A    between atoms: C_10  and  C_11
REMARK    5  A    between atoms: C_15  and  C_16
REMARK                            x       y       z     vdW  Elec       q    Type
REMARK                         _______ _______ _______ _____ _____    ______ ____
ROOT
ATOM      1  C   UNL     1       4.640   3.462  17.256  0.00  0.00    +0.000 C 
ENDROOT
BRANCH   1   2
ATOM      2  C   UNL     1       3.332   3.413  18.014  0.00  0.00    +0.000 A 
ATOM      3  C   UNL     1       2.131   3.584  17.336  0.00  0.00    +0.000 A 
ATOM      4  C   UNL     1       0.942   3.566  18.056  0.00  0.00    +0.000 A 
ATOM      5  C   UNL     1       0.978   3.362  19.432  0.00  0.00    +0.000 A 
ATOM      6  C   UNL     1       2.210   3.171  20.061  0.00  0.00    +0.000 A 
ATOM      7  N   UNL     1       3.385   3.193  19.356  0.00  0.00    +0.000 NA
BRANCH   6   8
ATOM      8  C   UNL     1       2.251   2.942  21.569  0.00  0.00    +0.000 C 
ATOM      9  F   UNL     1       2.468   4.088  22.284  0.00  0.00    +0.000 F 
ATOM     10  F   UNL     1       1.092   2.424  22.066  0.00  0.00    +0.000 F 
ATOM     11  F   UNL     1       3.242   2.088  21.955  0.00  0.00    +0.000 F 
ENDBRANCH   6   8
ENDBRANCH   1   2
BRANCH   1  14
ATOM     12  C   UNL     1       6.623   4.945  16.975  0.00  0.00    +0.000 C 
ATOM     13  O   UNL     1       7.155   4.192  16.165  0.00  0.00    +0.000 OA
ATOM     14  N   UNL     1       5.409   4.652  17.552  0.00  0.00    +0.000 N 
ATOM     15  H   UNL     1       5.063   5.218  18.311  0.00  0.00    +0.000 HD
BRANCH  12  21
ATOM     16  C   UNL     1       8.072   5.559  19.687  0.00  0.00    +0.000 C 
ATOM     17  N   UNL     1       7.837   6.469  18.591  0.00  0.00    +0.000 N 
ATOM     18  C   UNL     1       8.242   7.776  18.584  0.00  0.00    +0.000 A 
ATOM     19  N   UNL     1       7.923   8.374  17.463  0.00  0.00    +0.000 NA
ATOM     20  C   UNL     1       7.288   7.418  16.722  0.00  0.00    +0.000 A 
ATOM     21  C   UNL     1       7.201   6.206  17.394  0.00  0.00    +0.000 A 
ENDBRANCH  12  21
ENDBRANCH   1  14
TORSDOF 4
ENDMDL
MODEL 9
REMARK VINA RESULT:      -6.9      4.864      7.957
REMARK  Name = 
REMARK  5 active torsions:
REMARK  status: ('A' for Active; 'I' for Inactive)
REMARK    1  A    between atoms: C_1  and  N_2
REMARK    2  A    between atoms: C_6  and  C_7
REMARK    3  A    between atoms: N_9  and  C_10
REMARK    4  A    between atoms: C_10  and  C_11
REMARK    5  A    between atoms: C_15  and  C_16
REMARK                            x       y       z     vdW  Elec       q    Type
REMARK                         _______ _______ _______ _____ _____    ______ ____
ROOT
ATOM      1  C   UNL     1       6.774   4.836  17.591  0.00  0.00    +0.000 C 
ENDROOT
BRANCH   1   2
ATOM      2  C   UNL     1       5.441   4.631  18.276  0.00  0.00    +0.000 A 
ATOM      3  C   UNL     1       4.919   5.629  19.091  0.00  0.00    +0.000 A 
ATOM      4  C   UNL     1       3.708   5.408  19.736  0.00  0.00    +0.000 A 
ATOM      5  C   UNL     1       3.038   4.205  19.541  0.00  0.00    +0.000 A 
ATOM      6  C   UNL     1       3.594   3.244  18.693  0.00  0.00    +0.000 A 
ATOM      7  N   UNL     1       4.790   3.456  18.059  0.00  0.00    +0.000 NA
BRANCH   6   8
ATOM      8  C   UNL     1       2.858   1.925  18.474  0.00  0.00    +0.000 C 
ATOM      9  F   UNL     1       2.217   1.859  17.267  0.00  0.00    +0.000 F 
ATOM     10  F   UNL     1       3.682   0.839  18.502  0.00  0.00    +0.000 F 
ATOM     11  F   UNL     1       1.891   1.690  19.406  0.00  0.00    +0.000 F 
ENDBRANCH   6   8
ENDBRANCH   1   2
BRANCH   1  14
ATOM     12  C   UNL     1       6.273   5.124  15.167  0.00  0.00    +0.000 C 
ATOM     13  O   UNL     1       5.781   6.237  15.332  0.00  0.00    +0.000 OA
ATOM     14  N   UNL     1       6.766   4.384  16.216  0.00  0.00    +0.000 N 
ATOM     15  H   UNL     1       7.037   3.424  16.071  0.00  0.00    +0.000 HD
BRANCH  12  21
ATOM     16  C   UNL     1       8.411   5.727  12.954  0.00  0.00    +0.000 C 
ATOM     17  N   UNL     1       7.339   4.761  12.900  0.00  0.00    +0.000 N 
ATOM     18  C   UNL     1       7.109   3.936  11.833  0.00  0.00    +0.000 A 
ATOM     19  N   UNL     1       6.090   3.142  12.049  0.00  0.00    +0.000 NA
ATOM     20  C   UNL     1       5.646   3.469  13.299  0.00  0.00    +0.000 A 
ATOM     21  C   UNL     1       6.395   4.489  13.870  0.00  0.00    +0.000 A 
ENDBRANCH  12  21
ENDBRANCH   1  14
TORSDOF 4
ENDMDL
