MODEL 1
REMARK VINA RESULT:      -8.7      0.000      0.000
REMARK  Name = 
REMARK  4 active torsions:
REMARK  status: ('A' for Active; 'I' for Inactive)
REMARK    1  A    between atoms: C_2  and  C_13
REMARK    2  A    between atoms: N_3  and  S_4
REMARK    3  A    between atoms: S_4  and  C_7
REMARK    4  A    between atoms: C_17  and  N_18
REMARK                            x       y       z     vdW  Elec       q    Type
REMARK                         _______ _______ _______ _____ _____    ______ ____
ROOT
ATOM      1  N   UNL     1       6.212   4.725  19.096  0.00  0.00    +0.000 N 
ATOM      2  C   UNL     1       5.276   4.521  18.106  0.00  0.00    +0.000 C 
ATOM      3  N   UNL     1       5.471   4.638  16.830  0.00  0.00    +0.000 NA
ATOM      4  H   UNL     1       7.187   4.699  18.785  0.00  0.00    +0.000 HD
ATOM      5  H   UNL     1       6.100   4.185  19.948  0.00  0.00    +0.000 HD
ENDROOT
BRANCH   2   6
ATOM      6  C   UNL     1       3.897   4.115  18.555  0.00  0.00    +0.000 A 
ATOM      7  C   UNL     1       2.799   4.315  17.702  0.00  0.00    +0.000 A 
ATOM      8  C   UNL     1       1.509   3.968  18.107  0.00  0.00    +0.000 A 
ATOM      9  C   UNL     1       1.302   3.411  19.368  0.00  0.00    +0.000 A 
ATOM     10  C   UNL     1       2.399   3.197  20.217  0.00  0.00    +0.000 A 
ATOM     11  C   UNL     1       3.699   3.541  19.816  0.00  0.00    +0.000 A 
BRANCH  10  12
ATOM     12  N   UNL     1       2.177   2.615  21.546  0.00  0.00    +0.000 N 
ATOM     13  O   UNL     1       3.134   2.048  22.095  0.00  0.00    +0.000 OA
ATOM     14  O   UNL     1       1.043   2.713  22.036  0.00  0.00    +0.000 OA
ENDBRANCH  10  12
ENDBRANCH   2   6
BRANCH   3  15
ATOM     15  S   UNL     1       6.897   5.163  16.254  0.00  0.00    +0.000 S 
ATOM     16  O   UNL     1       6.923   6.611  16.340  0.00  0.00    +0.000 OA
ATOM     17  O   UNL     1       7.973   4.384  16.849  0.00  0.00    +0.000 OA
BRANCH  15  18
ATOM     18  C   UNL     1       6.873   4.739  14.527  0.00  0.00    +0.000 A 
ATOM     19  C   UNL     1       7.773   5.345  13.646  0.00  0.00    +0.000 A 
ATOM     20  C   UNL     1       7.738   5.013  12.291  0.00  0.00    +0.000 A 
ATOM     21  C   UNL     1       6.812   4.077  11.826  0.00  0.00    +0.000 A 
ATOM     22  C   UNL     1       5.927   3.462  12.713  0.00  0.00    +0.000 A 
ATOM     23  C   UNL     1       5.955   3.788  14.069  0.00  0.00    +0.000 A 
ENDBRANCH  15  18
ENDBRANCH   3  15
TORSDOF 4
ENDMDL
MODEL 2
REMARK VINA RESULT:      -8.3      2.732      7.175
REMARK  Name = 
REMARK  4 active torsions:
REMARK  status: ('A' for Active; 'I' for Inactive)
REMARK    1  A    between atoms: C_2  and  C_13
REMARK    2  A    between atoms: N_3  and  S_4
REMARK    3  A    between atoms: S_4  and  C_7
REMARK    4  A    between atoms: C_17  and  N_18
REMARK                            x       y       z     vdW  Elec       q    Type
REMARK                         _______ _______ _______ _____ _____    ______ ____
ROOT
ATOM      1  N   UNL     1       7.316   5.932  16.469  0.00  0.00    +0.000 N 
ATOM      2  C   UNL     1       6.411   5.090  15.861  0.00  0.00    +0.000 C 
ATOM      3  N   UNL     1       5.363   4.563  16.412  0.00  0.00    +0.000 NA
ATOM      4  H   UNL     1       6.984   6.381  17.327  0.00  0.00    +0.000 HD
ATOM      5  H   UNL     1       7.779   6.611  15.874  0.00  0.00    +0.000 HD
ENDROOT
BRANCH   2   6
ATOM      6  C   UNL     1       6.663   4.762  14.412  0.00  0.00    +0.000 A 
ATOM      7  C   UNL     1       7.712   5.397  13.726  0.00  0.00    +0.000 A 
ATOM      8  C   UNL     1       7.948   5.126  12.377  0.00  0.00    +0.000 A 
ATOM      9  C   UNL     1       7.142   4.212  11.700  0.00  0.00    +0.000 A 
ATOM     10  C   UNL     1       6.102   3.566  12.385  0.00  0.00    +0.000 A 
ATOM     11  C   UNL     1       5.860   3.832  13.743  0.00  0.00    +0.000 A 
BRANCH  10  12
ATOM     12  N   UNL     1       5.253   2.609  11.668  0.00  0.00    +0.000 N 
ATOM     13  O   UNL     1       5.734   1.497  11.401  0.00  0.00    +0.000 OA
ATOM     14  O   UNL     1       4.109   2.971  11.360  0.00  0.00    +0.000 OA
ENDBRANCH  10  12
ENDBRANCH   2   6
BRANCH   3  15
ATOM     15  S   UNL     1       5.061   4.781  17.993  0.00  0.00    +0.000 S 
ATOM     16  O   UNL     1       6.114   4.139  18.757  0.00  0.00    +0.000 OA
ATOM     17  O   UNL     1       4.743   6.180  18.234  0.00  0.00    +0.000 OA
BRANCH  15  18
ATOM     18  C   UNL     1       3.562   3.872  18.298  0.00  0.00    +0.000 A 
ATOM     19  C   UNL     1       3.620   2.603  18.881  0.00  0.00    +0.000 A 
ATOM     20  C   UNL     1       2.439   1.895  19.106  0.00  0.00    +0.000 A 
ATOM     21  C   UNL     1       1.210   2.457  18.753  0.00  0.00    +0.000 A 
ATOM     22  C   UNL     1       1.157   3.733  18.187  0.00  0.00    +0.000 A 
ATOM     23  C   UNL     1       2.333   4.447  17.959  0.00  0.00    +0.000 A 
ENDBRANCH  15  18
ENDBRANCH   3  15
TORSDOF 4
ENDMDL
MODEL 3
REMARK VINA RESULT:      -8.3      0.355      1.117
REMARK  Name = 
REMARK  4 active torsions:
REMARK  status: ('A' for Active; 'I' for Inactive)
REMARK    1  A    between atoms: C_2  and  C_13
REMARK    2  A    between atoms: N_3  and  S_4
REMARK    3  A    between atoms: S_4  and  C_7
REMARK    4  A    between atoms: C_17  and  N_18
REMARK                            x       y       z     vdW  Elec       q    Type
REMARK                         _______ _______ _______ _____ _____    ______ ____
ROOT
ATOM      1  N   UNL     1       5.548   5.774  18.928  0.00  0.00    +0.000 N 
ATOM      2  C   UNL     1       4.948   4.889  18.058  0.00  0.00    +0.000 C 
ATOM      3  N   UNL     1       5.395   4.535  16.895  0.00  0.00    +0.000 NA
ATOM      4  H   UNL     1       6.541   5.947  18.755  0.00  0.00    +0.000 HD
ATOM      5  H   UNL     1       5.384   5.622  19.918  0.00  0.00    +0.000 HD
ENDROOT
BRANCH   2   6
ATOM      6  C   UNL     1       3.652   4.270  18.514  0.00  0.00    +0.000 A 
ATOM      7  C   UNL     1       2.548   4.248  17.646  0.00  0.00    +0.000 A 
ATOM      8  C   UNL     1       1.330   3.700  18.056  0.00  0.00    +0.000 A 
ATOM      9  C   UNL     1       1.205   3.164  19.336  0.00  0.00    +0.000 A 
ATOM     10  C   UNL     1       2.310   3.171  20.200  0.00  0.00    +0.000 A 
ATOM     11  C   UNL     1       3.538   3.718  19.794  0.00  0.00    +0.000 A 
BRANCH  10  12
ATOM     12  N   UNL     1       2.174   2.610  21.549  0.00  0.00    +0.000 N 
ATOM     13  O   UNL     1       3.149   2.011  22.026  0.00  0.00    +0.000 OA
ATOM     14  O   UNL     1       1.088   2.757  22.127  0.00  0.00    +0.000 OA
ENDBRANCH  10  12
ENDBRANCH   2   6
BRANCH   3  15
ATOM     15  S   UNL     1       6.733   5.220  16.278  0.00  0.00    +0.000 S 
ATOM     16  O   UNL     1       6.557   6.659  16.281  0.00  0.00    +0.000 OA
ATOM     17  O   UNL     1       7.907   4.633  16.905  0.00  0.00    +0.000 OA
BRANCH  15  18
ATOM     18  C   UNL     1       6.766   4.698  14.577  0.00  0.00    +0.000 A 
ATOM     19  C   UNL     1       5.875   3.719  14.128  0.00  0.00    +0.000 A 
ATOM     20  C   UNL     1       5.917   3.311  12.795  0.00  0.00    +0.000 A 
ATOM     21  C   UNL     1       6.841   3.882  11.918  0.00  0.00    +0.000 A 
ATOM     22  C   UNL     1       7.718   4.873  12.368  0.00  0.00    +0.000 A 
ATOM     23  C   UNL     1       7.682   5.287  13.700  0.00  0.00    +0.000 A 
ENDBRANCH  15  18
ENDBRANCH   3  15
TORSDOF 4
ENDMDL
MODEL 4
REMARK VINA RESULT:      -8.2      1.223      1.294
REMARK  Name = 
REMARK  4 active torsions:
REMARK  status: ('A' for Active; 'I' for Inactive)
REMARK    1  A    between atoms: C_2  and  C_13
REMARK    2  A    between atoms: N_3  and  S_4
REMARK    3  A    between atoms: S_4  and  C_7
REMARK    4  A    between atoms: C_17  and  N_18
REMARK                            x       y       z     vdW  Elec       q    Type
REMARK                         _______ _______ _______ _____ _____    ______ ____
ROOT
ATOM      1  N   UNL     1       6.739   5.337  19.432  0.00  0.00    +0.000 N 
ATOM      2  C   UNL     1       5.683   5.189  18.559  0.00  0.00    +0.000 C 
ATOM      3  N   UNL     1       5.763   5.079  17.271  0.00  0.00    +0.000 NA
ATOM      4  H   UNL     1       7.653   5.067  19.058  0.00  0.00    +0.000 HD
ATOM      5  H   UNL     1       6.615   4.959  20.365  0.00  0.00    +0.000 HD
ENDROOT
BRANCH   2   6
ATOM      6  C   UNL     1       4.306   5.142  19.168  0.00  0.00    +0.000 A 
ATOM      7  C   UNL     1       3.535   6.314  19.238  0.00  0.00    +0.000 A 
ATOM      8  C   UNL     1       2.266   6.298  19.820  0.00  0.00    +0.000 A 
ATOM      9  C   UNL     1       1.751   5.109  20.334  0.00  0.00    +0.000 A 
ATOM     10  C   UNL     1       2.513   3.934  20.253  0.00  0.00    +0.000 A 
ATOM     11  C   UNL     1       3.789   3.941  19.667  0.00  0.00    +0.000 A 
BRANCH  10  12
ATOM     12  N   UNL     1       1.970   2.685  20.799  0.00  0.00    +0.000 N 
ATOM     13  O   UNL     1       1.497   1.863  20.000  0.00  0.00    +0.000 OA
ATOM     14  O   UNL     1       2.005   2.530  22.028  0.00  0.00    +0.000 OA
ENDBRANCH  10  12
ENDBRANCH   2   6
BRANCH   3  15
ATOM     15  S   UNL     1       7.195   5.214  16.514  0.00  0.00    +0.000 S 
ATOM     16  O   UNL     1       7.569   6.614  16.481  0.00  0.00    +0.000 OA
ATOM     17  O   UNL     1       8.120   4.231  17.057  0.00  0.00    +0.000 OA
BRANCH  15  18
ATOM     18  C   UNL     1       6.871   4.717  14.837  0.00  0.00    +0.000 A 
ATOM     19  C   UNL     1       7.722   5.130  13.808  0.00  0.00    +0.000 A 
ATOM     20  C   UNL     1       7.452   4.743  12.496  0.00  0.00    +0.000 A 
ATOM     21  C   UNL     1       6.341   3.944  12.218  0.00  0.00    +0.000 A 
ATOM     22  C   UNL     1       5.504   3.519  13.252  0.00  0.00    +0.000 A 
ATOM     23  C   UNL     1       5.766   3.902  14.567  0.00  0.00    +0.000 A 
ENDBRANCH  15  18
ENDBRANCH   3  15
TORSDOF 4
ENDMDL
MODEL 5
REMARK VINA RESULT:      -8.0      1.530      1.601
REMARK  Name = 
REMARK  4 active torsions:
REMARK  status: ('A' for Active; 'I' for Inactive)
REMARK    1  A    between atoms: C_2  and  C_13
REMARK    2  A    between atoms: N_3  and  S_4
REMARK    3  A    between atoms: S_4  and  C_7
REMARK    4  A    between atoms: C_17  and  N_18
REMARK                            x       y       z     vdW  Elec       q    Type
REMARK                         _______ _______ _______ _____ _____    ______ ____
ROOT
ATOM      1  N   UNL     1       6.423   5.476  19.273  0.00  0.00    +0.000 N 
ATOM      2  C   UNL     1       5.476   5.110  18.341  0.00  0.00    +0.000 C 
ATOM      3  N   UNL     1       5.682   4.905  17.079  0.00  0.00    +0.000 NA
ATOM      4  H   UNL     1       7.394   5.306  18.997  0.00  0.00    +0.000 HD
ATOM      5  H   UNL     1       6.269   5.164  20.226  0.00  0.00    +0.000 HD
ENDROOT
BRANCH   2   6
ATOM      6  C   UNL     1       4.070   4.923  18.846  0.00  0.00    +0.000 A 
ATOM      7  C   UNL     1       3.445   5.956  19.566  0.00  0.00    +0.000 A 
ATOM      8  C   UNL     1       2.150   5.794  20.063  0.00  0.00    +0.000 A 
ATOM      9  C   UNL     1       1.464   4.601  19.843  0.00  0.00    +0.000 A 
ATOM     10  C   UNL     1       2.080   3.574  19.113  0.00  0.00    +0.000 A 
ATOM     11  C   UNL     1       3.380   3.729  18.607  0.00  0.00    +0.000 A 
BRANCH  10  12
ATOM     12  N   UNL     1       1.356   2.317  18.888  0.00  0.00    +0.000 N 
ATOM     13  O   UNL     1       1.975   1.256  19.056  0.00  0.00    +0.000 OA
ATOM     14  O   UNL     1       0.172   2.390  18.531  0.00  0.00    +0.000 OA
ENDBRANCH  10  12
ENDBRANCH   2   6
BRANCH   3  15
ATOM     15  S   UNL     1       7.145   5.174  16.423  0.00  0.00    +0.000 S 
ATOM     16  O   UNL     1       7.417   6.598  16.473  0.00  0.00    +0.000 OA
ATOM     17  O   UNL     1       8.103   4.234  16.983  0.00  0.00    +0.000 OA
BRANCH  15  18
ATOM     18  C   UNL     1       6.962   4.734  14.709  0.00  0.00    +0.000 A 
ATOM     19  C   UNL     1       7.794   5.312  13.746  0.00  0.00    +0.000 A 
ATOM     20  C   UNL     1       7.634   4.968  12.404  0.00  0.00    +0.000 A 
ATOM     21  C   UNL     1       6.652   4.048  12.031  0.00  0.00    +0.000 A 
ATOM     22  C   UNL     1       5.835   3.460  12.999  0.00  0.00    +0.000 A 
ATOM     23  C   UNL     1       5.988   3.799  14.344  0.00  0.00    +0.000 A 
ENDBRANCH  15  18
ENDBRANCH   3  15
TORSDOF 4
ENDMDL
MODEL 6
REMARK VINA RESULT:      -8.0      1.240      1.709
REMARK  Name = 
REMARK  4 active torsions:
REMARK  status: ('A' for Active; 'I' for Inactive)
REMARK    1  A    between atoms: C_2  and  C_13
REMARK    2  A    between atoms: N_3  and  S_4
REMARK    3  A    between atoms: S_4  and  C_7
REMARK    4  A    between atoms: C_17  and  N_18
REMARK                            x       y       z     vdW  Elec       q    Type
REMARK                         _______ _______ _______ _____ _____    ______ ____
ROOT
ATOM      1  N   UNL     1       6.717   4.928  19.315  0.00  0.00    +0.000 N 
ATOM      2  C   UNL     1       5.652   5.132  18.464  0.00  0.00    +0.000 C 
ATOM      3  N   UNL     1       5.710   5.230  17.174  0.00  0.00    +0.000 NA
ATOM      4  H   UNL     1       7.563   4.561  18.873  0.00  0.00    +0.000 HD
ATOM      5  H   UNL     1       6.523   4.427  20.176  0.00  0.00    +0.000 HD
ENDROOT
BRANCH   2   6
ATOM      6  C   UNL     1       4.291   5.239  19.101  0.00  0.00    +0.000 A 
ATOM      7  C   UNL     1       3.579   6.448  19.023  0.00  0.00    +0.000 A 
ATOM      8  C   UNL     1       2.326   6.576  19.626  0.00  0.00    +0.000 A 
ATOM      9  C   UNL     1       1.768   5.496  20.309  0.00  0.00    +0.000 A 
ATOM     10  C   UNL     1       2.471   4.284  20.376  0.00  0.00    +0.000 A 
ATOM     11  C   UNL     1       3.730   4.145  19.770  0.00  0.00    +0.000 A 
BRANCH  10  12
ATOM     12  N   UNL     1       1.883   3.150  21.099  0.00  0.00    +0.000 N 
ATOM     13  O   UNL     1       1.061   2.444  20.495  0.00  0.00    +0.000 OA
ATOM     14  O   UNL     1       2.232   2.972  22.274  0.00  0.00    +0.000 OA
ENDBRANCH  10  12
ENDBRANCH   2   6
BRANCH   3  15
ATOM     15  S   UNL     1       7.142   5.223  16.405  0.00  0.00    +0.000 S 
ATOM     16  O   UNL     1       7.623   6.588  16.315  0.00  0.00    +0.000 OA
ATOM     17  O   UNL     1       7.992   4.193  16.983  0.00  0.00    +0.000 OA
BRANCH  15  18
ATOM     18  C   UNL     1       6.766   4.687  14.751  0.00  0.00    +0.000 A 
ATOM     19  C   UNL     1       5.590   3.976  14.497  0.00  0.00    +0.000 A 
ATOM     20  C   UNL     1       5.311   3.551  13.198  0.00  0.00    +0.000 A 
ATOM     21  C   UNL     1       6.201   3.842  12.161  0.00  0.00    +0.000 A 
ATOM     22  C   UNL     1       7.367   4.568  12.418  0.00  0.00    +0.000 A 
ATOM     23  C   UNL     1       7.653   4.996  13.715  0.00  0.00    +0.000 A 
ENDBRANCH  15  18
ENDBRANCH   3  15
TORSDOF 4
ENDMDL
MODEL 7
REMARK VINA RESULT:      -7.9      2.826      7.209
REMARK  Name = 
REMARK  4 active torsions:
REMARK  status: ('A' for Active; 'I' for Inactive)
REMARK    1  A    between atoms: C_2  and  C_13
REMARK    2  A    between atoms: N_3  and  S_4
REMARK    3  A    between atoms: S_4  and  C_7
REMARK    4  A    between atoms: C_17  and  N_18
REMARK                            x       y       z     vdW  Elec       q    Type
REMARK                         _______ _______ _______ _____ _____    ______ ____
ROOT
ATOM      1  N   UNL     1       6.665   6.457  16.374  0.00  0.00    +0.000 N 
ATOM      2  C   UNL     1       5.956   5.397  15.850  0.00  0.00    +0.000 C 
ATOM      3  N   UNL     1       4.972   4.777  16.419  0.00  0.00    +0.000 NA
ATOM      4  H   UNL     1       6.202   6.952  17.141  0.00  0.00    +0.000 HD
ATOM      5  H   UNL     1       7.053   7.118  15.711  0.00  0.00    +0.000 HD
ENDROOT
BRANCH   2   6
ATOM      6  C   UNL     1       6.363   4.926  14.478  0.00  0.00    +0.000 A 
ATOM      7  C   UNL     1       7.548   5.411  13.898  0.00  0.00    +0.000 A 
ATOM      8  C   UNL     1       7.932   5.006  12.618  0.00  0.00    +0.000 A 
ATOM      9  C   UNL     1       7.139   4.108  11.906  0.00  0.00    +0.000 A 
ATOM     10  C   UNL     1       5.963   3.611  12.488  0.00  0.00    +0.000 A 
ATOM     11  C   UNL     1       5.571   4.012  13.775  0.00  0.00    +0.000 A 
BRANCH  10  12
ATOM     12  N   UNL     1       5.128   2.670  11.733  0.00  0.00    +0.000 N 
ATOM     13  O   UNL     1       3.981   3.029  11.432  0.00  0.00    +0.000 OA
ATOM     14  O   UNL     1       5.615   1.566  11.450  0.00  0.00    +0.000 OA
ENDBRANCH  10  12
ENDBRANCH   2   6
BRANCH   3  15
ATOM     15  S   UNL     1       4.523   5.149  17.936  0.00  0.00    +0.000 S 
ATOM     16  O   UNL     1       5.597   4.782  18.838  0.00  0.00    +0.000 OA
ATOM     17  O   UNL     1       3.988   6.502  17.961  0.00  0.00    +0.000 OA
BRANCH  15  18
ATOM     18  C   UNL     1       3.153   4.068  18.282  0.00  0.00    +0.000 A 
ATOM     19  C   UNL     1       2.107   4.505  19.101  0.00  0.00    +0.000 A 
ATOM     20  C   UNL     1       1.044   3.645  19.374  0.00  0.00    +0.000 A 
ATOM     21  C   UNL     1       1.026   2.360  18.827  0.00  0.00    +0.000 A 
ATOM     22  C   UNL     1       2.065   1.935  17.996  0.00  0.00    +0.000 A 
ATOM     23  C   UNL     1       3.132   2.789  17.717  0.00  0.00    +0.000 A 
ENDBRANCH  15  18
ENDBRANCH   3  15
TORSDOF 4
ENDMDL
MODEL 8
REMARK VINA RESULT:      -7.8      0.671      1.036
REMARK  Name = 
REMARK  4 active torsions:
REMARK  status: ('A' for Active; 'I' for Inactive)
REMARK    1  A    between atoms: C_2  and  C_13
REMARK    2  A    between atoms: N_3  and  S_4
REMARK    3  A    between atoms: S_4  and  C_7
REMARK    4  A    between atoms: C_17  and  N_18
REMARK                            x       y       z     vdW  Elec       q    Type
REMARK                         _______ _______ _______ _____ _____    ______ ____
ROOT
ATOM      1  N   UNL     1       4.567   6.543  17.488  0.00  0.00    +0.000 N 
ATOM      2  C   UNL     1       4.667   5.173  17.596  0.00  0.00    +0.000 C 
ATOM      3  N   UNL     1       5.675   4.446  17.229  0.00  0.00    +0.000 NA
ATOM      4  H   UNL     1       5.456   7.035  17.361  0.00  0.00    +0.000 HD
ATOM      5  H   UNL     1       4.000   7.015  18.183  0.00  0.00    +0.000 HD
ENDROOT
BRANCH   2   6
ATOM      6  C   UNL     1       3.492   4.458  18.212  0.00  0.00    +0.000 A 
ATOM      7  C   UNL     1       2.281   4.373  17.505  0.00  0.00    +0.000 A 
ATOM      8  C   UNL     1       1.173   3.736  18.067  0.00  0.00    +0.000 A 
ATOM      9  C   UNL     1       1.265   3.172  19.338  0.00  0.00    +0.000 A 
ATOM     10  C   UNL     1       2.477   3.243  20.040  0.00  0.00    +0.000 A 
ATOM     11  C   UNL     1       3.597   3.879  19.481  0.00  0.00    +0.000 A 
BRANCH  10  12
ATOM     12  N   UNL     1       2.569   2.652  21.380  0.00  0.00    +0.000 N 
ATOM     13  O   UNL     1       1.589   2.769  22.131  0.00  0.00    +0.000 OA
ATOM     14  O   UNL     1       3.624   2.079  21.687  0.00  0.00    +0.000 OA
ENDBRANCH  10  12
ENDBRANCH   2   6
BRANCH   3  15
ATOM     15  S   UNL     1       6.946   5.114  16.470  0.00  0.00    +0.000 S 
ATOM     16  O   UNL     1       6.816   6.557  16.535  0.00  0.00    +0.000 OA
ATOM     17  O   UNL     1       8.171   4.477  16.930  0.00  0.00    +0.000 OA
BRANCH  15  18
ATOM     18  C   UNL     1       6.754   4.646  14.764  0.00  0.00    +0.000 A 
ATOM     19  C   UNL     1       7.636   5.141  13.799  0.00  0.00    +0.000 A 
ATOM     20  C   UNL     1       7.469   4.775  12.464  0.00  0.00    +0.000 A 
ATOM     21  C   UNL     1       6.430   3.916  12.099  0.00  0.00    +0.000 A 
ATOM     22  C   UNL     1       5.562   3.411  13.070  0.00  0.00    +0.000 A 
ATOM     23  C   UNL     1       5.721   3.772  14.408  0.00  0.00    +0.000 A 
ENDBRANCH  15  18
ENDBRANCH   3  15
TORSDOF 4
ENDMDL
MODEL 9
REMARK VINA RESULT:      -7.7      2.813      7.043
REMARK  Name = 
REMARK  4 active torsions:
REMARK  status: ('A' for Active; 'I' for Inactive)
REMARK    1  A    between atoms: C_2  and  C_13
REMARK    2  A    between atoms: N_3  and  S_4
REMARK    3  A    between atoms: S_4  and  C_7
REMARK    4  A    between atoms: C_17  and  N_18
REMARK                            x       y       z     vdW  Elec       q    Type
REMARK                         _______ _______ _______ _____ _____    ______ ____
ROOT
ATOM      1  N   UNL     1       6.962   4.169  16.906  0.00  0.00    +0.000 N 
ATOM      2  C   UNL     1       6.160   4.812  15.988  0.00  0.00    +0.000 C 
ATOM      3  N   UNL     1       5.165   5.597  16.257  0.00  0.00    +0.000 NA
ATOM      4  H   UNL     1       6.936   4.555  17.853  0.00  0.00    +0.000 HD
ATOM      5  H   UNL     1       7.921   3.987  16.626  0.00  0.00    +0.000 HD
ENDROOT
BRANCH   2   6
ATOM      6  C   UNL     1       6.483   4.586  14.535  0.00  0.00    +0.000 A 
ATOM      7  C   UNL     1       7.539   5.294  13.937  0.00  0.00    +0.000 A 
ATOM      8  C   UNL     1       7.840   5.117  12.585  0.00  0.00    +0.000 A 
ATOM      9  C   UNL     1       7.092   4.226  11.816  0.00  0.00    +0.000 A 
ATOM     10  C   UNL     1       6.047   3.507  12.414  0.00  0.00    +0.000 A 
ATOM     11  C   UNL     1       5.740   3.677  13.773  0.00  0.00    +0.000 A 
BRANCH  10  12
ATOM     12  N   UNL     1       5.259   2.573  11.601  0.00  0.00    +0.000 N 
ATOM     13  O   UNL     1       4.127   2.932  11.244  0.00  0.00    +0.000 OA
ATOM     14  O   UNL     1       5.767   1.477  11.328  0.00  0.00    +0.000 OA
ENDBRANCH  10  12
ENDBRANCH   2   6
BRANCH   3  15
ATOM     15  S   UNL     1       4.681   5.826  17.791  0.00  0.00    +0.000 S 
ATOM     16  O   UNL     1       5.857   5.969  18.629  0.00  0.00    +0.000 OA
ATOM     17  O   UNL     1       3.644   6.846  17.821  0.00  0.00    +0.000 OA
BRANCH  15  18
ATOM     18  C   UNL     1       3.890   4.300  18.251  0.00  0.00    +0.000 A 
ATOM     19  C   UNL     1       4.341   3.586  19.365  0.00  0.00    +0.000 A 
ATOM     20  C   UNL     1       3.720   2.386  19.709  0.00  0.00    +0.000 A 
ATOM     21  C   UNL     1       2.652   1.908  18.947  0.00  0.00    +0.000 A 
ATOM     22  C   UNL     1       2.194   2.635  17.845  0.00  0.00    +0.000 A 
ATOM     23  C   UNL     1       2.810   3.836  17.494  0.00  0.00    +0.000 A 
ENDBRANCH  15  18
ENDBRANCH   3  15
TORSDOF 4
ENDMDL
