MODEL 1
REMARK VINA RESULT:      -7.1      0.000      0.000
REMARK  Name = 
REMARK  6 active torsions:
REMARK  status: ('A' for Active; 'I' for Inactive)
REMARK    1  A    between atoms: C_1  and  C_2
REMARK    2  A    between atoms: C_5  and  S_6
REMARK    3  A    between atoms: S_6  and  S_9
REMARK    4  A    between atoms: S_9  and  C_10
REMARK    5  A    between atoms: C_10  and  C_11
REMARK    6  A    between atoms: C_14  and  C_15
REMARK                            x       y       z     vdW  Elec       q    Type
REMARK                         _______ _______ _______ _____ _____    ______ ____
ROOT
ATOM      1  S   UNL     1       3.138   1.846  19.374  0.00  0.00    +0.000 S 
ENDROOT
BRANCH   1   2
ATOM      2  S   UNL     1       1.340   2.859  19.732  0.00  0.00    +0.000 S 
ATOM      3  O   UNL     1       1.102   2.858  21.172  0.00  0.00    +0.000 OA
ATOM      4  O   UNL     1       0.342   2.355  18.817  0.00  0.00    +0.000 OA
BRANCH   2   9
ATOM      5  C   UNL     1       2.583   8.606  18.081  0.00  0.00    +0.000 C 
ATOM      6  C   UNL     1       2.293   7.186  18.476  0.00  0.00    +0.000 A 
ATOM      7  C   UNL     1       1.872   6.239  17.532  0.00  0.00    +0.000 A 
ATOM      8  C   UNL     1       1.591   4.925  17.921  0.00  0.00    +0.000 A 
ATOM      9  C   UNL     1       1.720   4.551  19.263  0.00  0.00    +0.000 A 
ATOM     10  C   UNL     1       2.162   5.484  20.210  0.00  0.00    +0.000 A 
ATOM     11  C   UNL     1       2.439   6.797  19.813  0.00  0.00    +0.000 A 
ENDBRANCH   2   9
ENDBRANCH   1   2
BRANCH   1  12
ATOM     12  C   UNL     1       3.600   2.289  17.669  0.00  0.00    +0.000 C 
BRANCH  12  13
ATOM     13  C   UNL     1       4.543   3.491  17.647  0.00  0.00    +0.000 A 
ATOM     14  C   UNL     1       5.146   3.940  18.832  0.00  0.00    +0.000 A 
ATOM     15  C   UNL     1       5.992   5.057  18.832  0.00  0.00    +0.000 A 
ATOM     16  C   UNL     1       6.260   5.764  17.648  0.00  0.00    +0.000 A 
ATOM     17  C   UNL     1       5.662   5.323  16.460  0.00  0.00    +0.000 A 
ATOM     18  C   UNL     1       4.816   4.204  16.465  0.00  0.00    +0.000 A 
BRANCH  16  19
ATOM     19  C   UNL     1       7.164   6.972  17.636  0.00  0.00    +0.000 C 
ATOM     20  F   UNL     1       8.003   7.010  16.562  0.00  0.00    +0.000 F 
ATOM     21  F   UNL     1       6.470   8.144  17.606  0.00  0.00    +0.000 F 
ATOM     22  F   UNL     1       7.965   7.043  18.736  0.00  0.00    +0.000 F 
ENDBRANCH  16  19
ENDBRANCH  12  13
ENDBRANCH   1  12
TORSDOF 5
ENDMDL
MODEL 2
REMARK VINA RESULT:      -7.0      4.234      5.924
REMARK  Name = 
REMARK  6 active torsions:
REMARK  status: ('A' for Active; 'I' for Inactive)
REMARK    1  A    between atoms: C_1  and  C_2
REMARK    2  A    between atoms: C_5  and  S_6
REMARK    3  A    between atoms: S_6  and  S_9
REMARK    4  A    between atoms: S_9  and  C_10
REMARK    5  A    between atoms: C_10  and  C_11
REMARK    6  A    between atoms: C_14  and  C_15
REMARK                            x       y       z     vdW  Elec       q    Type
REMARK                         _______ _______ _______ _____ _____    ______ ____
ROOT
ATOM      1  S   UNL     1       5.826   6.724  17.460  0.00  0.00    +0.000 S 
ENDROOT
BRANCH   1   2
ATOM      2  S   UNL     1       6.274   4.681  17.351  0.00  0.00    +0.000 S 
ATOM      3  O   UNL     1       7.285   4.387  18.362  0.00  0.00    +0.000 OA
ATOM      4  O   UNL     1       6.492   4.335  15.965  0.00  0.00    +0.000 OA
BRANCH   2   9
ATOM      5  C   UNL     1       1.103   2.041  19.243  0.00  0.00    +0.000 C 
ATOM      6  C   UNL     1       2.385   2.673  18.782  0.00  0.00    +0.000 A 
ATOM      7  C   UNL     1       3.428   2.944  19.679  0.00  0.00    +0.000 A 
ATOM      8  C   UNL     1       4.609   3.548  19.234  0.00  0.00    +0.000 A 
ATOM      9  C   UNL     1       4.751   3.896  17.887  0.00  0.00    +0.000 A 
ATOM     10  C   UNL     1       3.724   3.609  16.978  0.00  0.00    +0.000 A 
ATOM     11  C   UNL     1       2.545   3.006  17.431  0.00  0.00    +0.000 A 
ENDBRANCH   2   9
ENDBRANCH   1   2
BRANCH   1  12
ATOM     12  C   UNL     1       4.111   6.865  16.864  0.00  0.00    +0.000 C 
BRANCH  12  13
ATOM     13  C   UNL     1       3.177   7.335  17.978  0.00  0.00    +0.000 A 
ATOM     14  C   UNL     1       2.500   8.560  17.866  0.00  0.00    +0.000 A 
ATOM     15  C   UNL     1       1.661   9.017  18.891  0.00  0.00    +0.000 A 
ATOM     16  C   UNL     1       1.474   8.267  20.064  0.00  0.00    +0.000 A 
ATOM     17  C   UNL     1       2.146   7.044  20.186  0.00  0.00    +0.000 A 
ATOM     18  C   UNL     1       2.985   6.590  19.156  0.00  0.00    +0.000 A 
BRANCH  16  19
ATOM     19  C   UNL     1       0.579   8.751  21.178  0.00  0.00    +0.000 C 
ATOM     20  F   UNL     1       1.224   8.885  22.371  0.00  0.00    +0.000 F 
ATOM     21  F   UNL     1       0.028   9.969  20.914  0.00  0.00    +0.000 F 
ATOM     22  F   UNL     1      -0.470   7.913  21.414  0.00  0.00    +0.000 F 
ENDBRANCH  16  19
ENDBRANCH  12  13
ENDBRANCH   1  12
TORSDOF 5
ENDMDL
MODEL 3
REMARK VINA RESULT:      -6.9      4.258      5.902
REMARK  Name = 
REMARK  6 active torsions:
REMARK  status: ('A' for Active; 'I' for Inactive)
REMARK    1  A    between atoms: C_1  and  C_2
REMARK    2  A    between atoms: C_5  and  S_6
REMARK    3  A    between atoms: S_6  and  S_9
REMARK    4  A    between atoms: S_9  and  C_10
REMARK    5  A    between atoms: C_10  and  C_11
REMARK    6  A    between atoms: C_14  and  C_15
REMARK                            x       y       z     vdW  Elec       q    Type
REMARK                         _______ _______ _______ _____ _____    ______ ____
ROOT
ATOM      1  S   UNL     1       5.834   6.763  17.543  0.00  0.00    +0.000 S 
ENDROOT
BRANCH   1   2
ATOM      2  S   UNL     1       6.281   4.719  17.443  0.00  0.00    +0.000 S 
ATOM      3  O   UNL     1       7.255   4.419  18.488  0.00  0.00    +0.000 OA
ATOM      4  O   UNL     1       6.546   4.377  16.065  0.00  0.00    +0.000 OA
BRANCH   2   9
ATOM      5  C   UNL     1       1.040   2.086  19.146  0.00  0.00    +0.000 C 
ATOM      6  C   UNL     1       2.339   2.717  18.732  0.00  0.00    +0.000 A 
ATOM      7  C   UNL     1       3.350   2.984  19.666  0.00  0.00    +0.000 A 
ATOM      8  C   UNL     1       4.547   3.586  19.264  0.00  0.00    +0.000 A 
ATOM      9  C   UNL     1       4.738   3.936  17.923  0.00  0.00    +0.000 A 
ATOM     10  C   UNL     1       3.744   3.652  16.978  0.00  0.00    +0.000 A 
ATOM     11  C   UNL     1       2.548   3.051  17.388  0.00  0.00    +0.000 A 
ENDBRANCH   2   9
ENDBRANCH   1   2
BRANCH   1  12
ATOM     12  C   UNL     1       4.145   6.912  16.880  0.00  0.00    +0.000 C 
BRANCH  12  13
ATOM     13  C   UNL     1       3.189   7.483  17.926  0.00  0.00    +0.000 A 
ATOM     14  C   UNL     1       2.968   6.800  19.133  0.00  0.00    +0.000 A 
ATOM     15  C   UNL     1       2.075   7.297  20.090  0.00  0.00    +0.000 A 
ATOM     16  C   UNL     1       1.368   8.492  19.871  0.00  0.00    +0.000 A 
ATOM     17  C   UNL     1       1.582   9.180  18.670  0.00  0.00    +0.000 A 
ATOM     18  C   UNL     1       2.479   8.679  17.714  0.00  0.00    +0.000 A 
BRANCH  16  19
ATOM     19  C   UNL     1       0.398   9.035  20.891  0.00  0.00    +0.000 C 
ATOM     20  F   UNL     1      -0.518   9.895  20.363  0.00  0.00    +0.000 F 
ATOM     21  F   UNL     1      -0.324   8.053  21.501  0.00  0.00    +0.000 F 
ATOM     22  F   UNL     1       1.016   9.718  21.895  0.00  0.00    +0.000 F 
ENDBRANCH  16  19
ENDBRANCH  12  13
ENDBRANCH   1  12
TORSDOF 5
ENDMDL
MODEL 4
REMARK VINA RESULT:      -6.9      4.225      5.829
REMARK  Name = 
REMARK  6 active torsions:
REMARK  status: ('A' for Active; 'I' for Inactive)
REMARK    1  A    between atoms: C_1  and  C_2
REMARK    2  A    between atoms: C_5  and  S_6
REMARK    3  A    between atoms: S_6  and  S_9
REMARK    4  A    between atoms: S_9  and  C_10
REMARK    5  A    between atoms: C_10  and  C_11
REMARK    6  A    between atoms: C_14  and  C_15
REMARK                            x       y       z     vdW  Elec       q    Type
REMARK                         _______ _______ _______ _____ _____    ______ ____
ROOT
ATOM      1  S   UNL     1       5.859   6.749  17.520  0.00  0.00    +0.000 S 
ENDROOT
BRANCH   1   2
ATOM      2  S   UNL     1       6.282   4.699  17.438  0.00  0.00    +0.000 S 
ATOM      3  O   UNL     1       7.249   4.397  18.488  0.00  0.00    +0.000 OA
ATOM      4  O   UNL     1       6.547   4.342  16.063  0.00  0.00    +0.000 OA
BRANCH   2   9
ATOM      5  C   UNL     1       0.989   2.086  19.006  0.00  0.00    +0.000 C 
ATOM      6  C   UNL     1       2.282   2.746  18.616  0.00  0.00    +0.000 A 
ATOM      7  C   UNL     1       2.516   3.170  17.301  0.00  0.00    +0.000 A 
ATOM      8  C   UNL     1       3.731   3.768  16.953  0.00  0.00    +0.000 A 
ATOM      9  C   UNL     1       4.728   3.938  17.920  0.00  0.00    +0.000 A 
ATOM     10  C   UNL     1       4.495   3.539  19.242  0.00  0.00    +0.000 A 
ATOM     11  C   UNL     1       3.277   2.939  19.582  0.00  0.00    +0.000 A 
ENDBRANCH   2   9
ENDBRANCH   1   2
BRANCH   1  12
ATOM     12  C   UNL     1       4.166   6.909  16.868  0.00  0.00    +0.000 C 
BRANCH  12  13
ATOM     13  C   UNL     1       3.203   7.397  17.949  0.00  0.00    +0.000 A 
ATOM     14  C   UNL     1       2.514   8.609  17.790  0.00  0.00    +0.000 A 
ATOM     15  C   UNL     1       1.648   9.082  18.784  0.00  0.00    +0.000 A 
ATOM     16  C   UNL     1       1.444   8.361  19.972  0.00  0.00    +0.000 A 
ATOM     17  C   UNL     1       2.127   7.150  20.140  0.00  0.00    +0.000 A 
ATOM     18  C   UNL     1       2.993   6.679  19.141  0.00  0.00    +0.000 A 
BRANCH  16  19
ATOM     19  C   UNL     1       0.519   8.863  21.053  0.00  0.00    +0.000 C 
ATOM     20  F   UNL     1      -0.201   9.960  20.684  0.00  0.00    +0.000 F 
ATOM     21  F   UNL     1      -0.397   7.928  21.433  0.00  0.00    +0.000 F 
ATOM     22  F   UNL     1       1.180   9.217  22.191  0.00  0.00    +0.000 F 
ENDBRANCH  16  19
ENDBRANCH  12  13
ENDBRANCH   1  12
TORSDOF 5
ENDMDL
MODEL 5
REMARK VINA RESULT:      -6.8      2.679      5.012
REMARK  Name = 
REMARK  6 active torsions:
REMARK  status: ('A' for Active; 'I' for Inactive)
REMARK    1  A    between atoms: C_1  and  C_2
REMARK    2  A    between atoms: C_5  and  S_6
REMARK    3  A    between atoms: S_6  and  S_9
REMARK    4  A    between atoms: S_9  and  C_10
REMARK    5  A    between atoms: C_10  and  C_11
REMARK    6  A    between atoms: C_14  and  C_15
REMARK                            x       y       z     vdW  Elec       q    Type
REMARK                         _______ _______ _______ _____ _____    ______ ____
ROOT
ATOM      1  S   UNL     1       1.964   3.490  19.446  0.00  0.00    +0.000 S 
ENDROOT
BRANCH   1   2
ATOM      2  S   UNL     1       3.776   2.586  18.911  0.00  0.00    +0.000 S 
ATOM      3  O   UNL     1       3.545   1.792  17.709  0.00  0.00    +0.000 OA
ATOM      4  O   UNL     1       4.354   1.989  20.093  0.00  0.00    +0.000 OA
BRANCH   2   9
ATOM      5  C   UNL     1       7.224   7.337  17.227  0.00  0.00    +0.000 C 
ATOM      6  C   UNL     1       6.386   6.156  17.629  0.00  0.00    +0.000 A 
ATOM      7  C   UNL     1       5.541   5.517  16.712  0.00  0.00    +0.000 A 
ATOM      8  C   UNL     1       4.757   4.428  17.108  0.00  0.00    +0.000 A 
ATOM      9  C   UNL     1       4.805   3.978  18.432  0.00  0.00    +0.000 A 
ATOM     10  C   UNL     1       5.664   4.595  19.350  0.00  0.00    +0.000 A 
ATOM     11  C   UNL     1       6.444   5.685  18.946  0.00  0.00    +0.000 A 
ENDBRANCH   2   9
ENDBRANCH   1   2
BRANCH   1  12
ATOM     12  C   UNL     1       2.417   4.786  20.642  0.00  0.00    +0.000 C 
BRANCH  12  13
ATOM     13  C   UNL     1       2.125   6.179  20.084  0.00  0.00    +0.000 A 
ATOM     14  C   UNL     1       2.414   6.480  18.744  0.00  0.00    +0.000 A 
ATOM     15  C   UNL     1       2.178   7.759  18.225  0.00  0.00    +0.000 A 
ATOM     16  C   UNL     1       1.648   8.782  19.029  0.00  0.00    +0.000 A 
ATOM     17  C   UNL     1       1.357   8.491  20.369  0.00  0.00    +0.000 A 
ATOM     18  C   UNL     1       1.595   7.208  20.884  0.00  0.00    +0.000 A 
BRANCH  16  19
ATOM     19  C   UNL     1       1.395  10.166  18.485  0.00  0.00    +0.000 C 
ATOM     20  F   UNL     1       1.340  11.126  19.450  0.00  0.00    +0.000 F 
ATOM     21  F   UNL     1       2.362  10.570  17.614  0.00  0.00    +0.000 F 
ATOM     22  F   UNL     1       0.220  10.257  17.801  0.00  0.00    +0.000 F 
ENDBRANCH  16  19
ENDBRANCH  12  13
ENDBRANCH   1  12
TORSDOF 5
ENDMDL
MODEL 6
REMARK VINA RESULT:      -6.8      2.776      5.015
REMARK  Name = 
REMARK  6 active torsions:
REMARK  status: ('A' for Active; 'I' for Inactive)
REMARK    1  A    between atoms: C_1  and  C_2
REMARK    2  A    between atoms: C_5  and  S_6
REMARK    3  A    between atoms: S_6  and  S_9
REMARK    4  A    between atoms: S_9  and  C_10
REMARK    5  A    between atoms: C_10  and  C_11
REMARK    6  A    between atoms: C_14  and  C_15
REMARK                            x       y       z     vdW  Elec       q    Type
REMARK                         _______ _______ _______ _____ _____    ______ ____
ROOT
ATOM      1  S   UNL     1       1.591   3.921  19.441  0.00  0.00    +0.000 S 
ENDROOT
BRANCH   1   2
ATOM      2  S   UNL     1       3.220   2.810  18.730  0.00  0.00    +0.000 S 
ATOM      3  O   UNL     1       2.820   2.177  17.478  0.00  0.00    +0.000 OA
ATOM      4  O   UNL     1       3.746   2.024  19.822  0.00  0.00    +0.000 OA
BRANCH   2   9
ATOM      5  C   UNL     1       7.288   7.128  17.279  0.00  0.00    +0.000 C 
ATOM      6  C   UNL     1       6.296   6.053  17.623  0.00  0.00    +0.000 A 
ATOM      7  C   UNL     1       5.362   5.596  16.683  0.00  0.00    +0.000 A 
ATOM      8  C   UNL     1       4.435   4.606  17.026  0.00  0.00    +0.000 A 
ATOM      9  C   UNL     1       4.430   4.071  18.319  0.00  0.00    +0.000 A 
ATOM     10  C   UNL     1       5.375   4.504  19.258  0.00  0.00    +0.000 A 
ATOM     11  C   UNL     1       6.297   5.497  18.908  0.00  0.00    +0.000 A 
ENDBRANCH   2   9
ENDBRANCH   1   2
BRANCH   1  12
ATOM     12  C   UNL     1       2.313   5.141  20.583  0.00  0.00    +0.000 C 
BRANCH  12  13
ATOM     13  C   UNL     1       2.058   6.568  20.098  0.00  0.00    +0.000 A 
ATOM     14  C   UNL     1       1.387   7.487  20.921  0.00  0.00    +0.000 A 
ATOM     15  C   UNL     1       1.123   8.790  20.480  0.00  0.00    +0.000 A 
ATOM     16  C   UNL     1       1.517   9.218  19.201  0.00  0.00    +0.000 A 
ATOM     17  C   UNL     1       2.187   8.308  18.373  0.00  0.00    +0.000 A 
ATOM     18  C   UNL     1       2.451   7.004  18.819  0.00  0.00    +0.000 A 
BRANCH  16  19
ATOM     19  C   UNL     1       1.233  10.616  18.713  0.00  0.00    +0.000 C 
ATOM     20  F   UNL     1       2.150  11.073  17.815  0.00  0.00    +0.000 F 
ATOM     21  F   UNL     1       0.024  10.718  18.092  0.00  0.00    +0.000 F 
ATOM     22  F   UNL     1       1.210  11.533  19.721  0.00  0.00    +0.000 F 
ENDBRANCH  16  19
ENDBRANCH  12  13
ENDBRANCH   1  12
TORSDOF 5
ENDMDL
MODEL 7
REMARK VINA RESULT:      -6.7      0.716      1.816
REMARK  Name = 
REMARK  6 active torsions:
REMARK  status: ('A' for Active; 'I' for Inactive)
REMARK    1  A    between atoms: C_1  and  C_2
REMARK    2  A    between atoms: C_5  and  S_6
REMARK    3  A    between atoms: S_6  and  S_9
REMARK    4  A    between atoms: S_9  and  C_10
REMARK    5  A    between atoms: C_10  and  C_11
REMARK    6  A    between atoms: C_14  and  C_15
REMARK                            x       y       z     vdW  Elec       q    Type
REMARK                         _______ _______ _______ _____ _____    ______ ____
ROOT
ATOM      1  S   UNL     1       3.866   2.289  20.182  0.00  0.00    +0.000 S 
ENDROOT
BRANCH   1   2
ATOM      2  S   UNL     1       1.965   3.111  20.495  0.00  0.00    +0.000 S 
ATOM      3  O   UNL     1       1.809   3.351  21.925  0.00  0.00    +0.000 OA
ATOM      4  O   UNL     1       1.000   2.319  19.768  0.00  0.00    +0.000 OA
BRANCH   2   9
ATOM      5  C   UNL     1       2.389   8.600  17.850  0.00  0.00    +0.000 C 
ATOM      6  C   UNL     1       2.268   7.256  18.511  0.00  0.00    +0.000 A 
ATOM      7  C   UNL     1       2.427   7.107  19.895  0.00  0.00    +0.000 A 
ATOM      8  C   UNL     1       2.326   5.845  20.491  0.00  0.00    +0.000 A 
ATOM      9  C   UNL     1       2.076   4.718  19.701  0.00  0.00    +0.000 A 
ATOM     10  C   UNL     1       1.892   4.859  18.320  0.00  0.00    +0.000 A 
ATOM     11  C   UNL     1       1.996   6.125  17.731  0.00  0.00    +0.000 A 
ENDBRANCH   2   9
ENDBRANCH   1   2
BRANCH   1  12
ATOM     12  C   UNL     1       4.222   2.577  18.419  0.00  0.00    +0.000 C 
BRANCH  12  13
ATOM     13  C   UNL     1       5.059   3.841  18.225  0.00  0.00    +0.000 A 
ATOM     14  C   UNL     1       5.236   4.384  16.943  0.00  0.00    +0.000 A 
ATOM     15  C   UNL     1       6.021   5.527  16.745  0.00  0.00    +0.000 A 
ATOM     16  C   UNL     1       6.661   6.163  17.823  0.00  0.00    +0.000 A 
ATOM     17  C   UNL     1       6.491   5.628  19.107  0.00  0.00    +0.000 A 
ATOM     18  C   UNL     1       5.702   4.483  19.300  0.00  0.00    +0.000 A 
BRANCH  16  19
ATOM     19  C   UNL     1       7.515   7.390  17.623  0.00  0.00    +0.000 C 
ATOM     20  F   UNL     1       6.810   8.555  17.674  0.00  0.00    +0.000 F 
ATOM     21  F   UNL     1       8.493   7.505  18.565  0.00  0.00    +0.000 F 
ATOM     22  F   UNL     1       8.157   7.395  16.421  0.00  0.00    +0.000 F 
ENDBRANCH  16  19
ENDBRANCH  12  13
ENDBRANCH   1  12
TORSDOF 5
ENDMDL
MODEL 8
REMARK VINA RESULT:      -6.7      2.229      4.354
REMARK  Name = 
REMARK  6 active torsions:
REMARK  status: ('A' for Active; 'I' for Inactive)
REMARK    1  A    between atoms: C_1  and  C_2
REMARK    2  A    between atoms: C_5  and  S_6
REMARK    3  A    between atoms: S_6  and  S_9
REMARK    4  A    between atoms: S_9  and  C_10
REMARK    5  A    between atoms: C_10  and  C_11
REMARK    6  A    between atoms: C_14  and  C_15
REMARK                            x       y       z     vdW  Elec       q    Type
REMARK                         _______ _______ _______ _____ _____    ______ ____
ROOT
ATOM      1  S   UNL     1       2.789   2.555  21.112  0.00  0.00    +0.000 S 
ENDROOT
BRANCH   1   2
ATOM      2  S   UNL     1       4.223   1.872  19.746  0.00  0.00    +0.000 S 
ATOM      3  O   UNL     1       3.556   0.984  18.799  0.00  0.00    +0.000 OA
ATOM      4  O   UNL     1       5.382   1.428  20.486  0.00  0.00    +0.000 OA
BRANCH   2   9
ATOM      5  C   UNL     1       5.708   6.908  16.626  0.00  0.00    +0.000 C 
ATOM      6  C   UNL     1       5.358   5.659  17.385  0.00  0.00    +0.000 A 
ATOM      7  C   UNL     1       4.902   4.509  16.726  0.00  0.00    +0.000 A 
ATOM      8  C   UNL     1       4.566   3.361  17.450  0.00  0.00    +0.000 A 
ATOM      9  C   UNL     1       4.674   3.358  18.845  0.00  0.00    +0.000 A 
ATOM     10  C   UNL     1       5.150   4.494  19.511  0.00  0.00    +0.000 A 
ATOM     11  C   UNL     1       5.482   5.641  18.779  0.00  0.00    +0.000 A 
ENDBRANCH   2   9
ENDBRANCH   1   2
BRANCH   1  12
ATOM     12  C   UNL     1       1.382   3.096  20.091  0.00  0.00    +0.000 C 
BRANCH  12  13
ATOM     13  C   UNL     1       1.565   4.537  19.618  0.00  0.00    +0.000 A 
ATOM     14  C   UNL     1       1.537   4.844  18.249  0.00  0.00    +0.000 A 
ATOM     15  C   UNL     1       1.729   6.156  17.799  0.00  0.00    +0.000 A 
ATOM     16  C   UNL     1       1.960   7.207  18.703  0.00  0.00    +0.000 A 
ATOM     17  C   UNL     1       1.991   6.911  20.073  0.00  0.00    +0.000 A 
ATOM     18  C   UNL     1       1.797   5.594  20.518  0.00  0.00    +0.000 A 
BRANCH  16  19
ATOM     19  C   UNL     1       2.176   8.623  18.232  0.00  0.00    +0.000 C 
ATOM     20  F   UNL     1       1.913   9.558  19.188  0.00  0.00    +0.000 F 
ATOM     21  F   UNL     1       3.458   8.852  17.832  0.00  0.00    +0.000 F 
ATOM     22  F   UNL     1       1.391   8.950  17.167  0.00  0.00    +0.000 F 
ENDBRANCH  16  19
ENDBRANCH  12  13
ENDBRANCH   1  12
TORSDOF 5
ENDMDL
MODEL 9
REMARK VINA RESULT:      -6.7      3.087      5.519
REMARK  Name = 
REMARK  6 active torsions:
REMARK  status: ('A' for Active; 'I' for Inactive)
REMARK    1  A    between atoms: C_1  and  C_2
REMARK    2  A    between atoms: C_5  and  S_6
REMARK    3  A    between atoms: S_6  and  S_9
REMARK    4  A    between atoms: S_9  and  C_10
REMARK    5  A    between atoms: C_10  and  C_11
REMARK    6  A    between atoms: C_14  and  C_15
REMARK                            x       y       z     vdW  Elec       q    Type
REMARK                         _______ _______ _______ _____ _____    ______ ____
ROOT
ATOM      1  S   UNL     1       1.658   4.221  19.400  0.00  0.00    +0.000 S 
ENDROOT
BRANCH   1   2
ATOM      2  S   UNL     1       3.065   3.204  18.228  0.00  0.00    +0.000 S 
ATOM      3  O   UNL     1       2.474   2.975  16.913  0.00  0.00    +0.000 OA
ATOM      4  O   UNL     1       3.594   2.106  19.002  0.00  0.00    +0.000 OA
BRANCH   2   9
ATOM      5  C   UNL     1       7.563   7.275  17.533  0.00  0.00    +0.000 C 
ATOM      6  C   UNL     1       6.450   6.284  17.720  0.00  0.00    +0.000 A 
ATOM      7  C   UNL     1       6.421   5.422  18.825  0.00  0.00    +0.000 A 
ATOM      8  C   UNL     1       5.385   4.494  18.975  0.00  0.00    +0.000 A 
ATOM      9  C   UNL     1       4.374   4.414  18.012  0.00  0.00    +0.000 A 
ATOM     10  C   UNL     1       4.382   5.287  16.916  0.00  0.00    +0.000 A 
ATOM     11  C   UNL     1       5.423   6.211  16.772  0.00  0.00    +0.000 A 
ENDBRANCH   2   9
ENDBRANCH   1   2
BRANCH   1  12
ATOM     12  C   UNL     1       2.610   5.501  20.277  0.00  0.00    +0.000 C 
BRANCH  12  13
ATOM     13  C   UNL     1       2.102   6.901  19.933  0.00  0.00    +0.000 A 
ATOM     14  C   UNL     1       2.343   7.450  18.663  0.00  0.00    +0.000 A 
ATOM     15  C   UNL     1       1.907   8.741  18.342  0.00  0.00    +0.000 A 
ATOM     16  C   UNL     1       1.219   9.530  19.279  0.00  0.00    +0.000 A 
ATOM     17  C   UNL     1       0.975   8.991  20.549  0.00  0.00    +0.000 A 
ATOM     18  C   UNL     1       1.412   7.696  20.867  0.00  0.00    +0.000 A 
BRANCH  16  19
ATOM     19  C   UNL     1       0.751  10.925  18.948  0.00  0.00    +0.000 C 
ATOM     20  F   UNL     1       0.487  11.684  20.049  0.00  0.00    +0.000 F 
ATOM     21  F   UNL     1       1.668  11.627  18.225  0.00  0.00    +0.000 F 
ATOM     22  F   UNL     1      -0.392  10.935  18.206  0.00  0.00    +0.000 F 
ENDBRANCH  16  19
ENDBRANCH  12  13
ENDBRANCH   1  12
TORSDOF 5
ENDMDL
