MODEL 1
REMARK VINA RESULT:      -8.7      0.000      0.000
REMARK  Name = 
REMARK  7 active torsions:
REMARK  status: ('A' for Active; 'I' for Inactive)
REMARK    1  A    between atoms: C_2  and  OXT_3
REMARK    2  A    between atoms: C_2  and  CA_4
REMARK    3  A    between atoms: CA_4  and  N_23
REMARK    4  A    between atoms: C_5  and  C_6
REMARK    5  A    between atoms: N_8  and  C_9
REMARK    6  A    between atoms: C_16  and  C_17
REMARK    7  A    between atoms: C_24  and  C_26
REMARK                            x       y       z     vdW  Elec       q    Type
REMARK                         _______ _______ _______ _____ _____    ______ ____
ROOT
ATOM      1  C   UNL     1       2.459   6.577  18.827  0.00  0.00    +0.000 A 
ATOM      2  C   UNL     1       2.079   7.884  18.985  0.00  0.00    +0.000 A 
ATOM      3  N   UNL     1       1.470   7.969  20.214  0.00  0.00    +0.000 N 
ATOM      4  N   UNL     1       1.394   6.752  20.819  0.00  0.00    +0.000 NA
ATOM      5  C   UNL     1       1.972   5.887  19.967  0.00  0.00    +0.000 A 
ENDROOT
BRANCH   3   6
ATOM      6  C   UNL     1       0.949   9.141  20.831  0.00  0.00    +0.000 A 
ATOM      7  C   UNL     1       1.029  10.388  20.193  0.00  0.00    +0.000 A 
ATOM      8  C   UNL     1       0.520  11.531  20.816  0.00  0.00    +0.000 A 
ATOM      9  C   UNL     1      -0.064  11.437  22.076  0.00  0.00    +0.000 A 
ATOM     10  C   UNL     1      -0.148  10.203  22.716  0.00  0.00    +0.000 A 
ATOM     11  C   UNL     1       0.351   9.053  22.097  0.00  0.00    +0.000 A 
ENDBRANCH   3   6
BRANCH   5  12
ATOM     12  C   UNL     1       2.036   4.454  20.273  0.00  0.00    +0.000 A 
ATOM     13  C   UNL     1       1.635   3.487  19.347  0.00  0.00    +0.000 A 
ATOM     14  C   UNL     1       1.699   2.133  19.680  0.00  0.00    +0.000 A 
ATOM     15  C   UNL     1       2.166   1.784  20.937  0.00  0.00    +0.000 A 
ATOM     16  N   UNL     1       2.575   2.678  21.859  0.00  0.00    +0.000 NA
ATOM     17  C   UNL     1       2.509   3.986  21.498  0.00  0.00    +0.000 A 
ENDBRANCH   5  12
BRANCH   1  19
ATOM     18  CA  UNL     1       4.302   5.390  17.658  0.00  0.00    +0.000 C 
ATOM     19  C   UNL     1       3.152   6.092  17.686  0.00  0.00    +0.000 C 
BRANCH  18  20
ATOM     20  N   UNL     1       4.884   4.915  16.482  0.00  0.00    +0.000 N 
ATOM     21  C   UNL     1       5.951   5.484  15.802  0.00  0.00    +0.000 C 
ATOM     22  O   UNL     1       6.629   6.414  16.221  0.00  0.00    +0.000 OA
ATOM     23  H   UNL     1       4.400   4.132  16.054  0.00  0.00    +0.000 HD
BRANCH  21  24
ATOM     24  C   UNL     1       6.291   4.900  14.476  0.00  0.00    +0.000 A 
ATOM     25  C   UNL     1       7.444   5.378  13.837  0.00  0.00    +0.000 A 
ATOM     26  C   UNL     1       7.826   4.871  12.594  0.00  0.00    +0.000 A 
ATOM     27  C   UNL     1       7.059   3.880  11.987  0.00  0.00    +0.000 A 
ATOM     28  C   UNL     1       5.921   3.386  12.625  0.00  0.00    +0.000 A 
ATOM     29  C   UNL     1       5.536   3.889  13.871  0.00  0.00    +0.000 A 
ENDBRANCH  21  24
ENDBRANCH  18  20
BRANCH  18  31
ATOM     30  O   UNL     1       5.428   5.824  19.779  0.00  0.00    +0.000 OA
ATOM     31  C   UNL     1       5.030   5.048  18.931  0.00  0.00    +0.000 C 
BRANCH  31  32
ATOM     32  OXT UNL     1       5.169   3.701  19.047  0.00  0.00    +0.000 OA
ATOM     33  HXT UNL     1       5.156   3.416  19.981  0.00  0.00    +0.000 HD
ENDBRANCH  31  32
ENDBRANCH  18  31
ENDBRANCH   1  19
TORSDOF 7
ENDMDL
MODEL 2
REMARK VINA RESULT:      -8.6      4.093      8.164
REMARK  Name = 
REMARK  7 active torsions:
REMARK  status: ('A' for Active; 'I' for Inactive)
REMARK    1  A    between atoms: C_2  and  OXT_3
REMARK    2  A    between atoms: C_2  and  CA_4
REMARK    3  A    between atoms: CA_4  and  N_23
REMARK    4  A    between atoms: C_5  and  C_6
REMARK    5  A    between atoms: N_8  and  C_9
REMARK    6  A    between atoms: C_16  and  C_17
REMARK    7  A    between atoms: C_24  and  C_26
REMARK                            x       y       z     vdW  Elec       q    Type
REMARK                         _______ _______ _______ _____ _____    ______ ____
ROOT
ATOM      1  C   UNL     1       6.390   6.034  16.217  0.00  0.00    +0.000 A 
ATOM      2  C   UNL     1       6.831   5.544  15.017  0.00  0.00    +0.000 A 
ATOM      3  N   UNL     1       5.909   4.609  14.613  0.00  0.00    +0.000 N 
ATOM      4  N   UNL     1       4.927   4.442  15.540  0.00  0.00    +0.000 NA
ATOM      5  C   UNL     1       5.226   5.290  16.541  0.00  0.00    +0.000 A 
ENDROOT
BRANCH   3   6
ATOM      6  C   UNL     1       5.923   3.862  13.400  0.00  0.00    +0.000 A 
ATOM      7  C   UNL     1       4.726   3.483  12.774  0.00  0.00    +0.000 A 
ATOM      8  C   UNL     1       4.757   2.743  11.589  0.00  0.00    +0.000 A 
ATOM      9  C   UNL     1       5.977   2.374  11.028  0.00  0.00    +0.000 A 
ATOM     10  C   UNL     1       7.169   2.747  11.644  0.00  0.00    +0.000 A 
ATOM     11  C   UNL     1       7.148   3.494  12.825  0.00  0.00    +0.000 A 
ENDBRANCH   3   6
BRANCH   5  12
ATOM     12  C   UNL     1       4.397   5.355  17.748  0.00  0.00    +0.000 A 
ATOM     13  C   UNL     1       3.582   6.457  18.022  0.00  0.00    +0.000 A 
ATOM     14  C   UNL     1       2.817   6.487  19.189  0.00  0.00    +0.000 A 
ATOM     15  C   UNL     1       2.890   5.407  20.054  0.00  0.00    +0.000 A 
ATOM     16  N   UNL     1       3.650   4.317  19.828  0.00  0.00    +0.000 NA
ATOM     17  C   UNL     1       4.373   4.316  18.678  0.00  0.00    +0.000 A 
ENDBRANCH   5  12
BRANCH   1  19
ATOM     18  CA  UNL     1       7.760   6.917  18.093  0.00  0.00    +0.000 C 
ATOM     19  C   UNL     1       7.063   7.051  16.948  0.00  0.00    +0.000 C 
BRANCH  18  20
ATOM     20  N   UNL     1       8.428   7.973  18.714  0.00  0.00    +0.000 N 
ATOM     21  C   UNL     1       8.393   9.307  18.336  0.00  0.00    +0.000 C 
ATOM     22  O   UNL     1       7.648   9.770  17.481  0.00  0.00    +0.000 OA
ATOM     23  H   UNL     1       9.071   7.695  19.449  0.00  0.00    +0.000 HD
BRANCH  21  24
ATOM     24  C   UNL     1       9.323  10.231  19.040  0.00  0.00    +0.000 A 
ATOM     25  C   UNL     1      10.387  10.765  18.299  0.00  0.00    +0.000 A 
ATOM     26  C   UNL     1      11.294  11.642  18.894  0.00  0.00    +0.000 A 
ATOM     27  C   UNL     1      11.139  11.993  20.233  0.00  0.00    +0.000 A 
ATOM     28  C   UNL     1      10.072  11.481  20.972  0.00  0.00    +0.000 A 
ATOM     29  C   UNL     1       9.160  10.604  20.380  0.00  0.00    +0.000 A 
ENDBRANCH  21  24
ENDBRANCH  18  20
BRANCH  18  31
ATOM     30  O   UNL     1       8.150   4.513  18.253  0.00  0.00    +0.000 OA
ATOM     31  C   UNL     1       7.880   5.578  18.774  0.00  0.00    +0.000 C 
BRANCH  31  32
ATOM     32  OXT UNL     1       7.676   5.710  20.111  0.00  0.00    +0.000 OA
ATOM     33  HXT UNL     1       7.239   4.923  20.488  0.00  0.00    +0.000 HD
ENDBRANCH  31  32
ENDBRANCH  18  31
ENDBRANCH   1  19
TORSDOF 7
ENDMDL
MODEL 3
REMARK VINA RESULT:      -8.6      0.547      1.232
REMARK  Name = 
REMARK  7 active torsions:
REMARK  status: ('A' for Active; 'I' for Inactive)
REMARK    1  A    between atoms: C_2  and  OXT_3
REMARK    2  A    between atoms: C_2  and  CA_4
REMARK    3  A    between atoms: CA_4  and  N_23
REMARK    4  A    between atoms: C_5  and  C_6
REMARK    5  A    between atoms: N_8  and  C_9
REMARK    6  A    between atoms: C_16  and  C_17
REMARK    7  A    between atoms: C_24  and  C_26
REMARK                            x       y       z     vdW  Elec       q    Type
REMARK                         _______ _______ _______ _____ _____    ______ ____
ROOT
ATOM      1  C   UNL     1       2.500   6.609  18.725  0.00  0.00    +0.000 A 
ATOM      2  C   UNL     1       2.136   7.917  18.906  0.00  0.00    +0.000 A 
ATOM      3  N   UNL     1       1.499   7.983  20.122  0.00  0.00    +0.000 N 
ATOM      4  N   UNL     1       1.391   6.753  20.696  0.00  0.00    +0.000 NA
ATOM      5  C   UNL     1       1.977   5.900  19.837  0.00  0.00    +0.000 A 
ENDROOT
BRANCH   3   6
ATOM      6  C   UNL     1       0.981   9.148  20.755  0.00  0.00    +0.000 A 
ATOM      7  C   UNL     1       1.020  10.394  20.112  0.00  0.00    +0.000 A 
ATOM      8  C   UNL     1       0.514  11.531  20.750  0.00  0.00    +0.000 A 
ATOM      9  C   UNL     1      -0.025  11.431  22.030  0.00  0.00    +0.000 A 
ATOM     10  C   UNL     1      -0.067  10.196  22.674  0.00  0.00    +0.000 A 
ATOM     11  C   UNL     1       0.428   9.053  22.040  0.00  0.00    +0.000 A 
ENDBRANCH   3   6
BRANCH   5  12
ATOM     12  C   UNL     1       2.012   4.460  20.110  0.00  0.00    +0.000 A 
ATOM     13  C   UNL     1       2.437   3.955  21.342  0.00  0.00    +0.000 A 
ATOM     14  C   UNL     1       2.469   2.577  21.559  0.00  0.00    +0.000 A 
ATOM     15  C   UNL     1       2.072   1.738  20.531  0.00  0.00    +0.000 A 
ATOM     16  N   UNL     1       1.643   2.176  19.331  0.00  0.00    +0.000 NA
ATOM     17  C   UNL     1       1.615   3.522  19.157  0.00  0.00    +0.000 A 
ENDBRANCH   5  12
BRANCH   1  19
ATOM     18  CA  UNL     1       4.355   5.426  17.571  0.00  0.00    +0.000 C 
ATOM     19  C   UNL     1       3.213   6.141  17.589  0.00  0.00    +0.000 C 
BRANCH  18  20
ATOM     20  N   UNL     1       4.957   4.969  16.398  0.00  0.00    +0.000 N 
ATOM     21  C   UNL     1       6.114   5.468  15.817  0.00  0.00    +0.000 C 
ATOM     22  O   UNL     1       6.853   6.296  16.335  0.00  0.00    +0.000 OA
ATOM     23  H   UNL     1       4.425   4.269  15.892  0.00  0.00    +0.000 HD
BRANCH  21  24
ATOM     24  C   UNL     1       6.474   4.938  14.474  0.00  0.00    +0.000 A 
ATOM     25  C   UNL     1       5.657   3.934  13.935  0.00  0.00    +0.000 A 
ATOM     26  C   UNL     1       5.933   3.396  12.678  0.00  0.00    +0.000 A 
ATOM     27  C   UNL     1       7.025   3.864  11.950  0.00  0.00    +0.000 A 
ATOM     28  C   UNL     1       7.831   4.876  12.471  0.00  0.00    +0.000 A 
ATOM     29  C   UNL     1       7.558   5.419  13.729  0.00  0.00    +0.000 A 
ENDBRANCH  21  24
ENDBRANCH  18  20
BRANCH  18  31
ATOM     30  O   UNL     1       5.428   5.800  19.731  0.00  0.00    +0.000 OA
ATOM     31  C   UNL     1       5.051   5.048  18.852  0.00  0.00    +0.000 C 
BRANCH  31  32
ATOM     32  OXT UNL     1       5.186   3.698  18.934  0.00  0.00    +0.000 OA
ATOM     33  HXT UNL     1       5.661   3.431  19.744  0.00  0.00    +0.000 HD
ENDBRANCH  31  32
ENDBRANCH  18  31
ENDBRANCH   1  19
TORSDOF 7
ENDMDL
MODEL 4
REMARK VINA RESULT:      -8.4      0.197      1.042
REMARK  Name = 
REMARK  7 active torsions:
REMARK  status: ('A' for Active; 'I' for Inactive)
REMARK    1  A    between atoms: C_2  and  OXT_3
REMARK    2  A    between atoms: C_2  and  CA_4
REMARK    3  A    between atoms: CA_4  and  N_23
REMARK    4  A    between atoms: C_5  and  C_6
REMARK    5  A    between atoms: N_8  and  C_9
REMARK    6  A    between atoms: C_16  and  C_17
REMARK    7  A    between atoms: C_24  and  C_26
REMARK                            x       y       z     vdW  Elec       q    Type
REMARK                         _______ _______ _______ _____ _____    ______ ____
ROOT
ATOM      1  C   UNL     1       2.472   6.552  18.806  0.00  0.00    +0.000 A 
ATOM      2  C   UNL     1       2.093   7.859  18.958  0.00  0.00    +0.000 A 
ATOM      3  N   UNL     1       1.483   7.950  20.186  0.00  0.00    +0.000 N 
ATOM      4  N   UNL     1       1.406   6.736  20.797  0.00  0.00    +0.000 NA
ATOM      5  C   UNL     1       1.984   5.867  19.949  0.00  0.00    +0.000 A 
ENDROOT
BRANCH   3   6
ATOM      6  C   UNL     1       0.963   9.126  20.798  0.00  0.00    +0.000 A 
ATOM      7  C   UNL     1       1.046  10.370  20.155  0.00  0.00    +0.000 A 
ATOM      8  C   UNL     1       0.537  11.516  20.772  0.00  0.00    +0.000 A 
ATOM      9  C   UNL     1      -0.049  11.428  22.032  0.00  0.00    +0.000 A 
ATOM     10  C   UNL     1      -0.135  10.196  22.677  0.00  0.00    +0.000 A 
ATOM     11  C   UNL     1       0.363   9.044  22.063  0.00  0.00    +0.000 A 
ENDBRANCH   3   6
BRANCH   5  12
ATOM     12  C   UNL     1       2.047   4.436  20.261  0.00  0.00    +0.000 A 
ATOM     13  C   UNL     1       1.718   3.462  19.314  0.00  0.00    +0.000 A 
ATOM     14  C   UNL     1       1.778   2.109  19.653  0.00  0.00    +0.000 A 
ATOM     15  C   UNL     1       2.169   1.768  20.938  0.00  0.00    +0.000 A 
ATOM     16  N   UNL     1       2.508   2.669  21.881  0.00  0.00    +0.000 NA
ATOM     17  C   UNL     1       2.449   3.975  21.514  0.00  0.00    +0.000 A 
ENDBRANCH   5  12
BRANCH   1  19
ATOM     18  CA  UNL     1       4.342   5.405  17.639  0.00  0.00    +0.000 C 
ATOM     19  C   UNL     1       3.165   6.061  17.667  0.00  0.00    +0.000 C 
BRANCH  18  20
ATOM     20  N   UNL     1       4.923   4.918  16.467  0.00  0.00    +0.000 N 
ATOM     21  C   UNL     1       5.993   5.477  15.784  0.00  0.00    +0.000 C 
ATOM     22  O   UNL     1       6.674   6.408  16.197  0.00  0.00    +0.000 OA
ATOM     23  H   UNL     1       4.435   4.135  16.044  0.00  0.00    +0.000 HD
BRANCH  21  24
ATOM     24  C   UNL     1       6.332   4.883  14.463  0.00  0.00    +0.000 A 
ATOM     25  C   UNL     1       5.438   3.945  13.928  0.00  0.00    +0.000 A 
ATOM     26  C   UNL     1       5.690   3.352  12.691  0.00  0.00    +0.000 A 
ATOM     27  C   UNL     1       6.835   3.699  11.979  0.00  0.00    +0.000 A 
ATOM     28  C   UNL     1       7.721   4.646  12.495  0.00  0.00    +0.000 A 
ATOM     29  C   UNL     1       7.472   5.244  13.733  0.00  0.00    +0.000 A 
ENDBRANCH  21  24
ENDBRANCH  18  20
BRANCH  18  31
ATOM     30  O   UNL     1       5.166   4.075  19.512  0.00  0.00    +0.000 OA
ATOM     31  C   UNL     1       5.104   5.129  18.909  0.00  0.00    +0.000 C 
BRANCH  31  32
ATOM     32  OXT UNL     1       5.777   6.241  19.304  0.00  0.00    +0.000 OA
ATOM     33  HXT UNL     1       5.737   6.946  18.630  0.00  0.00    +0.000 HD
ENDBRANCH  31  32
ENDBRANCH  18  31
ENDBRANCH   1  19
TORSDOF 7
ENDMDL
MODEL 5
REMARK VINA RESULT:      -8.3      0.585      1.613
REMARK  Name = 
REMARK  7 active torsions:
REMARK  status: ('A' for Active; 'I' for Inactive)
REMARK    1  A    between atoms: C_2  and  OXT_3
REMARK    2  A    between atoms: C_2  and  CA_4
REMARK    3  A    between atoms: CA_4  and  N_23
REMARK    4  A    between atoms: C_5  and  C_6
REMARK    5  A    between atoms: N_8  and  C_9
REMARK    6  A    between atoms: C_16  and  C_17
REMARK    7  A    between atoms: C_24  and  C_26
REMARK                            x       y       z     vdW  Elec       q    Type
REMARK                         _______ _______ _______ _____ _____    ______ ____
ROOT
ATOM      1  C   UNL     1       2.508   6.546  18.704  0.00  0.00    +0.000 A 
ATOM      2  C   UNL     1       2.161   7.858  18.887  0.00  0.00    +0.000 A 
ATOM      3  N   UNL     1       1.527   7.930  20.104  0.00  0.00    +0.000 N 
ATOM      4  N   UNL     1       1.403   6.701  20.676  0.00  0.00    +0.000 NA
ATOM      5  C   UNL     1       1.976   5.842  19.815  0.00  0.00    +0.000 A 
ENDROOT
BRANCH   3   6
ATOM      6  C   UNL     1       1.025   9.101  20.739  0.00  0.00    +0.000 A 
ATOM      7  C   UNL     1       0.506   9.048  22.041  0.00  0.00    +0.000 A 
ATOM      8  C   UNL     1       0.009  10.206  22.648  0.00  0.00    +0.000 A 
ATOM      9  C   UNL     1       0.021  11.415  21.958  0.00  0.00    +0.000 A 
ATOM     10  C   UNL     1       0.535  11.475  20.665  0.00  0.00    +0.000 A 
ATOM     11  C   UNL     1       1.042  10.325  20.054  0.00  0.00    +0.000 A 
ENDBRANCH   3   6
BRANCH   5  12
ATOM     12  C   UNL     1       1.993   4.401  20.086  0.00  0.00    +0.000 A 
ATOM     13  C   UNL     1       2.291   3.894  21.354  0.00  0.00    +0.000 A 
ATOM     14  C   UNL     1       2.309   2.515  21.569  0.00  0.00    +0.000 A 
ATOM     15  C   UNL     1       2.027   1.678  20.502  0.00  0.00    +0.000 A 
ATOM     16  N   UNL     1       1.722   2.118  19.265  0.00  0.00    +0.000 NA
ATOM     17  C   UNL     1       1.703   3.465  19.094  0.00  0.00    +0.000 A 
ENDBRANCH   5  12
BRANCH   1  19
ATOM     18  CA  UNL     1       4.386   5.406  17.543  0.00  0.00    +0.000 C 
ATOM     19  C   UNL     1       3.214   6.070  17.566  0.00  0.00    +0.000 C 
BRANCH  18  20
ATOM     20  N   UNL     1       4.980   4.935  16.371  0.00  0.00    +0.000 N 
ATOM     21  C   UNL     1       6.089   5.473  15.736  0.00  0.00    +0.000 C 
ATOM     22  O   UNL     1       6.795   6.361  16.198  0.00  0.00    +0.000 OA
ATOM     23  H   UNL     1       4.473   4.186  15.909  0.00  0.00    +0.000 HD
BRANCH  21  24
ATOM     24  C   UNL     1       6.441   4.909  14.404  0.00  0.00    +0.000 A 
ATOM     25  C   UNL     1       5.596   3.922  13.878  0.00  0.00    +0.000 A 
ATOM     26  C   UNL     1       5.862   3.354  12.632  0.00  0.00    +0.000 A 
ATOM     27  C   UNL     1       6.972   3.775  11.903  0.00  0.00    +0.000 A 
ATOM     28  C   UNL     1       7.807   4.770  12.412  0.00  0.00    +0.000 A 
ATOM     29  C   UNL     1       7.543   5.343  13.658  0.00  0.00    +0.000 A 
ENDBRANCH  21  24
ENDBRANCH  18  20
BRANCH  18  31
ATOM     30  O   UNL     1       5.140   4.052  19.428  0.00  0.00    +0.000 OA
ATOM     31  C   UNL     1       5.129   5.104  18.818  0.00  0.00    +0.000 C 
BRANCH  31  32
ATOM     32  OXT UNL     1       5.851   6.186  19.210  0.00  0.00    +0.000 OA
ATOM     33  HXT UNL     1       5.298   6.991  19.256  0.00  0.00    +0.000 HD
ENDBRANCH  31  32
ENDBRANCH  18  31
ENDBRANCH   1  19
TORSDOF 7
ENDMDL
MODEL 6
REMARK VINA RESULT:      -8.2      4.087      8.192
REMARK  Name = 
REMARK  7 active torsions:
REMARK  status: ('A' for Active; 'I' for Inactive)
REMARK    1  A    between atoms: C_2  and  OXT_3
REMARK    2  A    between atoms: C_2  and  CA_4
REMARK    3  A    between atoms: CA_4  and  N_23
REMARK    4  A    between atoms: C_5  and  C_6
REMARK    5  A    between atoms: N_8  and  C_9
REMARK    6  A    between atoms: C_16  and  C_17
REMARK    7  A    between atoms: C_24  and  C_26
REMARK                            x       y       z     vdW  Elec       q    Type
REMARK                         _______ _______ _______ _____ _____    ______ ____
ROOT
ATOM      1  C   UNL     1       6.399   6.037  16.233  0.00  0.00    +0.000 A 
ATOM      2  C   UNL     1       6.838   5.533  15.038  0.00  0.00    +0.000 A 
ATOM      3  N   UNL     1       5.912   4.598  14.642  0.00  0.00    +0.000 N 
ATOM      4  N   UNL     1       4.929   4.444  15.571  0.00  0.00    +0.000 NA
ATOM      5  C   UNL     1       5.231   5.301  16.563  0.00  0.00    +0.000 A 
ENDROOT
BRANCH   3   6
ATOM      6  C   UNL     1       5.923   3.840  13.437  0.00  0.00    +0.000 A 
ATOM      7  C   UNL     1       7.132   3.426  12.858  0.00  0.00    +0.000 A 
ATOM      8  C   UNL     1       7.126   2.688  11.670  0.00  0.00    +0.000 A 
ATOM      9  C   UNL     1       5.919   2.367  11.054  0.00  0.00    +0.000 A 
ATOM     10  C   UNL     1       4.715   2.775  11.624  0.00  0.00    +0.000 A 
ATOM     11  C   UNL     1       4.711   3.505  12.816  0.00  0.00    +0.000 A 
ENDBRANCH   3   6
BRANCH   5  12
ATOM     12  C   UNL     1       4.402   5.381  17.770  0.00  0.00    +0.000 A 
ATOM     13  C   UNL     1       4.378   4.352  18.715  0.00  0.00    +0.000 A 
ATOM     14  C   UNL     1       3.567   4.460  19.845  0.00  0.00    +0.000 A 
ATOM     15  C   UNL     1       2.798   5.603  19.999  0.00  0.00    +0.000 A 
ATOM     16  N   UNL     1       2.797   6.627  19.122  0.00  0.00    +0.000 NA
ATOM     17  C   UNL     1       3.606   6.493  18.040  0.00  0.00    +0.000 A 
ENDBRANCH   5  12
BRANCH   1  19
ATOM     18  CA  UNL     1       7.767   6.933  18.104  0.00  0.00    +0.000 C 
ATOM     19  C   UNL     1       7.076   7.057  16.954  0.00  0.00    +0.000 C 
BRANCH  18  20
ATOM     20  N   UNL     1       8.441   7.991  18.714  0.00  0.00    +0.000 N 
ATOM     21  C   UNL     1       8.417   9.321  18.319  0.00  0.00    +0.000 C 
ATOM     22  O   UNL     1       7.680   9.778  17.454  0.00  0.00    +0.000 OA
ATOM     23  H   UNL     1       9.078   7.718  19.456  0.00  0.00    +0.000 HD
BRANCH  21  24
ATOM     24  C   UNL     1       9.351  10.246  19.017  0.00  0.00    +0.000 A 
ATOM     25  C   UNL     1       9.065  10.569  20.351  0.00  0.00    +0.000 A 
ATOM     26  C   UNL     1       9.901  11.426  21.066  0.00  0.00    +0.000 A 
ATOM     27  C   UNL     1      11.032  11.960  20.453  0.00  0.00    +0.000 A 
ATOM     28  C   UNL     1      11.334  11.628  19.132  0.00  0.00    +0.000 A 
ATOM     29  C   UNL     1      10.501  10.769  18.412  0.00  0.00    +0.000 A 
ENDBRANCH  21  24
ENDBRANCH  18  20
BRANCH  18  31
ATOM     30  O   UNL     1       8.126   4.526  18.291  0.00  0.00    +0.000 OA
ATOM     31  C   UNL     1       7.876   5.601  18.801  0.00  0.00    +0.000 C 
BRANCH  31  32
ATOM     32  OXT UNL     1       7.687   5.753  20.138  0.00  0.00    +0.000 OA
ATOM     33  HXT UNL     1       7.302   6.626  20.351  0.00  0.00    +0.000 HD
ENDBRANCH  31  32
ENDBRANCH  18  31
ENDBRANCH   1  19
TORSDOF 7
ENDMDL
MODEL 7
REMARK VINA RESULT:      -8.1      4.095      7.046
REMARK  Name = 
REMARK  7 active torsions:
REMARK  status: ('A' for Active; 'I' for Inactive)
REMARK    1  A    between atoms: C_2  and  OXT_3
REMARK    2  A    between atoms: C_2  and  CA_4
REMARK    3  A    between atoms: CA_4  and  N_23
REMARK    4  A    between atoms: C_5  and  C_6
REMARK    5  A    between atoms: N_8  and  C_9
REMARK    6  A    between atoms: C_16  and  C_17
REMARK    7  A    between atoms: C_24  and  C_26
REMARK                            x       y       z     vdW  Elec       q    Type
REMARK                         _______ _______ _______ _____ _____    ______ ____
ROOT
ATOM      1  C   UNL     1       5.205   6.239  17.126  0.00  0.00    +0.000 A 
ATOM      2  C   UNL     1       4.238   6.056  18.079  0.00  0.00    +0.000 A 
ATOM      3  N   UNL     1       3.641   4.849  17.805  0.00  0.00    +0.000 N 
ATOM      4  N   UNL     1       4.151   4.284  16.677  0.00  0.00    +0.000 NA
ATOM      5  C   UNL     1       5.091   5.139  16.237  0.00  0.00    +0.000 A 
ENDROOT
BRANCH   3   6
ATOM      6  C   UNL     1       2.607   4.217  18.553  0.00  0.00    +0.000 A 
ATOM      7  C   UNL     1       2.057   4.835  19.686  0.00  0.00    +0.000 A 
ATOM      8  C   UNL     1       1.047   4.198  20.413  0.00  0.00    +0.000 A 
ATOM      9  C   UNL     1       0.588   2.944  20.020  0.00  0.00    +0.000 A 
ATOM     10  C   UNL     1       1.130   2.325  18.895  0.00  0.00    +0.000 A 
ATOM     11  C   UNL     1       2.133   2.958  18.157  0.00  0.00    +0.000 A 
ENDBRANCH   3   6
BRANCH   5  12
ATOM     12  C   UNL     1       5.833   4.874  15.000  0.00  0.00    +0.000 A 
ATOM     13  C   UNL     1       5.371   3.964  14.046  0.00  0.00    +0.000 A 
ATOM     14  C   UNL     1       6.113   3.729  12.887  0.00  0.00    +0.000 A 
ATOM     15  C   UNL     1       7.303   4.417  12.716  0.00  0.00    +0.000 A 
ATOM     16  N   UNL     1       7.784   5.313  13.600  0.00  0.00    +0.000 NA
ATOM     17  C   UNL     1       7.032   5.525  14.711  0.00  0.00    +0.000 A 
ENDBRANCH   5  12
BRANCH   1  19
ATOM     18  CA  UNL     1       7.326   7.459  17.558  0.00  0.00    +0.000 C 
ATOM     19  C   UNL     1       6.067   7.367  17.086  0.00  0.00    +0.000 C 
BRANCH  18  20
ATOM     20  N   UNL     1       8.114   8.602  17.429  0.00  0.00    +0.000 N 
ATOM     21  C   UNL     1       8.553   9.422  18.459  0.00  0.00    +0.000 C 
ATOM     22  O   UNL     1       8.424   9.173  19.652  0.00  0.00    +0.000 OA
ATOM     23  H   UNL     1       8.288   8.893  16.472  0.00  0.00    +0.000 HD
BRANCH  21  24
ATOM     24  C   UNL     1       9.237  10.685  18.069  0.00  0.00    +0.000 A 
ATOM     25  C   UNL     1       8.430  11.793  17.776  0.00  0.00    +0.000 A 
ATOM     26  C   UNL     1       9.006  13.010  17.409  0.00  0.00    +0.000 A 
ATOM     27  C   UNL     1      10.392  13.126  17.339  0.00  0.00    +0.000 A 
ATOM     28  C   UNL     1      11.202  12.033  17.647  0.00  0.00    +0.000 A 
ATOM     29  C   UNL     1      10.631  10.813  18.017  0.00  0.00    +0.000 A 
ENDBRANCH  21  24
ENDBRANCH  18  20
BRANCH  18  31
ATOM     30  O   UNL     1       8.260   5.213  17.758  0.00  0.00    +0.000 OA
ATOM     31  C   UNL     1       7.980   6.290  18.248  0.00  0.00    +0.000 C 
BRANCH  31  32
ATOM     32  OXT UNL     1       8.266   6.605  19.539  0.00  0.00    +0.000 OA
ATOM     33  HXT UNL     1       9.132   6.248  19.814  0.00  0.00    +0.000 HD
ENDBRANCH  31  32
ENDBRANCH  18  31
ENDBRANCH   1  19
TORSDOF 7
ENDMDL
MODEL 8
REMARK VINA RESULT:      -8.0      1.012      1.595
REMARK  Name = 
REMARK  7 active torsions:
REMARK  status: ('A' for Active; 'I' for Inactive)
REMARK    1  A    between atoms: C_2  and  OXT_3
REMARK    2  A    between atoms: C_2  and  CA_4
REMARK    3  A    between atoms: CA_4  and  N_23
REMARK    4  A    between atoms: C_5  and  C_6
REMARK    5  A    between atoms: N_8  and  C_9
REMARK    6  A    between atoms: C_16  and  C_17
REMARK    7  A    between atoms: C_24  and  C_26
REMARK                            x       y       z     vdW  Elec       q    Type
REMARK                         _______ _______ _______ _____ _____    ______ ____
ROOT
ATOM      1  C   UNL     1       2.468   6.942  18.608  0.00  0.00    +0.000 A 
ATOM      2  C   UNL     1       2.015   8.204  18.888  0.00  0.00    +0.000 A 
ATOM      3  N   UNL     1       1.458   8.151  20.143  0.00  0.00    +0.000 N 
ATOM      4  N   UNL     1       1.486   6.888  20.649  0.00  0.00    +0.000 NA
ATOM      5  C   UNL     1       2.077   6.133  19.707  0.00  0.00    +0.000 A 
ENDROOT
BRANCH   3   6
ATOM      6  C   UNL     1       0.894   9.235  20.875  0.00  0.00    +0.000 A 
ATOM      7  C   UNL     1       0.913  10.539  20.359  0.00  0.00    +0.000 A 
ATOM      8  C   UNL     1       0.361  11.593  21.093  0.00  0.00    +0.000 A 
ATOM      9  C   UNL     1      -0.204  11.353  22.343  0.00  0.00    +0.000 A 
ATOM     10  C   UNL     1      -0.226  10.060  22.861  0.00  0.00    +0.000 A 
ATOM     11  C   UNL     1       0.315   8.999  22.130  0.00  0.00    +0.000 A 
ENDBRANCH   3   6
BRANCH   5  12
ATOM     12  C   UNL     1       2.245   4.688  19.892  0.00  0.00    +0.000 A 
ATOM     13  C   UNL     1       2.377   4.120  21.162  0.00  0.00    +0.000 A 
ATOM     14  C   UNL     1       2.547   2.741  21.296  0.00  0.00    +0.000 A 
ATOM     15  C   UNL     1       2.579   1.966  20.149  0.00  0.00    +0.000 A 
ATOM     16  N   UNL     1       2.443   2.465  18.904  0.00  0.00    +0.000 NA
ATOM     17  C   UNL     1       2.269   3.808  18.810  0.00  0.00    +0.000 A 
ENDBRANCH   5  12
BRANCH   1  19
ATOM     18  CA  UNL     1       4.430   6.246  17.252  0.00  0.00    +0.000 C 
ATOM     19  C   UNL     1       3.138   6.595  17.404  0.00  0.00    +0.000 C 
BRANCH  18  20
ATOM     20  N   UNL     1       4.987   5.875  16.028  0.00  0.00    +0.000 N 
ATOM     21  C   UNL     1       5.357   4.594  15.645  0.00  0.00    +0.000 C 
ATOM     22  O   UNL     1       5.112   3.577  16.283  0.00  0.00    +0.000 OA
ATOM     23  H   UNL     1       5.223   6.650  15.416  0.00  0.00    +0.000 HD
BRANCH  21  24
ATOM     24  C   UNL     1       6.091   4.462  14.357  0.00  0.00    +0.000 A 
ATOM     25  C   UNL     1       5.564   3.584  13.400  0.00  0.00    +0.000 A 
ATOM     26  C   UNL     1       6.198   3.417  12.168  0.00  0.00    +0.000 A 
ATOM     27  C   UNL     1       7.360   4.131  11.886  0.00  0.00    +0.000 A 
ATOM     28  C   UNL     1       7.880   5.021  12.826  0.00  0.00    +0.000 A 
ATOM     29  C   UNL     1       7.248   5.194  14.060  0.00  0.00    +0.000 A 
ENDBRANCH  21  24
ENDBRANCH  18  20
BRANCH  18  31
ATOM     30  O   UNL     1       5.263   5.526  19.430  0.00  0.00    +0.000 OA
ATOM     31  C   UNL     1       5.366   6.213  18.432  0.00  0.00    +0.000 C 
BRANCH  31  32
ATOM     32  OXT UNL     1       6.412   7.056  18.227  0.00  0.00    +0.000 OA
ATOM     33  HXT UNL     1       6.836   6.901  17.361  0.00  0.00    +0.000 HD
ENDBRANCH  31  32
ENDBRANCH  18  31
ENDBRANCH   1  19
TORSDOF 7
ENDMDL
MODEL 9
REMARK VINA RESULT:      -7.9      0.835      1.348
REMARK  Name = 
REMARK  7 active torsions:
REMARK  status: ('A' for Active; 'I' for Inactive)
REMARK    1  A    between atoms: C_2  and  OXT_3
REMARK    2  A    between atoms: C_2  and  CA_4
REMARK    3  A    between atoms: CA_4  and  N_23
REMARK    4  A    between atoms: C_5  and  C_6
REMARK    5  A    between atoms: N_8  and  C_9
REMARK    6  A    between atoms: C_16  and  C_17
REMARK    7  A    between atoms: C_24  and  C_26
REMARK                            x       y       z     vdW  Elec       q    Type
REMARK                         _______ _______ _______ _____ _____    ______ ____
ROOT
ATOM      1  C   UNL     1       2.410   6.901  18.653  0.00  0.00    +0.000 A 
ATOM      2  C   UNL     1       1.978   8.168  18.944  0.00  0.00    +0.000 A 
ATOM      3  N   UNL     1       1.428   8.115  20.203  0.00  0.00    +0.000 N 
ATOM      4  N   UNL     1       1.439   6.848  20.700  0.00  0.00    +0.000 NA
ATOM      5  C   UNL     1       2.013   6.090  19.748  0.00  0.00    +0.000 A 
ENDROOT
BRANCH   3   6
ATOM      6  C   UNL     1       0.884   9.202  20.945  0.00  0.00    +0.000 A 
ATOM      7  C   UNL     1       0.307   8.994  22.207  0.00  0.00    +0.000 A 
ATOM      8  C   UNL     1      -0.229  10.071  22.920  0.00  0.00    +0.000 A 
ATOM      9  C   UNL     1      -0.200  11.352  22.376  0.00  0.00    +0.000 A 
ATOM     10  C   UNL     1       0.372  11.565  21.123  0.00  0.00    +0.000 A 
ATOM     11  C   UNL     1       0.919  10.496  20.408  0.00  0.00    +0.000 A 
ENDBRANCH   3   6
BRANCH   5  12
ATOM     12  C   UNL     1       2.159   4.642  19.922  0.00  0.00    +0.000 A 
ATOM     13  C   UNL     1       2.022   3.756  18.850  0.00  0.00    +0.000 A 
ATOM     14  C   UNL     1       2.156   2.382  19.058  0.00  0.00    +0.000 A 
ATOM     15  C   UNL     1       2.424   1.932  20.340  0.00  0.00    +0.000 A 
ATOM     16  N   UNL     1       2.577   2.747  21.403  0.00  0.00    +0.000 NA
ATOM     17  C   UNL     1       2.451   4.078  21.163  0.00  0.00    +0.000 A 
ENDBRANCH   5  12
BRANCH   1  19
ATOM     18  CA  UNL     1       4.354   6.186  17.281  0.00  0.00    +0.000 C 
ATOM     19  C   UNL     1       3.068   6.552  17.443  0.00  0.00    +0.000 C 
BRANCH  18  20
ATOM     20  N   UNL     1       4.899   5.815  16.051  0.00  0.00    +0.000 N 
ATOM     21  C   UNL     1       5.298   4.540  15.677  0.00  0.00    +0.000 C 
ATOM     22  O   UNL     1       5.095   3.525  16.333  0.00  0.00    +0.000 OA
ATOM     23  H   UNL     1       5.100   6.588  15.425  0.00  0.00    +0.000 HD
BRANCH  21  24
ATOM     24  C   UNL     1       6.012   4.413  14.377  0.00  0.00    +0.000 A 
ATOM     25  C   UNL     1       7.176   5.175  14.203  0.00  0.00    +0.000 A 
ATOM     26  C   UNL     1       7.898   5.101  13.011  0.00  0.00    +0.000 A 
ATOM     27  C   UNL     1       7.463   4.259  11.991  0.00  0.00    +0.000 A 
ATOM     28  C   UNL     1       6.316   3.483  12.164  0.00  0.00    +0.000 A 
ATOM     29  C   UNL     1       5.590   3.553  13.356  0.00  0.00    +0.000 A 
ENDBRANCH  21  24
ENDBRANCH  18  20
BRANCH  18  31
ATOM     30  O   UNL     1       5.165   5.472  19.469  0.00  0.00    +0.000 OA
ATOM     31  C   UNL     1       5.296   6.130  18.455  0.00  0.00    +0.000 C 
BRANCH  31  32
ATOM     32  OXT UNL     1       6.382   6.914  18.225  0.00  0.00    +0.000 OA
ATOM     33  HXT UNL     1       6.357   7.312  17.333  0.00  0.00    +0.000 HD
ENDBRANCH  31  32
ENDBRANCH  18  31
ENDBRANCH   1  19
TORSDOF 7
ENDMDL
