MODEL 1
REMARK VINA RESULT:      -7.4      0.000      0.000
REMARK  Name = 
REMARK  7 active torsions:
REMARK  status: ('A' for Active; 'I' for Inactive)
REMARK    1  A    between atoms: C_1  and  C_2
REMARK    2  A    between atoms: C_2  and  C_3
REMARK    3  A    between atoms: C_5  and  N_6
REMARK    4  A    between atoms: N_6  and  C_7
REMARK    5  A    between atoms: C_7  and  C_8
REMARK    6  A    between atoms: C_8  and  N_9
REMARK    7  A    between atoms: N_9  and  C_10
REMARK                            x       y       z     vdW  Elec       q    Type
REMARK                         _______ _______ _______ _____ _____    ______ ____
ROOT
ATOM      1  N   UNL     1       5.392   3.632  18.836  0.00  0.00    +0.000 N 
ATOM      2  H   UNL     1       5.974   2.873  19.204  0.00  0.00    +0.000 HD
ENDROOT
BRANCH   1   5
ATOM      3  C   UNL     1       7.515   6.561  17.842  0.00  0.00    +0.000 A 
ATOM      4  C   UNL     1       6.801   5.596  18.727  0.00  0.00    +0.000 A 
ATOM      5  C   UNL     1       6.140   4.582  18.143  0.00  0.00    +0.000 A 
ATOM      6  N   UNL     1       6.200   4.493  16.727  0.00  0.00    +0.000 N 
ATOM      7  N   UNL     1       5.635   3.537  15.927  0.00  0.00    +0.000 NA
ATOM      8  C   UNL     1       5.974   3.905  14.689  0.00  0.00    +0.000 A 
ATOM      9  C   UNL     1       6.750   5.072  14.655  0.00  0.00    +0.000 A 
ATOM     10  C   UNL     1       6.904   5.438  15.972  0.00  0.00    +0.000 A 
ATOM     11  N   UNL     1       7.570   6.486  16.545  0.00  0.00    +0.000 NA
BRANCH   3  13
ATOM     12  C   UNL     1       8.077   8.983  17.749  0.00  0.00    +0.000 C 
ATOM     13  C   UNL     1       8.229   7.697  18.542  0.00  0.00    +0.000 C 
ENDBRANCH   3  13
ENDBRANCH   1   5
BRANCH   1  14
ATOM     14  C   UNL     1       4.102   3.853  19.470  0.00  0.00    +0.000 C 
BRANCH  14  15
ATOM     15  C   UNL     1       3.345   5.019  18.819  0.00  0.00    +0.000 C 
BRANCH  15  16
ATOM     16  N   UNL     1       3.240   6.145  19.755  0.00  0.00    +0.000 N 
ATOM     17  H   UNL     1       4.152   6.429  20.114  0.00  0.00    +0.000 HD
BRANCH  16  18
ATOM     18  C   UNL     1       2.515   7.270  19.332  0.00  0.00    +0.000 A 
ATOM     19  C   UNL     1       1.703   8.025  20.180  0.00  0.00    +0.000 A 
ATOM     20  C   UNL     1       1.056   9.167  19.712  0.00  0.00    +0.000 A 
ATOM     21  C   UNL     1       1.259   9.548  18.398  0.00  0.00    +0.000 A 
ATOM     22  N   UNL     1       2.071   8.888  17.549  0.00  0.00    +0.000 NA
ATOM     23  C   UNL     1       2.687   7.786  18.043  0.00  0.00    +0.000 A 
ENDBRANCH  16  18
ENDBRANCH  15  16
ENDBRANCH  14  15
ENDBRANCH   1  14
TORSDOF 6
ENDMDL
MODEL 2
REMARK VINA RESULT:      -7.2      0.830      1.146
REMARK  Name = 
REMARK  7 active torsions:
REMARK  status: ('A' for Active; 'I' for Inactive)
REMARK    1  A    between atoms: C_1  and  C_2
REMARK    2  A    between atoms: C_2  and  C_3
REMARK    3  A    between atoms: C_5  and  N_6
REMARK    4  A    between atoms: N_6  and  C_7
REMARK    5  A    between atoms: C_7  and  C_8
REMARK    6  A    between atoms: C_8  and  N_9
REMARK    7  A    between atoms: N_9  and  C_10
REMARK                            x       y       z     vdW  Elec       q    Type
REMARK                         _______ _______ _______ _____ _____    ______ ____
ROOT
ATOM      1  N   UNL     1       5.590   3.743  19.064  0.00  0.00    +0.000 N 
ATOM      2  H   UNL     1       6.105   3.468  19.906  0.00  0.00    +0.000 HD
ENDROOT
BRANCH   1   5
ATOM      3  C   UNL     1       7.601   6.673  17.863  0.00  0.00    +0.000 A 
ATOM      4  C   UNL     1       6.947   5.731  18.816  0.00  0.00    +0.000 A 
ATOM      5  C   UNL     1       6.286   4.679  18.302  0.00  0.00    +0.000 A 
ATOM      6  N   UNL     1       6.290   4.532  16.889  0.00  0.00    +0.000 N 
ATOM      7  N   UNL     1       5.715   3.533  16.153  0.00  0.00    +0.000 NA
ATOM      8  C   UNL     1       5.994   3.856  14.888  0.00  0.00    +0.000 A 
ATOM      9  C   UNL     1       6.740   5.037  14.774  0.00  0.00    +0.000 A 
ATOM     10  C   UNL     1       6.940   5.461  16.068  0.00  0.00    +0.000 A 
ATOM     11  N   UNL     1       7.604   6.546  16.569  0.00  0.00    +0.000 NA
BRANCH   3  13
ATOM     12  C   UNL     1       8.025   9.119  17.701  0.00  0.00    +0.000 C 
ATOM     13  C   UNL     1       8.316   7.853  18.486  0.00  0.00    +0.000 C 
ENDBRANCH   3  13
ENDBRANCH   1   5
BRANCH   1  14
ATOM     14  C   UNL     1       4.150   3.537  19.063  0.00  0.00    +0.000 C 
BRANCH  14  15
ATOM     15  C   UNL     1       3.403   4.778  19.571  0.00  0.00    +0.000 C 
BRANCH  15  16
ATOM     16  N   UNL     1       3.083   5.673  18.452  0.00  0.00    +0.000 N 
ATOM     17  H   UNL     1       2.534   5.204  17.732  0.00  0.00    +0.000 HD
BRANCH  16  18
ATOM     18  C   UNL     1       2.510   6.917  18.764  0.00  0.00    +0.000 A 
ATOM     19  C   UNL     1       2.238   7.899  17.811  0.00  0.00    +0.000 A 
ATOM     20  C   UNL     1       1.611   9.089  18.177  0.00  0.00    +0.000 A 
ATOM     21  C   UNL     1       1.244   9.261  19.499  0.00  0.00    +0.000 A 
ATOM     22  N   UNL     1       1.436   8.328  20.452  0.00  0.00    +0.000 NA
ATOM     23  C   UNL     1       2.042   7.181  20.056  0.00  0.00    +0.000 A 
ENDBRANCH  16  18
ENDBRANCH  15  16
ENDBRANCH  14  15
ENDBRANCH   1  14
TORSDOF 6
ENDMDL
MODEL 3
REMARK VINA RESULT:      -7.1      1.253      1.831
REMARK  Name = 
REMARK  7 active torsions:
REMARK  status: ('A' for Active; 'I' for Inactive)
REMARK    1  A    between atoms: C_1  and  C_2
REMARK    2  A    between atoms: C_2  and  C_3
REMARK    3  A    between atoms: C_5  and  N_6
REMARK    4  A    between atoms: N_6  and  C_7
REMARK    5  A    between atoms: C_7  and  C_8
REMARK    6  A    between atoms: C_8  and  N_9
REMARK    7  A    between atoms: N_9  and  C_10
REMARK                            x       y       z     vdW  Elec       q    Type
REMARK                         _______ _______ _______ _____ _____    ______ ____
ROOT
ATOM      1  N   UNL     1       5.747   3.531  18.952  0.00  0.00    +0.000 N 
ATOM      2  H   UNL     1       6.419   2.927  19.437  0.00  0.00    +0.000 HD
ENDROOT
BRANCH   1   5
ATOM      3  C   UNL     1       7.577   6.616  17.856  0.00  0.00    +0.000 A 
ATOM      4  C   UNL     1       6.999   5.594  18.774  0.00  0.00    +0.000 A 
ATOM      5  C   UNL     1       6.374   4.539  18.223  0.00  0.00    +0.000 A 
ATOM      6  N   UNL     1       6.342   4.467  16.805  0.00  0.00    +0.000 N 
ATOM      7  N   UNL     1       5.793   3.480  16.032  0.00  0.00    +0.000 NA
ATOM      8  C   UNL     1       6.017   3.883  14.779  0.00  0.00    +0.000 A 
ATOM      9  C   UNL     1       6.702   5.103  14.708  0.00  0.00    +0.000 A 
ATOM     10  C   UNL     1       6.921   5.468  16.017  0.00  0.00    +0.000 A 
ATOM     11  N   UNL     1       7.547   6.557  16.557  0.00  0.00    +0.000 NA
BRANCH   3  13
ATOM     12  C   UNL     1       7.994   9.066  17.731  0.00  0.00    +0.000 C 
ATOM     13  C   UNL     1       8.254   7.796  18.520  0.00  0.00    +0.000 C 
ENDBRANCH   3  13
ENDBRANCH   1   5
BRANCH   1  14
ATOM     14  C   UNL     1       4.386   3.563  19.465  0.00  0.00    +0.000 C 
BRANCH  14  15
ATOM     15  C   UNL     1       3.409   2.852  18.519  0.00  0.00    +0.000 C 
BRANCH  15  16
ATOM     16  N   UNL     1       2.196   3.660  18.339  0.00  0.00    +0.000 N 
ATOM     17  H   UNL     1       1.360   3.170  18.656  0.00  0.00    +0.000 HD
BRANCH  16  18
ATOM     18  C   UNL     1       2.212   4.969  18.845  0.00  0.00    +0.000 A 
ATOM     19  C   UNL     1       2.586   6.082  18.090  0.00  0.00    +0.000 A 
ATOM     20  C   UNL     1       2.522   7.363  18.634  0.00  0.00    +0.000 A 
ATOM     21  C   UNL     1       2.055   7.508  19.927  0.00  0.00    +0.000 A 
ATOM     22  N   UNL     1       1.633   6.477  20.686  0.00  0.00    +0.000 NA
ATOM     23  C   UNL     1       1.705   5.246  20.119  0.00  0.00    +0.000 A 
ENDBRANCH  16  18
ENDBRANCH  15  16
ENDBRANCH  14  15
ENDBRANCH   1  14
TORSDOF 6
ENDMDL
MODEL 4
REMARK VINA RESULT:      -7.0      1.994      4.396
REMARK  Name = 
REMARK  7 active torsions:
REMARK  status: ('A' for Active; 'I' for Inactive)
REMARK    1  A    between atoms: C_1  and  C_2
REMARK    2  A    between atoms: C_2  and  C_3
REMARK    3  A    between atoms: C_5  and  N_6
REMARK    4  A    between atoms: N_6  and  C_7
REMARK    5  A    between atoms: C_7  and  C_8
REMARK    6  A    between atoms: C_8  and  N_9
REMARK    7  A    between atoms: N_9  and  C_10
REMARK                            x       y       z     vdW  Elec       q    Type
REMARK                         _______ _______ _______ _____ _____    ______ ____
ROOT
ATOM      1  N   UNL     1       4.023   6.892  17.105  0.00  0.00    +0.000 N 
ATOM      2  H   UNL     1       3.890   7.758  16.574  0.00  0.00    +0.000 HD
ENDROOT
BRANCH   1   5
ATOM      3  C   UNL     1       6.594   5.017  15.118  0.00  0.00    +0.000 A 
ATOM      4  C   UNL     1       5.373   5.824  15.404  0.00  0.00    +0.000 A 
ATOM      5  C   UNL     1       5.142   6.179  16.679  0.00  0.00    +0.000 A 
ATOM      6  N   UNL     1       6.100   5.783  17.651  0.00  0.00    +0.000 N 
ATOM      7  N   UNL     1       6.089   6.055  18.992  0.00  0.00    +0.000 NA
ATOM      8  C   UNL     1       7.191   5.461  19.455  0.00  0.00    +0.000 A 
ATOM      9  C   UNL     1       7.927   4.811  18.455  0.00  0.00    +0.000 A 
ATOM     10  C   UNL     1       7.226   5.034  17.293  0.00  0.00    +0.000 A 
ATOM     11  N   UNL     1       7.472   4.649  16.004  0.00  0.00    +0.000 NA
BRANCH   3  13
ATOM     12  C   UNL     1       5.700   3.683  13.218  0.00  0.00    +0.000 C 
ATOM     13  C   UNL     1       6.802   4.622  13.671  0.00  0.00    +0.000 C 
ENDBRANCH   3  13
ENDBRANCH   1   5
BRANCH   1  14
ATOM     14  C   UNL     1       2.861   6.338  17.782  0.00  0.00    +0.000 C 
BRANCH  14  15
ATOM     15  C   UNL     1       2.742   6.863  19.220  0.00  0.00    +0.000 C 
BRANCH  15  16
ATOM     16  N   UNL     1       3.199   5.843  20.173  0.00  0.00    +0.000 N 
ATOM     17  H   UNL     1       3.092   6.150  21.141  0.00  0.00    +0.000 HD
BRANCH  16  18
ATOM     18  C   UNL     1       2.692   4.543  20.019  0.00  0.00    +0.000 A 
ATOM     19  C   UNL     1       1.354   4.208  20.230  0.00  0.00    +0.000 A 
ATOM     20  C   UNL     1       0.902   2.910  20.000  0.00  0.00    +0.000 A 
ATOM     21  C   UNL     1       1.803   1.971  19.534  0.00  0.00    +0.000 A 
ATOM     22  N   UNL     1       3.094   2.248  19.264  0.00  0.00    +0.000 NA
ATOM     23  C   UNL     1       3.494   3.524  19.494  0.00  0.00    +0.000 A 
ENDBRANCH  16  18
ENDBRANCH  15  16
ENDBRANCH  14  15
ENDBRANCH   1  14
TORSDOF 6
ENDMDL
MODEL 5
REMARK VINA RESULT:      -6.9      2.967      6.220
REMARK  Name = 
REMARK  7 active torsions:
REMARK  status: ('A' for Active; 'I' for Inactive)
REMARK    1  A    between atoms: C_1  and  C_2
REMARK    2  A    between atoms: C_2  and  C_3
REMARK    3  A    between atoms: C_5  and  N_6
REMARK    4  A    between atoms: N_6  and  C_7
REMARK    5  A    between atoms: C_7  and  C_8
REMARK    6  A    between atoms: C_8  and  N_9
REMARK    7  A    between atoms: N_9  and  C_10
REMARK                            x       y       z     vdW  Elec       q    Type
REMARK                         _______ _______ _______ _____ _____    ______ ____
ROOT
ATOM      1  N   UNL     1       6.910   7.489  16.975  0.00  0.00    +0.000 N 
ATOM      2  H   UNL     1       6.487   8.294  16.503  0.00  0.00    +0.000 HD
ENDROOT
BRANCH   1   5
ATOM      3  C   UNL     1       4.421   4.742  17.552  0.00  0.00    +0.000 A 
ATOM      4  C   UNL     1       5.148   6.027  17.759  0.00  0.00    +0.000 A 
ATOM      5  C   UNL     1       6.117   6.347  16.884  0.00  0.00    +0.000 A 
ATOM      6  N   UNL     1       6.350   5.446  15.810  0.00  0.00    +0.000 N 
ATOM      7  N   UNL     1       7.255   5.578  14.792  0.00  0.00    +0.000 NA
ATOM      8  C   UNL     1       7.086   4.475  14.059  0.00  0.00    +0.000 A 
ATOM      9  C   UNL     1       6.093   3.626  14.565  0.00  0.00    +0.000 A 
ATOM     10  C   UNL     1       5.612   4.264  15.685  0.00  0.00    +0.000 A 
ATOM     11  N   UNL     1       4.633   3.912  16.573  0.00  0.00    +0.000 NA
BRANCH   3  13
ATOM     12  C   UNL     1       2.016   4.985  18.137  0.00  0.00    +0.000 C 
ATOM     13  C   UNL     1       3.353   4.414  18.572  0.00  0.00    +0.000 C 
ENDBRANCH   3  13
ENDBRANCH   1   5
BRANCH   1  14
ATOM     14  C   UNL     1       7.905   7.762  18.001  0.00  0.00    +0.000 C 
BRANCH  14  15
ATOM     15  C   UNL     1       8.295   9.246  18.027  0.00  0.00    +0.000 C 
BRANCH  15  16
ATOM     16  N   UNL     1       9.070   9.548  19.238  0.00  0.00    +0.000 N 
ATOM     17  H   UNL     1       9.703   8.786  19.486  0.00  0.00    +0.000 HD
BRANCH  16  18
ATOM     18  C   UNL     1       9.750  10.775  19.280  0.00  0.00    +0.000 A 
ATOM     19  C   UNL     1      10.152  11.392  20.465  0.00  0.00    +0.000 A 
ATOM     20  C   UNL     1      10.878  12.581  20.436  0.00  0.00    +0.000 A 
ATOM     21  C   UNL     1      11.211  13.120  19.207  0.00  0.00    +0.000 A 
ATOM     22  N   UNL     1      10.894  12.544  18.031  0.00  0.00    +0.000 NA
ATOM     23  C   UNL     1      10.194  11.384  18.100  0.00  0.00    +0.000 A 
ENDBRANCH  16  18
ENDBRANCH  15  16
ENDBRANCH  14  15
ENDBRANCH   1  14
TORSDOF 6
ENDMDL
MODEL 6
REMARK VINA RESULT:      -6.9      1.382      1.766
REMARK  Name = 
REMARK  7 active torsions:
REMARK  status: ('A' for Active; 'I' for Inactive)
REMARK    1  A    between atoms: C_1  and  C_2
REMARK    2  A    between atoms: C_2  and  C_3
REMARK    3  A    between atoms: C_5  and  N_6
REMARK    4  A    between atoms: N_6  and  C_7
REMARK    5  A    between atoms: C_7  and  C_8
REMARK    6  A    between atoms: C_8  and  N_9
REMARK    7  A    between atoms: N_9  and  C_10
REMARK                            x       y       z     vdW  Elec       q    Type
REMARK                         _______ _______ _______ _____ _____    ______ ____
ROOT
ATOM      1  N   UNL     1       4.785   3.097  17.557  0.00  0.00    +0.000 N 
ATOM      2  H   UNL     1       4.766   2.293  16.922  0.00  0.00    +0.000 HD
ENDROOT
BRANCH   1   5
ATOM      3  C   UNL     1       7.233   5.936  17.410  0.00  0.00    +0.000 A 
ATOM      4  C   UNL     1       6.301   4.930  17.997  0.00  0.00    +0.000 A 
ATOM      5  C   UNL     1       5.711   4.060  17.161  0.00  0.00    +0.000 A 
ATOM      6  N   UNL     1       6.047   4.148  15.783  0.00  0.00    +0.000 N 
ATOM      7  N   UNL     1       5.598   3.355  14.763  0.00  0.00    +0.000 NA
ATOM      8  C   UNL     1       6.198   3.848  13.677  0.00  0.00    +0.000 A 
ATOM      9  C   UNL     1       7.032   4.938  13.957  0.00  0.00    +0.000 A 
ATOM     10  C   UNL     1       6.942   5.118  15.318  0.00  0.00    +0.000 A 
ATOM     11  N   UNL     1       7.542   6.023  16.150  0.00  0.00    +0.000 NA
BRANCH   3  13
ATOM     12  C   UNL     1       7.968   8.286  17.762  0.00  0.00    +0.000 C 
ATOM     13  C   UNL     1       7.859   6.907  18.387  0.00  0.00    +0.000 C 
ENDBRANCH   3  13
ENDBRANCH   1   5
BRANCH   1  14
ATOM     14  C   UNL     1       4.282   2.896  18.907  0.00  0.00    +0.000 C 
BRANCH  14  15
ATOM     15  C   UNL     1       2.766   2.656  18.914  0.00  0.00    +0.000 C 
BRANCH  15  16
ATOM     16  N   UNL     1       2.076   3.736  18.197  0.00  0.00    +0.000 N 
ATOM     17  H   UNL     1       1.151   3.451  17.875  0.00  0.00    +0.000 HD
BRANCH  16  18
ATOM     18  C   UNL     1       2.004   4.987  18.831  0.00  0.00    +0.000 A 
ATOM     19  C   UNL     1       1.648   5.152  20.170  0.00  0.00    +0.000 A 
ATOM     20  C   UNL     1       1.655   6.417  20.756  0.00  0.00    +0.000 A 
ATOM     21  C   UNL     1       2.046   7.497  19.987  0.00  0.00    +0.000 A 
ATOM     22  N   UNL     1       2.447   7.392  18.705  0.00  0.00    +0.000 NA
ATOM     23  C   UNL     1       2.434   6.145  18.172  0.00  0.00    +0.000 A 
ENDBRANCH  16  18
ENDBRANCH  15  16
ENDBRANCH  14  15
ENDBRANCH   1  14
TORSDOF 6
ENDMDL
MODEL 7
REMARK VINA RESULT:      -6.9      1.723      5.856
REMARK  Name = 
REMARK  7 active torsions:
REMARK  status: ('A' for Active; 'I' for Inactive)
REMARK    1  A    between atoms: C_1  and  C_2
REMARK    2  A    between atoms: C_2  and  C_3
REMARK    3  A    between atoms: C_5  and  N_6
REMARK    4  A    between atoms: N_6  and  C_7
REMARK    5  A    between atoms: C_7  and  C_8
REMARK    6  A    between atoms: C_8  and  N_9
REMARK    7  A    between atoms: N_9  and  C_10
REMARK                            x       y       z     vdW  Elec       q    Type
REMARK                         _______ _______ _______ _____ _____    ______ ____
ROOT
ATOM      1  N   UNL     1       4.314   3.940  17.572  0.00  0.00    +0.000 N 
ATOM      2  H   UNL     1       4.439   2.960  17.845  0.00  0.00    +0.000 HD
ENDROOT
BRANCH   1   5
ATOM      3  C   UNL     1       2.390   6.566  19.435  0.00  0.00    +0.000 A 
ATOM      4  C   UNL     1       3.194   5.940  18.347  0.00  0.00    +0.000 A 
ATOM      5  C   UNL     1       3.529   4.646  18.482  0.00  0.00    +0.000 A 
ATOM      6  N   UNL     1       3.063   3.968  19.640  0.00  0.00    +0.000 N 
ATOM      7  N   UNL     1       3.254   2.654  19.971  0.00  0.00    +0.000 NA
ATOM      8  C   UNL     1       2.631   2.518  21.144  0.00  0.00    +0.000 A 
ATOM      9  C   UNL     1       2.033   3.704  21.590  0.00  0.00    +0.000 A 
ATOM     10  C   UNL     1       2.303   4.631  20.609  0.00  0.00    +0.000 A 
ATOM     11  N   UNL     1       1.964   5.951  20.499  0.00  0.00    +0.000 NA
BRANCH   3  13
ATOM     12  C   UNL     1       2.161   8.414  17.785  0.00  0.00    +0.000 C 
ATOM     13  C   UNL     1       2.052   8.030  19.250  0.00  0.00    +0.000 C 
ENDBRANCH   3  13
ENDBRANCH   1   5
BRANCH   1  14
ATOM     14  C   UNL     1       4.507   4.272  16.169  0.00  0.00    +0.000 C 
BRANCH  14  15
ATOM     15  C   UNL     1       5.816   3.682  15.625  0.00  0.00    +0.000 C 
BRANCH  15  16
ATOM     16  N   UNL     1       6.833   4.734  15.493  0.00  0.00    +0.000 N 
ATOM     17  H   UNL     1       6.560   5.446  14.815  0.00  0.00    +0.000 HD
BRANCH  16  18
ATOM     18  C   UNL     1       7.291   5.339  16.674  0.00  0.00    +0.000 A 
ATOM     19  C   UNL     1       7.282   6.718  16.886  0.00  0.00    +0.000 A 
ATOM     20  C   UNL     1       7.694   7.252  18.105  0.00  0.00    +0.000 A 
ATOM     21  C   UNL     1       8.087   6.383  19.106  0.00  0.00    +0.000 A 
ATOM     22  N   UNL     1       8.069   5.041  18.977  0.00  0.00    +0.000 NA
ATOM     23  C   UNL     1       7.655   4.560  17.778  0.00  0.00    +0.000 A 
ENDBRANCH  16  18
ENDBRANCH  15  16
ENDBRANCH  14  15
ENDBRANCH   1  14
TORSDOF 6
ENDMDL
MODEL 8
REMARK VINA RESULT:      -6.9      3.038      6.475
REMARK  Name = 
REMARK  7 active torsions:
REMARK  status: ('A' for Active; 'I' for Inactive)
REMARK    1  A    between atoms: C_1  and  C_2
REMARK    2  A    between atoms: C_2  and  C_3
REMARK    3  A    between atoms: C_5  and  N_6
REMARK    4  A    between atoms: N_6  and  C_7
REMARK    5  A    between atoms: C_7  and  C_8
REMARK    6  A    between atoms: C_8  and  N_9
REMARK    7  A    between atoms: N_9  and  C_10
REMARK                            x       y       z     vdW  Elec       q    Type
REMARK                         _______ _______ _______ _____ _____    ______ ____
ROOT
ATOM      1  N   UNL     1       7.675   6.902  17.459  0.00  0.00    +0.000 N 
ATOM      2  H   UNL     1       8.583   6.441  17.349  0.00  0.00    +0.000 HD
ENDROOT
BRANCH   1   5
ATOM      3  C   UNL     1       4.551   4.827  17.552  0.00  0.00    +0.000 A 
ATOM      4  C   UNL     1       5.587   5.803  17.996  0.00  0.00    +0.000 A 
ATOM      5  C   UNL     1       6.612   6.051  17.163  0.00  0.00    +0.000 A 
ATOM      6  N   UNL     1       6.609   5.385  15.908  0.00  0.00    +0.000 N 
ATOM      7  N   UNL     1       7.525   5.504  14.898  0.00  0.00    +0.000 NA
ATOM      8  C   UNL     1       7.079   4.674  13.952  0.00  0.00    +0.000 A 
ATOM      9  C   UNL     1       5.895   4.017  14.312  0.00  0.00    +0.000 A 
ATOM     10  C   UNL     1       5.589   4.490  15.567  0.00  0.00    +0.000 A 
ATOM     11  N   UNL     1       4.546   4.211  16.406  0.00  0.00    +0.000 NA
BRANCH   3  13
ATOM     12  C   UNL     1       2.085   4.657  17.828  0.00  0.00    +0.000 C 
ATOM     13  C   UNL     1       3.427   4.564  18.531  0.00  0.00    +0.000 C 
ENDBRANCH   3  13
ENDBRANCH   1   5
BRANCH   1  14
ATOM     14  C   UNL     1       7.651   8.355  17.400  0.00  0.00    +0.000 C 
BRANCH  14  15
ATOM     15  C   UNL     1       8.553   8.978  18.474  0.00  0.00    +0.000 C 
BRANCH  15  16
ATOM     16  N   UNL     1       8.659  10.429  18.272  0.00  0.00    +0.000 N 
ATOM     17  H   UNL     1       7.845  10.926  18.634  0.00  0.00    +0.000 HD
BRANCH  16  18
ATOM     18  C   UNL     1       9.840  11.056  18.702  0.00  0.00    +0.000 A 
ATOM     19  C   UNL     1      10.799  11.571  17.829  0.00  0.00    +0.000 A 
ATOM     20  C   UNL     1      11.921  12.237  18.320  0.00  0.00    +0.000 A 
ATOM     21  C   UNL     1      12.046  12.397  19.687  0.00  0.00    +0.000 A 
ATOM     22  N   UNL     1      11.128  11.965  20.575  0.00  0.00    +0.000 NA
ATOM     23  C   UNL     1      10.048  11.329  20.059  0.00  0.00    +0.000 A 
ENDBRANCH  16  18
ENDBRANCH  15  16
ENDBRANCH  14  15
ENDBRANCH   1  14
TORSDOF 6
ENDMDL
MODEL 9
REMARK VINA RESULT:      -6.8      1.707      3.475
REMARK  Name = 
REMARK  7 active torsions:
REMARK  status: ('A' for Active; 'I' for Inactive)
REMARK    1  A    between atoms: C_1  and  C_2
REMARK    2  A    between atoms: C_2  and  C_3
REMARK    3  A    between atoms: C_5  and  N_6
REMARK    4  A    between atoms: N_6  and  C_7
REMARK    5  A    between atoms: C_7  and  C_8
REMARK    6  A    between atoms: C_8  and  N_9
REMARK    7  A    between atoms: N_9  and  C_10
REMARK                            x       y       z     vdW  Elec       q    Type
REMARK                         _______ _______ _______ _____ _____    ______ ____
ROOT
ATOM      1  N   UNL     1       4.382   2.970  17.417  0.00  0.00    +0.000 N 
ATOM      2  H   UNL     1       3.987   2.320  16.730  0.00  0.00    +0.000 HD
ENDROOT
BRANCH   1   5
ATOM      3  C   UNL     1       6.708   4.792  15.105  0.00  0.00    +0.000 A 
ATOM      4  C   UNL     1       5.607   3.885  15.542  0.00  0.00    +0.000 A 
ATOM      5  C   UNL     1       5.347   3.806  16.858  0.00  0.00    +0.000 A 
ATOM      6  N   UNL     1       6.123   4.618  17.727  0.00  0.00    +0.000 N 
ATOM      7  N   UNL     1       6.015   4.724  19.087  0.00  0.00    +0.000 NA
ATOM      8  C   UNL     1       6.964   5.600  19.424  0.00  0.00    +0.000 A 
ATOM      9  C   UNL     1       7.688   6.076  18.322  0.00  0.00    +0.000 A 
ATOM     10  C   UNL     1       7.132   5.451  17.230  0.00  0.00    +0.000 A 
ATOM     11  N   UNL     1       7.424   5.535  15.897  0.00  0.00    +0.000 NA
BRANCH   3  13
ATOM     12  C   UNL     1       6.302   3.665  12.924  0.00  0.00    +0.000 C 
ATOM     13  C   UNL     1       6.979   4.834  13.616  0.00  0.00    +0.000 C 
ENDBRANCH   3  13
ENDBRANCH   1   5
BRANCH   1  14
ATOM     14  C   UNL     1       4.272   2.608  18.821  0.00  0.00    +0.000 C 
BRANCH  14  15
ATOM     15  C   UNL     1       2.807   2.559  19.278  0.00  0.00    +0.000 C 
BRANCH  15  16
ATOM     16  N   UNL     1       2.012   3.553  18.546  0.00  0.00    +0.000 N 
ATOM     17  H   UNL     1       1.032   3.277  18.469  0.00  0.00    +0.000 HD
BRANCH  16  18
ATOM     18  C   UNL     1       2.107   4.890  18.964  0.00  0.00    +0.000 A 
ATOM     19  C   UNL     1       2.444   5.941  18.109  0.00  0.00    +0.000 A 
ATOM     20  C   UNL     1       2.462   7.255  18.573  0.00  0.00    +0.000 A 
ATOM     21  C   UNL     1       2.114   7.494  19.889  0.00  0.00    +0.000 A 
ATOM     22  N   UNL     1       1.732   6.526  20.746  0.00  0.00    +0.000 NA
ATOM     23  C   UNL     1       1.720   5.262  20.256  0.00  0.00    +0.000 A 
ENDBRANCH  16  18
ENDBRANCH  15  16
ENDBRANCH  14  15
ENDBRANCH   1  14
TORSDOF 6
ENDMDL
