MODEL 1
REMARK VINA RESULT:      -6.6      0.000      0.000
REMARK  Name = 
REMARK  7 active torsions:
REMARK  status: ('A' for Active; 'I' for Inactive)
REMARK    1  A    between atoms: C_1  and  N_2
REMARK    2  A    between atoms: C_3  and  C_5
REMARK    3  A    between atoms: C_5  and  N_6
REMARK    4  A    between atoms: C_15  and  C_17
REMARK    5  A    between atoms: C_17  and  C_18
REMARK    6  A    between atoms: C_18  and  C_19
REMARK    7  A    between atoms: C_18  and  C_20
REMARK                            x       y       z     vdW  Elec       q    Type
REMARK                         _______ _______ _______ _____ _____    ______ ____
ROOT
ATOM      1  N   UNL     1       2.654   5.099  19.146  0.00  0.00    +0.000 NA
ATOM      2  C   UNL     1       2.190   4.086  20.081  0.00  0.00    +0.000 C 
ATOM      3  C   UNL     1       2.416   2.600  19.722  0.00  0.00    +0.000 C 
ATOM      4  O   UNL     1       2.061   2.278  18.388  0.00  0.00    +0.000 OA
ATOM      5  C   UNL     1       3.123   2.394  17.432  0.00  0.00    +0.000 C 
ATOM      6  C   UNL     1       3.857   3.764  17.324  0.00  0.00    +0.000 C 
ATOM      7  C   UNL     1       2.738   4.812  17.712  0.00  0.00    +0.000 C 
ATOM      8  C   UNL     1       5.070   4.025  18.242  0.00  0.00    +0.000 C 
ATOM      9  N   UNL     1       6.044   4.987  17.623  0.00  0.00    +0.000 N 
ATOM     10  C   UNL     1       5.599   6.194  17.015  0.00  0.00    +0.000 C 
ATOM     11  O   UNL     1       4.494   6.387  16.513  0.00  0.00    +0.000 OA
ATOM     12  C   UNL     1       6.793   4.192  16.698  0.00  0.00    +0.000 C 
ATOM     13  C   UNL     1       5.795   3.556  15.697  0.00  0.00    +0.000 C 
ATOM     14  O   UNL     1       4.364   3.802  15.934  0.00  0.00    +0.000 OA
ENDROOT
BRANCH   1  15
ATOM     15  C   UNL     1       3.283   6.295  19.707  0.00  0.00    +0.000 C 
BRANCH  15  18
ATOM     16  C   UNL     1       0.873   8.719  21.307  0.00  0.00    +0.000 C 
ATOM     17  N   UNL     1       1.720   7.585  21.011  0.00  0.00    +0.000 N 
ATOM     18  C   UNL     1       2.276   7.431  19.763  0.00  0.00    +0.000 C 
ATOM     19  O   UNL     1       1.996   8.136  18.794  0.00  0.00    +0.000 OA
ATOM     20  H   UNL     1       2.194   7.102  21.768  0.00  0.00    +0.000 HD
ENDBRANCH  15  18
ENDBRANCH   1  15
BRANCH  10  21
ATOM     21  C   UNL     1       6.579   7.325  16.868  0.00  0.00    +0.000 C 
BRANCH  21  22
ATOM     22  C   UNL     1       7.284   7.749  18.161  0.00  0.00    +0.000 C 
ATOM     23  C   UNL     1       8.200   6.682  18.791  0.00  0.00    +0.000 C 
ATOM     24  C   UNL     1       8.122   8.996  17.883  0.00  0.00    +0.000 C 
ENDBRANCH  21  22
ENDBRANCH  10  21
TORSDOF 4
ENDMDL
MODEL 2
REMARK VINA RESULT:      -6.5      0.912      1.035
REMARK  Name = 
REMARK  7 active torsions:
REMARK  status: ('A' for Active; 'I' for Inactive)
REMARK    1  A    between atoms: C_1  and  N_2
REMARK    2  A    between atoms: C_3  and  C_5
REMARK    3  A    between atoms: C_5  and  N_6
REMARK    4  A    between atoms: C_15  and  C_17
REMARK    5  A    between atoms: C_17  and  C_18
REMARK    6  A    between atoms: C_18  and  C_19
REMARK    7  A    between atoms: C_18  and  C_20
REMARK                            x       y       z     vdW  Elec       q    Type
REMARK                         _______ _______ _______ _____ _____    ______ ____
ROOT
ATOM      1  N   UNL     1       2.524   5.188  19.198  0.00  0.00    +0.000 NA
ATOM      2  C   UNL     1       2.040   4.205  20.155  0.00  0.00    +0.000 C 
ATOM      3  C   UNL     1       2.238   2.707  19.830  0.00  0.00    +0.000 C 
ATOM      4  O   UNL     1       1.879   2.362  18.503  0.00  0.00    +0.000 OA
ATOM      5  C   UNL     1       2.944   2.437  17.546  0.00  0.00    +0.000 C 
ATOM      6  C   UNL     1       3.703   3.790  17.407  0.00  0.00    +0.000 C 
ATOM      7  C   UNL     1       2.603   4.867  17.771  0.00  0.00    +0.000 C 
ATOM      8  C   UNL     1       4.920   4.049  18.321  0.00  0.00    +0.000 C 
ATOM      9  N   UNL     1       5.912   4.979  17.682  0.00  0.00    +0.000 N 
ATOM     10  C   UNL     1       5.490   6.180  17.046  0.00  0.00    +0.000 C 
ATOM     11  O   UNL     1       4.389   6.381  16.538  0.00  0.00    +0.000 OA
ATOM     12  C   UNL     1       6.647   4.149  16.776  0.00  0.00    +0.000 C 
ATOM     13  C   UNL     1       5.638   3.509  15.788  0.00  0.00    +0.000 C 
ATOM     14  O   UNL     1       4.212   3.787  16.018  0.00  0.00    +0.000 OA
ENDROOT
BRANCH   1  15
ATOM     15  C   UNL     1       3.175   6.384  19.732  0.00  0.00    +0.000 C 
BRANCH  15  18
ATOM     16  C   UNL     1       1.633   9.252  17.823  0.00  0.00    +0.000 C 
ATOM     17  N   UNL     1       2.500   8.192  18.289  0.00  0.00    +0.000 N 
ATOM     18  C   UNL     1       2.288   7.599  19.511  0.00  0.00    +0.000 C 
ATOM     19  O   UNL     1       1.469   7.998  20.336  0.00  0.00    +0.000 OA
ATOM     20  H   UNL     1       3.026   7.643  17.616  0.00  0.00    +0.000 HD
ENDBRANCH  15  18
ENDBRANCH   1  15
BRANCH  10  21
ATOM     21  C   UNL     1       6.491   7.288  16.874  0.00  0.00    +0.000 C 
BRANCH  21  22
ATOM     22  C   UNL     1       7.238   7.695  18.149  0.00  0.00    +0.000 C 
ATOM     23  C   UNL     1       8.170   6.618  18.737  0.00  0.00    +0.000 C 
ATOM     24  C   UNL     1       8.071   8.943  17.859  0.00  0.00    +0.000 C 
ENDBRANCH  21  22
ENDBRANCH  10  21
TORSDOF 4
ENDMDL
MODEL 3
REMARK VINA RESULT:      -5.9      7.993     11.494
REMARK  Name = 
REMARK  7 active torsions:
REMARK  status: ('A' for Active; 'I' for Inactive)
REMARK    1  A    between atoms: C_1  and  N_2
REMARK    2  A    between atoms: C_3  and  C_5
REMARK    3  A    between atoms: C_5  and  N_6
REMARK    4  A    between atoms: C_15  and  C_17
REMARK    5  A    between atoms: C_17  and  C_18
REMARK    6  A    between atoms: C_18  and  C_19
REMARK    7  A    between atoms: C_18  and  C_20
REMARK                            x       y       z     vdW  Elec       q    Type
REMARK                         _______ _______ _______ _____ _____    ______ ____
ROOT
ATOM      1  N   UNL     1       8.647  16.742  18.671  0.00  0.00    +0.000 NA
ATOM      2  C   UNL     1       9.038  18.066  18.211  0.00  0.00    +0.000 C 
ATOM      3  C   UNL     1      10.545  18.405  18.150  0.00  0.00    +0.000 C 
ATOM      4  O   UNL     1      11.260  18.026  19.313  0.00  0.00    +0.000 OA
ATOM      5  C   UNL     1      11.826  16.710  19.277  0.00  0.00    +0.000 C 
ATOM      6  C   UNL     1      10.868  15.513  18.998  0.00  0.00    +0.000 C 
ATOM      7  C   UNL     1       9.491  15.996  19.607  0.00  0.00    +0.000 C 
ATOM      8  C   UNL     1      10.605  15.106  17.532  0.00  0.00    +0.000 C 
ATOM      9  N   UNL     1      10.273  13.646  17.409  0.00  0.00    +0.000 N 
ATOM     10  C   UNL     1       9.335  13.029  18.283  0.00  0.00    +0.000 C 
ATOM     11  O   UNL     1       9.064  13.391  19.426  0.00  0.00    +0.000 OA
ATOM     12  C   UNL     1      11.540  12.984  17.467  0.00  0.00    +0.000 C 
ATOM     13  C   UNL     1      12.224  13.376  18.802  0.00  0.00    +0.000 C 
ATOM     14  O   UNL     1      11.525  14.356  19.646  0.00  0.00    +0.000 OA
ENDROOT
BRANCH   1  15
ATOM     15  C   UNL     1       7.548  16.083  17.966  0.00  0.00    +0.000 C 
BRANCH  15  18
ATOM     16  C   UNL     1       4.287  15.386  19.733  0.00  0.00    +0.000 C 
ATOM     17  N   UNL     1       5.488  15.291  18.933  0.00  0.00    +0.000 N 
ATOM     18  C   UNL     1       6.228  16.413  18.644  0.00  0.00    +0.000 C 
ATOM     19  O   UNL     1       5.869  17.559  18.905  0.00  0.00    +0.000 OA
ATOM     20  H   UNL     1       5.986  14.407  18.880  0.00  0.00    +0.000 HD
ENDBRANCH  15  18
ENDBRANCH   1  15
BRANCH  10  21
ATOM     21  C   UNL     1       8.669  11.757  17.835  0.00  0.00    +0.000 C 
BRANCH  21  22
ATOM     22  C   UNL     1       9.276  10.469  18.401  0.00  0.00    +0.000 C 
ATOM     23  C   UNL     1       9.556  10.485  19.916  0.00  0.00    +0.000 C 
ATOM     24  C   UNL     1       8.336   9.304  18.100  0.00  0.00    +0.000 C 
ENDBRANCH  21  22
ENDBRANCH  10  21
TORSDOF 4
ENDMDL
MODEL 4
REMARK VINA RESULT:      -5.8      1.239      1.317
REMARK  Name = 
REMARK  7 active torsions:
REMARK  status: ('A' for Active; 'I' for Inactive)
REMARK    1  A    between atoms: C_1  and  N_2
REMARK    2  A    between atoms: C_3  and  C_5
REMARK    3  A    between atoms: C_5  and  N_6
REMARK    4  A    between atoms: C_15  and  C_17
REMARK    5  A    between atoms: C_17  and  C_18
REMARK    6  A    between atoms: C_18  and  C_19
REMARK    7  A    between atoms: C_18  and  C_20
REMARK                            x       y       z     vdW  Elec       q    Type
REMARK                         _______ _______ _______ _____ _____    ______ ____
ROOT
ATOM      1  N   UNL     1       2.009   6.084  19.229  0.00  0.00    +0.000 NA
ATOM      2  C   UNL     1       1.334   5.468  20.362  0.00  0.00    +0.000 C 
ATOM      3  C   UNL     1       1.391   3.929  20.500  0.00  0.00    +0.000 C 
ATOM      4  O   UNL     1       1.115   3.241  19.293  0.00  0.00    +0.000 OA
ATOM      5  C   UNL     1       2.262   2.944  18.485  0.00  0.00    +0.000 C 
ATOM      6  C   UNL     1       3.177   4.131  18.060  0.00  0.00    +0.000 C 
ATOM      7  C   UNL     1       2.178   5.353  17.971  0.00  0.00    +0.000 C 
ATOM      8  C   UNL     1       4.330   4.546  18.999  0.00  0.00    +0.000 C 
ATOM      9  N   UNL     1       5.473   5.163  18.244  0.00  0.00    +0.000 N 
ATOM     10  C   UNL     1       5.246   6.154  17.249  0.00  0.00    +0.000 C 
ATOM     11  O   UNL     1       4.224   6.288  16.580  0.00  0.00    +0.000 OA
ATOM     12  C   UNL     1       6.187   4.047  17.703  0.00  0.00    +0.000 C 
ATOM     13  C   UNL     1       5.204   3.230  16.825  0.00  0.00    +0.000 C 
ATOM     14  O   UNL     1       3.804   3.678  16.798  0.00  0.00    +0.000 OA
ENDROOT
BRANCH   1  15
ATOM     15  C   UNL     1       2.739   7.327  19.476  0.00  0.00    +0.000 C 
BRANCH  15  18
ATOM     16  C   UNL     1       0.578  10.386  19.011  0.00  0.00    +0.000 C 
ATOM     17  N   UNL     1       1.176   9.160  19.493  0.00  0.00    +0.000 N 
ATOM     18  C   UNL     1       2.082   8.471  18.723  0.00  0.00    +0.000 C 
ATOM     19  O   UNL     1       2.341   8.749  17.553  0.00  0.00    +0.000 OA
ATOM     20  H   UNL     1       1.220   8.984  20.492  0.00  0.00    +0.000 HD
ENDBRANCH  15  18
ENDBRANCH   1  15
BRANCH  10  21
ATOM     21  C   UNL     1       6.377   7.079  16.889  0.00  0.00    +0.000 C 
BRANCH  21  22
ATOM     22  C   UNL     1       7.170   7.631  18.078  0.00  0.00    +0.000 C 
ATOM     23  C   UNL     1       8.176   6.649  18.710  0.00  0.00    +0.000 C 
ATOM     24  C   UNL     1       7.934   8.875  17.630  0.00  0.00    +0.000 C 
ENDBRANCH  21  22
ENDBRANCH  10  21
TORSDOF 4
ENDMDL
MODEL 5
REMARK VINA RESULT:      -5.8      2.602      4.585
REMARK  Name = 
REMARK  7 active torsions:
REMARK  status: ('A' for Active; 'I' for Inactive)
REMARK    1  A    between atoms: C_1  and  N_2
REMARK    2  A    between atoms: C_3  and  C_5
REMARK    3  A    between atoms: C_5  and  N_6
REMARK    4  A    between atoms: C_15  and  C_17
REMARK    5  A    between atoms: C_17  and  C_18
REMARK    6  A    between atoms: C_18  and  C_19
REMARK    7  A    between atoms: C_18  and  C_20
REMARK                            x       y       z     vdW  Elec       q    Type
REMARK                         _______ _______ _______ _____ _____    ______ ____
ROOT
ATOM      1  N   UNL     1       3.247   2.485  19.892  0.00  0.00    +0.000 NA
ATOM      2  C   UNL     1       1.938   1.858  19.786  0.00  0.00    +0.000 C 
ATOM      3  C   UNL     1       0.728   2.747  19.417  0.00  0.00    +0.000 C 
ATOM      4  O   UNL     1       0.667   3.957  20.152  0.00  0.00    +0.000 OA
ATOM      5  C   UNL     1       1.333   5.072  19.545  0.00  0.00    +0.000 C 
ATOM      6  C   UNL     1       2.839   4.909  19.180  0.00  0.00    +0.000 C 
ATOM      7  C   UNL     1       3.373   3.895  20.270  0.00  0.00    +0.000 C 
ATOM      8  C   UNL     1       3.204   4.332  17.795  0.00  0.00    +0.000 C 
ATOM      9  N   UNL     1       4.535   4.833  17.314  0.00  0.00    +0.000 N 
ATOM     10  C   UNL     1       5.670   4.848  18.173  0.00  0.00    +0.000 C 
ATOM     11  O   UNL     1       5.648   4.928  19.399  0.00  0.00    +0.000 OA
ATOM     12  C   UNL     1       4.261   6.141  16.803  0.00  0.00    +0.000 C 
ATOM     13  C   UNL     1       3.636   6.980  17.947  0.00  0.00    +0.000 C 
ATOM     14  O   UNL     1       3.378   6.287  19.218  0.00  0.00    +0.000 OA
ENDROOT
BRANCH   1  15
ATOM     15  C   UNL     1       4.390   1.751  19.352  0.00  0.00    +0.000 C 
BRANCH  15  18
ATOM     16  C   UNL     1       6.363  -1.034  20.963  0.00  0.00    +0.000 C 
ATOM     17  N   UNL     1       5.514  -0.246  20.097  0.00  0.00    +0.000 N 
ATOM     18  C   UNL     1       5.107   1.012  20.471  0.00  0.00    +0.000 C 
ATOM     19  O   UNL     1       5.301   1.496  21.584  0.00  0.00    +0.000 OA
ATOM     20  H   UNL     1       5.501  -0.438  19.100  0.00  0.00    +0.000 HD
ENDBRANCH  15  18
ENDBRANCH   1  15
BRANCH  10  21
ATOM     21  C   UNL     1       7.038   4.869  17.550  0.00  0.00    +0.000 C 
BRANCH  21  22
ATOM     22  C   UNL     1       7.927   6.045  17.970  0.00  0.00    +0.000 C 
ATOM     23  C   UNL     1       7.386   7.441  17.606  0.00  0.00    +0.000 C 
ATOM     24  C   UNL     1       8.139   5.992  19.481  0.00  0.00    +0.000 C 
ENDBRANCH  21  22
ENDBRANCH  10  21
TORSDOF 4
ENDMDL
MODEL 6
REMARK VINA RESULT:      -5.7      1.061      1.306
REMARK  Name = 
REMARK  7 active torsions:
REMARK  status: ('A' for Active; 'I' for Inactive)
REMARK    1  A    between atoms: C_1  and  N_2
REMARK    2  A    between atoms: C_3  and  C_5
REMARK    3  A    between atoms: C_5  and  N_6
REMARK    4  A    between atoms: C_15  and  C_17
REMARK    5  A    between atoms: C_17  and  C_18
REMARK    6  A    between atoms: C_18  and  C_19
REMARK    7  A    between atoms: C_18  and  C_20
REMARK                            x       y       z     vdW  Elec       q    Type
REMARK                         _______ _______ _______ _____ _____    ______ ____
ROOT
ATOM      1  N   UNL     1       1.796   5.085  19.604  0.00  0.00    +0.000 NA
ATOM      2  C   UNL     1       0.968   4.056  20.215  0.00  0.00    +0.000 C 
ATOM      3  C   UNL     1       0.992   2.637  19.602  0.00  0.00    +0.000 C 
ATOM      4  O   UNL     1       0.877   2.627  18.189  0.00  0.00    +0.000 OA
ATOM      5  C   UNL     1       2.121   2.667  17.478  0.00  0.00    +0.000 C 
ATOM      6  C   UNL     1       3.096   3.842  17.784  0.00  0.00    +0.000 C 
ATOM      7  C   UNL     1       2.129   5.029  18.179  0.00  0.00    +0.000 C 
ATOM      8  C   UNL     1       4.114   3.675  18.934  0.00  0.00    +0.000 C 
ATOM      9  N   UNL     1       5.354   4.491  18.706  0.00  0.00    +0.000 N 
ATOM     10  C   UNL     1       5.274   5.850  18.291  0.00  0.00    +0.000 C 
ATOM     11  O   UNL     1       4.355   6.360  17.655  0.00  0.00    +0.000 OA
ATOM     12  C   UNL     1       6.126   3.717  17.782  0.00  0.00    +0.000 C 
ATOM     13  C   UNL     1       5.266   3.490  16.513  0.00  0.00    +0.000 C 
ATOM     14  O   UNL     1       3.886   3.998  16.542  0.00  0.00    +0.000 OA
ENDROOT
BRANCH   1  15
ATOM     15  C   UNL     1       2.497   6.004  20.501  0.00  0.00    +0.000 C 
BRANCH  15  18
ATOM     16  C   UNL     1       1.009   9.306  21.560  0.00  0.00    +0.000 C 
ATOM     17  N   UNL     1       1.415   7.921  21.481  0.00  0.00    +0.000 N 
ATOM     18  C   UNL     1       1.955   7.413  20.324  0.00  0.00    +0.000 C 
ATOM     19  O   UNL     1       2.002   8.027  19.260  0.00  0.00    +0.000 OA
ATOM     20  H   UNL     1       1.642   7.416  22.333  0.00  0.00    +0.000 HD
ENDBRANCH  15  18
ENDBRANCH   1  15
BRANCH  10  21
ATOM     21  C   UNL     1       6.452   6.748  18.554  0.00  0.00    +0.000 C 
BRANCH  21  22
ATOM     22  C   UNL     1       6.948   7.544  17.343  0.00  0.00    +0.000 C 
ATOM     23  C   UNL     1       8.037   8.591  17.645  0.00  0.00    +0.000 C 
ATOM     24  C   UNL     1       7.497   6.571  16.301  0.00  0.00    +0.000 C 
ENDBRANCH  21  22
ENDBRANCH  10  21
TORSDOF 4
ENDMDL
MODEL 7
REMARK VINA RESULT:      -5.6      1.430      1.573
REMARK  Name = 
REMARK  7 active torsions:
REMARK  status: ('A' for Active; 'I' for Inactive)
REMARK    1  A    between atoms: C_1  and  N_2
REMARK    2  A    between atoms: C_3  and  C_5
REMARK    3  A    between atoms: C_5  and  N_6
REMARK    4  A    between atoms: C_15  and  C_17
REMARK    5  A    between atoms: C_17  and  C_18
REMARK    6  A    between atoms: C_18  and  C_19
REMARK    7  A    between atoms: C_18  and  C_20
REMARK                            x       y       z     vdW  Elec       q    Type
REMARK                         _______ _______ _______ _____ _____    ______ ____
ROOT
ATOM      1  N   UNL     1       1.892   5.003  20.184  0.00  0.00    +0.000 NA
ATOM      2  C   UNL     1       1.544   4.021  21.199  0.00  0.00    +0.000 C 
ATOM      3  C   UNL     1       1.729   2.523  20.863  0.00  0.00    +0.000 C 
ATOM      4  O   UNL     1       1.220   2.160  19.591  0.00  0.00    +0.000 OA
ATOM      5  C   UNL     1       2.162   2.244  18.513  0.00  0.00    +0.000 C 
ATOM      6  C   UNL     1       2.875   3.609  18.276  0.00  0.00    +0.000 C 
ATOM      7  C   UNL     1       1.808   4.670  18.760  0.00  0.00    +0.000 C 
ATOM      8  C   UNL     1       4.188   3.897  19.037  0.00  0.00    +0.000 C 
ATOM      9  N   UNL     1       5.080   4.837  18.277  0.00  0.00    +0.000 N 
ATOM     10  C   UNL     1       4.563   6.025  17.687  0.00  0.00    +0.000 C 
ATOM     11  O   UNL     1       3.407   6.203  17.313  0.00  0.00    +0.000 OA
ATOM     12  C   UNL     1       5.716   4.012  17.296  0.00  0.00    +0.000 C 
ATOM     13  C   UNL     1       4.609   3.346  16.440  0.00  0.00    +0.000 C 
ATOM     14  O   UNL     1       3.216   3.601  16.836  0.00  0.00    +0.000 OA
ENDROOT
BRANCH   1  15
ATOM     15  C   UNL     1       2.580   6.215  20.629  0.00  0.00    +0.000 C 
BRANCH  15  18
ATOM     16  C   UNL     1       1.240   9.231  18.798  0.00  0.00    +0.000 C 
ATOM     17  N   UNL     1       2.065   8.146  19.284  0.00  0.00    +0.000 N 
ATOM     18  C   UNL     1       1.695   7.428  20.395  0.00  0.00    +0.000 C 
ATOM     19  O   UNL     1       0.749   7.725  21.123  0.00  0.00    +0.000 OA
ATOM     20  H   UNL     1       2.703   7.678  18.647  0.00  0.00    +0.000 HD
ENDBRANCH  15  18
ENDBRANCH   1  15
BRANCH  10  21
ATOM     21  C   UNL     1       5.517   7.149  17.390  0.00  0.00    +0.000 C 
BRANCH  21  22
ATOM     22  C   UNL     1       7.000   6.762  17.386  0.00  0.00    +0.000 C 
ATOM     23  C   UNL     1       7.525   6.185  16.057  0.00  0.00    +0.000 C 
ATOM     24  C   UNL     1       7.835   7.992  17.737  0.00  0.00    +0.000 C 
ENDBRANCH  21  22
ENDBRANCH  10  21
TORSDOF 4
ENDMDL
MODEL 8
REMARK VINA RESULT:      -5.6      9.126     12.714
REMARK  Name = 
REMARK  7 active torsions:
REMARK  status: ('A' for Active; 'I' for Inactive)
REMARK    1  A    between atoms: C_1  and  N_2
REMARK    2  A    between atoms: C_3  and  C_5
REMARK    3  A    between atoms: C_5  and  N_6
REMARK    4  A    between atoms: C_15  and  C_17
REMARK    5  A    between atoms: C_17  and  C_18
REMARK    6  A    between atoms: C_18  and  C_19
REMARK    7  A    between atoms: C_18  and  C_20
REMARK                            x       y       z     vdW  Elec       q    Type
REMARK                         _______ _______ _______ _____ _____    ______ ____
ROOT
ATOM      1  N   UNL     1      -5.425  12.985  20.110  0.00  0.00    +0.000 NA
ATOM      2  C   UNL     1      -6.171  13.841  19.200  0.00  0.00    +0.000 C 
ATOM      3  C   UNL     1      -6.775  15.150  19.757  0.00  0.00    +0.000 C 
ATOM      4  O   UNL     1      -7.455  14.983  20.989  0.00  0.00    +0.000 OA
ATOM      5  C   UNL     1      -6.648  15.170  22.160  0.00  0.00    +0.000 C 
ATOM      6  C   UNL     1      -5.360  14.305  22.301  0.00  0.00    +0.000 C 
ATOM      7  C   UNL     1      -5.730  12.968  21.542  0.00  0.00    +0.000 C 
ATOM      8  C   UNL     1      -4.046  14.834  21.686  0.00  0.00    +0.000 C 
ATOM      9  N   UNL     1      -2.839  14.324  22.421  0.00  0.00    +0.000 N 
ATOM     10  C   UNL     1      -2.719  12.950  22.772  0.00  0.00    +0.000 C 
ATOM     11  O   UNL     1      -3.648  12.168  22.964  0.00  0.00    +0.000 OA
ATOM     12  C   UNL     1      -2.746  15.159  23.579  0.00  0.00    +0.000 C 
ATOM     13  C   UNL     1      -4.077  15.036  24.366  0.00  0.00    +0.000 C 
ATOM     14  O   UNL     1      -5.136  14.214  23.761  0.00  0.00    +0.000 OA
ENDROOT
BRANCH   1  15
ATOM     15  C   UNL     1      -4.204  12.363  19.598  0.00  0.00    +0.000 C 
BRANCH  15  18
ATOM     16  C   UNL     1      -3.804  11.101  16.064  0.00  0.00    +0.000 C 
ATOM     17  N   UNL     1      -3.770  11.889  17.276  0.00  0.00    +0.000 N 
ATOM     18  C   UNL     1      -4.524  11.530  18.368  0.00  0.00    +0.000 C 
ATOM     19  O   UNL     1      -5.363  10.632  18.358  0.00  0.00    +0.000 OA
ATOM     20  H   UNL     1      -2.964  12.477  17.469  0.00  0.00    +0.000 HD
ENDBRANCH  15  18
ENDBRANCH   1  15
BRANCH  10  21
ATOM     21  C   UNL     1      -1.346  12.396  23.036  0.00  0.00    +0.000 C 
BRANCH  21  22
ATOM     22  C   UNL     1      -0.954  11.188  22.179  0.00  0.00    +0.000 C 
ATOM     23  C   UNL     1       0.239  11.415  21.230  0.00  0.00    +0.000 C 
ATOM     24  C   UNL     1      -0.617  10.016  23.099  0.00  0.00    +0.000 C 
ENDBRANCH  21  22
ENDBRANCH  10  21
TORSDOF 4
ENDMDL
MODEL 9
REMARK VINA RESULT:      -5.6      9.309     11.306
REMARK  Name = 
REMARK  7 active torsions:
REMARK  status: ('A' for Active; 'I' for Inactive)
REMARK    1  A    between atoms: C_1  and  N_2
REMARK    2  A    between atoms: C_3  and  C_5
REMARK    3  A    between atoms: C_5  and  N_6
REMARK    4  A    between atoms: C_15  and  C_17
REMARK    5  A    between atoms: C_17  and  C_18
REMARK    6  A    between atoms: C_18  and  C_19
REMARK    7  A    between atoms: C_18  and  C_20
REMARK                            x       y       z     vdW  Elec       q    Type
REMARK                         _______ _______ _______ _____ _____    ______ ____
ROOT
ATOM      1  N   UNL     1       9.687  16.196  19.215  0.00  0.00    +0.000 NA
ATOM      2  C   UNL     1       9.629  16.904  17.945  0.00  0.00    +0.000 C 
ATOM      3  C   UNL     1      10.509  16.394  16.781  0.00  0.00    +0.000 C 
ATOM      4  O   UNL     1      11.846  16.116  17.160  0.00  0.00    +0.000 OA
ATOM      5  C   UNL     1      12.090  14.768  17.583  0.00  0.00    +0.000 C 
ATOM      6  C   UNL     1      11.225  14.204  18.750  0.00  0.00    +0.000 C 
ATOM      7  C   UNL     1      10.902  15.485  19.620  0.00  0.00    +0.000 C 
ATOM      8  C   UNL     1       9.879  13.527  18.410  0.00  0.00    +0.000 C 
ATOM      9  N   UNL     1       9.503  12.489  19.429  0.00  0.00    +0.000 N 
ATOM     10  C   UNL     1       9.598  12.759  20.823  0.00  0.00    +0.000 C 
ATOM     11  O   UNL     1      10.362  13.561  21.354  0.00  0.00    +0.000 OA
ATOM     12  C   UNL     1      10.280  11.341  19.074  0.00  0.00    +0.000 C 
ATOM     13  C   UNL     1      11.775  11.750  19.097  0.00  0.00    +0.000 C 
ATOM     14  O   UNL     1      12.076  13.164  19.369  0.00  0.00    +0.000 OA
ENDROOT
BRANCH   1  15
ATOM     15  C   UNL     1       8.428  15.992  19.930  0.00  0.00    +0.000 C 
BRANCH  15  18
ATOM     16  C   UNL     1       5.467  15.008  17.806  0.00  0.00    +0.000 C 
ATOM     17  N   UNL     1       6.697  15.016  18.567  0.00  0.00    +0.000 N 
ATOM     18  C   UNL     1       7.256  16.200  18.984  0.00  0.00    +0.000 C 
ATOM     19  O   UNL     1       6.856  17.309  18.637  0.00  0.00    +0.000 OA
ATOM     20  H   UNL     1       6.963  14.190  19.096  0.00  0.00    +0.000 HD
ENDBRANCH  15  18
ENDBRANCH   1  15
BRANCH  10  21
ATOM     21  C   UNL     1       8.772  11.932  21.769  0.00  0.00    +0.000 C 
BRANCH  21  22
ATOM     22  C   UNL     1       8.207  12.690  22.975  0.00  0.00    +0.000 C 
ATOM     23  C   UNL     1       6.804  13.295  22.773  0.00  0.00    +0.000 C 
ATOM     24  C   UNL     1       8.153  11.746  24.174  0.00  0.00    +0.000 C 
ENDBRANCH  21  22
ENDBRANCH  10  21
TORSDOF 4
ENDMDL
