MODEL 1
REMARK VINA RESULT:      -8.4      0.000      0.000
REMARK  Name = 
REMARK  9 active torsions:
REMARK  status: ('A' for Active; 'I' for Inactive)
REMARK    1  A    between atoms: C_1  and  O_2
REMARK    2  A    between atoms: O_2  and  C_3
REMARK    3  A    between atoms: C_3  and  C_4
REMARK    4  A    between atoms: N_6  and  C_7
REMARK    5  A    between atoms: N_10  and  C_11
REMARK    6  A    between atoms: C_15  and  C_16
REMARK    7  A    between atoms: N_21  and  C_22
REMARK    8  A    between atoms: C_26  and  O_27
REMARK    9  A    between atoms: O_27  and  C_28
REMARK                            x       y       z     vdW  Elec       q    Type
REMARK                         _______ _______ _______ _____ _____    ______ ____
ROOT
ATOM      1  C   UNL     1       1.137   9.062  20.141  0.00  0.00    +0.000 A 
ATOM      2  C   UNL     1       1.113   9.806  18.954  0.00  0.00    +0.000 A 
ATOM      3  C   UNL     1       1.734   9.311  17.804  0.00  0.00    +0.000 A 
ATOM      4  C   UNL     1       2.319   8.043  17.816  0.00  0.00    +0.000 A 
ATOM      5  C   UNL     1       2.330   7.292  18.997  0.00  0.00    +0.000 A 
ATOM      6  C   UNL     1       1.833   7.853  20.177  0.00  0.00    +0.000 A 
ENDROOT
BRANCH   5   7
ATOM      7  C   UNL     1       2.918   5.926  18.989  0.00  0.00    +0.000 C 
ATOM      8  O   UNL     1       2.334   5.056  19.634  0.00  0.00    +0.000 OA
ATOM      9  N   UNL     1       4.075   5.657  18.261  0.00  0.00    +0.000 N 
ATOM     10  C   UNL     1       4.465   4.277  18.048  0.00  0.00    +0.000 C 
ATOM     11  C   UNL     1       4.430   4.010  16.548  0.00  0.00    +0.000 C 
ATOM     12  N   UNL     1       5.269   4.952  15.782  0.00  0.00    +0.000 N 
ATOM     13  C   UNL     1       5.408   6.287  16.209  0.00  0.00    +0.000 C 
ATOM     14  O   UNL     1       5.897   7.198  15.535  0.00  0.00    +0.000 OA
ATOM     15  C   UNL     1       5.018   6.603  17.668  0.00  0.00    +0.000 C 
BRANCH  12  16
ATOM     16  C   UNL     1       5.764   4.517  14.503  0.00  0.00    +0.000 A 
ATOM     17  C   UNL     1       7.071   4.812  14.093  0.00  0.00    +0.000 A 
ATOM     18  C   UNL     1       7.560   4.366  12.865  0.00  0.00    +0.000 A 
ATOM     19  C   UNL     1       6.743   3.616  12.022  0.00  0.00    +0.000 A 
ATOM     20  C   UNL     1       5.441   3.304  12.404  0.00  0.00    +0.000 A 
ATOM     21  C   UNL     1       4.963   3.747  13.641  0.00  0.00    +0.000 A 
BRANCH  20  22
ATOM     22  O   UNL     1       4.728   2.574  11.490  0.00  0.00    +0.000 OA
ATOM     23  C   UNL     1       3.704   3.259  10.780  0.00  0.00    +0.000 C 
ENDBRANCH  20  22
ENDBRANCH  12  16
ENDBRANCH   5   7
BRANCH   1  27
ATOM     24  C   UNL     1      -0.876  10.674  22.653  0.00  0.00    +0.000 A 
ATOM     25  C   UNL     1      -0.098   9.718  23.328  0.00  0.00    +0.000 A 
ATOM     26  N   UNL     1       0.642   8.978  22.498  0.00  0.00    +0.000 NA
ATOM     27  N   UNL     1       0.379   9.487  21.271  0.00  0.00    +0.000 N 
ATOM     28  C   UNL     1      -0.578  10.478  21.324  0.00  0.00    +0.000 A 
BRANCH  24  31
ATOM     29  C   UNL     1      -1.391  12.936  23.375  0.00  0.00    +0.000 C 
ATOM     30  O   UNL     1      -0.286  13.424  23.160  0.00  0.00    +0.000 OA
ATOM     31  N   UNL     1      -1.762  11.626  23.125  0.00  0.00    +0.000 N 
ATOM     32  H   UNL     1      -2.706  11.342  23.330  0.00  0.00    +0.000 HD
BRANCH  29  33
ATOM     33  C   UNL     1      -2.506  13.765  24.001  0.00  0.00    +0.000 C 
BRANCH  33  35
ATOM     34  C   UNL     1      -2.244  16.094  24.278  0.00  0.00    +0.000 C 
ATOM     35  O   UNL     1      -2.032  14.805  24.847  0.00  0.00    +0.000 OA
ENDBRANCH  33  35
ENDBRANCH  29  33
ENDBRANCH  24  31
ENDBRANCH   1  27
TORSDOF 7
ENDMDL
MODEL 2
REMARK VINA RESULT:      -8.2      2.561     11.510
REMARK  Name = 
REMARK  9 active torsions:
REMARK  status: ('A' for Active; 'I' for Inactive)
REMARK    1  A    between atoms: C_1  and  O_2
REMARK    2  A    between atoms: O_2  and  C_3
REMARK    3  A    between atoms: C_3  and  C_4
REMARK    4  A    between atoms: N_6  and  C_7
REMARK    5  A    between atoms: N_10  and  C_11
REMARK    6  A    between atoms: C_15  and  C_16
REMARK    7  A    between atoms: N_21  and  C_22
REMARK    8  A    between atoms: C_26  and  O_27
REMARK    9  A    between atoms: O_27  and  C_28
REMARK                            x       y       z     vdW  Elec       q    Type
REMARK                         _______ _______ _______ _____ _____    ______ ____
ROOT
ATOM      1  C   UNL     1       6.561   5.269  16.787  0.00  0.00    +0.000 A 
ATOM      2  C   UNL     1       7.707   5.474  17.568  0.00  0.00    +0.000 A 
ATOM      3  C   UNL     1       7.591   5.659  18.948  0.00  0.00    +0.000 A 
ATOM      4  C   UNL     1       6.339   5.571  19.562  0.00  0.00    +0.000 A 
ATOM      5  C   UNL     1       5.196   5.351  18.786  0.00  0.00    +0.000 A 
ATOM      6  C   UNL     1       5.305   5.309  17.392  0.00  0.00    +0.000 A 
ENDROOT
BRANCH   5   7
ATOM      7  C   UNL     1       3.874   5.218  19.452  0.00  0.00    +0.000 C 
ATOM      8  O   UNL     1       3.764   4.355  20.323  0.00  0.00    +0.000 OA
ATOM      9  N   UNL     1       2.817   6.056  19.104  0.00  0.00    +0.000 N 
ATOM     10  C   UNL     1       1.640   6.090  19.950  0.00  0.00    +0.000 C 
ATOM     11  C   UNL     1       1.512   7.501  20.511  0.00  0.00    +0.000 C 
ATOM     12  N   UNL     1       1.471   8.532  19.456  0.00  0.00    +0.000 N 
ATOM     13  C   UNL     1       2.209   8.361  18.268  0.00  0.00    +0.000 C 
ATOM     14  O   UNL     1       2.417   9.245  17.432  0.00  0.00    +0.000 OA
ATOM     15  C   UNL     1       2.696   6.935  17.942  0.00  0.00    +0.000 C 
BRANCH  12  16
ATOM     16  C   UNL     1       0.824   9.780  19.765  0.00  0.00    +0.000 A 
ATOM     17  C   UNL     1      -0.499  10.028  19.376  0.00  0.00    +0.000 A 
ATOM     18  C   UNL     1      -1.134  11.226  19.701  0.00  0.00    +0.000 A 
ATOM     19  C   UNL     1      -0.451  12.203  20.422  0.00  0.00    +0.000 A 
ATOM     20  C   UNL     1       0.865  11.984  20.825  0.00  0.00    +0.000 A 
ATOM     21  C   UNL     1       1.489  10.775  20.504  0.00  0.00    +0.000 A 
BRANCH  20  22
ATOM     22  O   UNL     1       1.438  13.018  21.516  0.00  0.00    +0.000 OA
ATOM     23  C   UNL     1       2.405  13.796  20.819  0.00  0.00    +0.000 C 
ENDBRANCH  20  22
ENDBRANCH  12  16
ENDBRANCH   5   7
BRANCH   1  27
ATOM     24  C   UNL     1       6.722   3.813  13.498  0.00  0.00    +0.000 A 
ATOM     25  C   UNL     1       7.502   4.982  13.448  0.00  0.00    +0.000 A 
ATOM     26  N   UNL     1       7.460   5.676  14.589  0.00  0.00    +0.000 NA
ATOM     27  N   UNL     1       6.683   4.929  15.408  0.00  0.00    +0.000 N 
ATOM     28  C   UNL     1       6.175   3.823  14.761  0.00  0.00    +0.000 A 
BRANCH  24  31
ATOM     29  C   UNL     1       5.323   2.747  11.822  0.00  0.00    +0.000 C 
ATOM     30  O   UNL     1       4.391   3.544  11.867  0.00  0.00    +0.000 OA
ATOM     31  N   UNL     1       6.495   2.828  12.553  0.00  0.00    +0.000 N 
ATOM     32  H   UNL     1       7.199   2.120  12.421  0.00  0.00    +0.000 HD
BRANCH  29  33
ATOM     33  C   UNL     1       5.257   1.512  10.932  0.00  0.00    +0.000 C 
BRANCH  33  35
ATOM     34  C   UNL     1       6.013  -0.693  11.298  0.00  0.00    +0.000 C 
ATOM     35  O   UNL     1       6.389   0.661  11.059  0.00  0.00    +0.000 OA
ENDBRANCH  33  35
ENDBRANCH  29  33
ENDBRANCH  24  31
ENDBRANCH   1  27
TORSDOF 7
ENDMDL
MODEL 3
REMARK VINA RESULT:      -7.8      1.966      2.903
REMARK  Name = 
REMARK  9 active torsions:
REMARK  status: ('A' for Active; 'I' for Inactive)
REMARK    1  A    between atoms: C_1  and  O_2
REMARK    2  A    between atoms: O_2  and  C_3
REMARK    3  A    between atoms: C_3  and  C_4
REMARK    4  A    between atoms: N_6  and  C_7
REMARK    5  A    between atoms: N_10  and  C_11
REMARK    6  A    between atoms: C_15  and  C_16
REMARK    7  A    between atoms: N_21  and  C_22
REMARK    8  A    between atoms: C_26  and  O_27
REMARK    9  A    between atoms: O_27  and  C_28
REMARK                            x       y       z     vdW  Elec       q    Type
REMARK                         _______ _______ _______ _____ _____    ______ ____
ROOT
ATOM      1  C   UNL     1       2.077   7.073  19.750  0.00  0.00    +0.000 A 
ATOM      2  C   UNL     1       1.244   6.200  20.462  0.00  0.00    +0.000 A 
ATOM      3  C   UNL     1       1.688   4.917  20.788  0.00  0.00    +0.000 A 
ATOM      4  C   UNL     1       2.989   4.524  20.467  0.00  0.00    +0.000 A 
ATOM      5  C   UNL     1       3.828   5.400  19.769  0.00  0.00    +0.000 A 
ATOM      6  C   UNL     1       3.328   6.627  19.322  0.00  0.00    +0.000 A 
ENDROOT
BRANCH   5   7
ATOM      7  C   UNL     1       5.224   4.989  19.467  0.00  0.00    +0.000 C 
ATOM      8  O   UNL     1       5.780   4.240  20.270  0.00  0.00    +0.000 OA
ATOM      9  N   UNL     1       5.858   5.431  18.307  0.00  0.00    +0.000 N 
ATOM     10  C   UNL     1       7.101   4.803  17.903  0.00  0.00    +0.000 C 
ATOM     11  C   UNL     1       6.868   4.136  16.553  0.00  0.00    +0.000 C 
ATOM     12  N   UNL     1       6.360   5.076  15.535  0.00  0.00    +0.000 N 
ATOM     13  C   UNL     1       5.501   6.129  15.906  0.00  0.00    +0.000 C 
ATOM     14  O   UNL     1       4.854   6.824  15.118  0.00  0.00    +0.000 OA
ATOM     15  C   UNL     1       5.453   6.504  17.401  0.00  0.00    +0.000 C 
BRANCH  12  16
ATOM     16  C   UNL     1       6.610   4.762  14.153  0.00  0.00    +0.000 A 
ATOM     17  C   UNL     1       7.656   5.371  13.447  0.00  0.00    +0.000 A 
ATOM     18  C   UNL     1       7.914   5.045  12.116  0.00  0.00    +0.000 A 
ATOM     19  C   UNL     1       7.125   4.101  11.465  0.00  0.00    +0.000 A 
ATOM     20  C   UNL     1       6.080   3.475  12.140  0.00  0.00    +0.000 A 
ATOM     21  C   UNL     1       5.834   3.801  13.478  0.00  0.00    +0.000 A 
BRANCH  20  22
ATOM     22  O   UNL     1       5.365   2.576  11.396  0.00  0.00    +0.000 OA
ATOM     23  C   UNL     1       4.017   2.919  11.095  0.00  0.00    +0.000 C 
ENDBRANCH  20  22
ENDBRANCH  12  16
ENDBRANCH   5   7
BRANCH   1  27
ATOM     24  C   UNL     1       0.668  10.386  19.699  0.00  0.00    +0.000 A 
ATOM     25  C   UNL     1       1.275  10.198  18.445  0.00  0.00    +0.000 A 
ATOM     26  N   UNL     1       1.919   9.032  18.355  0.00  0.00    +0.000 NA
ATOM     27  N   UNL     1       1.691   8.430  19.547  0.00  0.00    +0.000 N 
ATOM     28  C   UNL     1       0.984   9.247  20.403  0.00  0.00    +0.000 A 
BRANCH  24  31
ATOM     29  C   UNL     1      -1.357  11.728  19.738  0.00  0.00    +0.000 C 
ATOM     30  O   UNL     1      -1.985  11.087  18.901  0.00  0.00    +0.000 OA
ATOM     31  N   UNL     1      -0.085  11.432  20.199  0.00  0.00    +0.000 N 
ATOM     32  H   UNL     1       0.326  12.025  20.902  0.00  0.00    +0.000 HD
BRANCH  29  33
ATOM     33  C   UNL     1      -1.938  12.994  20.355  0.00  0.00    +0.000 C 
BRANCH  33  35
ATOM     34  C   UNL     1      -2.901  12.506  22.455  0.00  0.00    +0.000 C 
ATOM     35  O   UNL     1      -1.781  13.059  21.767  0.00  0.00    +0.000 OA
ENDBRANCH  33  35
ENDBRANCH  29  33
ENDBRANCH  24  31
ENDBRANCH   1  27
TORSDOF 7
ENDMDL
MODEL 4
REMARK VINA RESULT:      -7.8      1.908      2.759
REMARK  Name = 
REMARK  9 active torsions:
REMARK  status: ('A' for Active; 'I' for Inactive)
REMARK    1  A    between atoms: C_1  and  O_2
REMARK    2  A    between atoms: O_2  and  C_3
REMARK    3  A    between atoms: C_3  and  C_4
REMARK    4  A    between atoms: N_6  and  C_7
REMARK    5  A    between atoms: N_10  and  C_11
REMARK    6  A    between atoms: C_15  and  C_16
REMARK    7  A    between atoms: N_21  and  C_22
REMARK    8  A    between atoms: C_26  and  O_27
REMARK    9  A    between atoms: O_27  and  C_28
REMARK                            x       y       z     vdW  Elec       q    Type
REMARK                         _______ _______ _______ _____ _____    ______ ____
ROOT
ATOM      1  C   UNL     1       2.086   6.990  19.760  0.00  0.00    +0.000 A 
ATOM      2  C   UNL     1       1.248   6.052  20.377  0.00  0.00    +0.000 A 
ATOM      3  C   UNL     1       1.703   4.752  20.611  0.00  0.00    +0.000 A 
ATOM      4  C   UNL     1       3.018   4.404  20.293  0.00  0.00    +0.000 A 
ATOM      5  C   UNL     1       3.861   5.344  19.691  0.00  0.00    +0.000 A 
ATOM      6  C   UNL     1       3.354   6.597  19.331  0.00  0.00    +0.000 A 
ENDROOT
BRANCH   5   7
ATOM      7  C   UNL     1       5.271   4.978  19.394  0.00  0.00    +0.000 C 
ATOM      8  O   UNL     1       5.849   4.252  20.203  0.00  0.00    +0.000 OA
ATOM      9  N   UNL     1       5.892   5.433  18.233  0.00  0.00    +0.000 N 
ATOM     10  C   UNL     1       7.156   4.844  17.836  0.00  0.00    +0.000 C 
ATOM     11  C   UNL     1       6.948   4.162  16.489  0.00  0.00    +0.000 C 
ATOM     12  N   UNL     1       6.411   5.078  15.464  0.00  0.00    +0.000 N 
ATOM     13  C   UNL     1       5.517   6.104  15.827  0.00  0.00    +0.000 C 
ATOM     14  O   UNL     1       4.850   6.774  15.033  0.00  0.00    +0.000 OA
ATOM     15  C   UNL     1       5.455   6.487  17.319  0.00  0.00    +0.000 C 
BRANCH  12  16
ATOM     16  C   UNL     1       6.674   4.764  14.084  0.00  0.00    +0.000 A 
ATOM     17  C   UNL     1       7.650   5.457  13.355  0.00  0.00    +0.000 A 
ATOM     18  C   UNL     1       7.923   5.133  12.026  0.00  0.00    +0.000 A 
ATOM     19  C   UNL     1       7.220   4.106  11.401  0.00  0.00    +0.000 A 
ATOM     20  C   UNL     1       6.247   3.396  12.101  0.00  0.00    +0.000 A 
ATOM     21  C   UNL     1       5.987   3.722  13.436  0.00  0.00    +0.000 A 
BRANCH  20  22
ATOM     22  O   UNL     1       5.612   2.420  11.382  0.00  0.00    +0.000 OA
ATOM     23  C   UNL     1       6.223   1.135  11.367  0.00  0.00    +0.000 C 
ENDBRANCH  20  22
ENDBRANCH  12  16
ENDBRANCH   5   7
BRANCH   1  27
ATOM     24  C   UNL     1       0.642  10.283  19.955  0.00  0.00    +0.000 A 
ATOM     25  C   UNL     1       1.241  10.191  18.686  0.00  0.00    +0.000 A 
ATOM     26  N   UNL     1       1.897   9.041  18.509  0.00  0.00    +0.000 NA
ATOM     27  N   UNL     1       1.685   8.354  19.656  0.00  0.00    +0.000 N 
ATOM     28  C   UNL     1       0.976   9.100  20.574  0.00  0.00    +0.000 A 
BRANCH  24  31
ATOM     29  C   UNL     1       0.444  12.373  21.176  0.00  0.00    +0.000 C 
ATOM     30  O   UNL     1       1.643  12.620  21.259  0.00  0.00    +0.000 OA
ATOM     31  N   UNL     1      -0.117  11.283  20.533  0.00  0.00    +0.000 N 
ATOM     32  H   UNL     1      -1.120  11.193  20.517  0.00  0.00    +0.000 HD
BRANCH  29  33
ATOM     33  C   UNL     1      -0.591  13.277  21.835  0.00  0.00    +0.000 C 
BRANCH  33  35
ATOM     34  C   UNL     1      -2.430  13.078  23.301  0.00  0.00    +0.000 C 
ATOM     35  O   UNL     1      -1.831  12.628  22.089  0.00  0.00    +0.000 OA
ENDBRANCH  33  35
ENDBRANCH  29  33
ENDBRANCH  24  31
ENDBRANCH   1  27
TORSDOF 7
ENDMDL
MODEL 5
REMARK VINA RESULT:      -7.7      2.262     11.873
REMARK  Name = 
REMARK  9 active torsions:
REMARK  status: ('A' for Active; 'I' for Inactive)
REMARK    1  A    between atoms: C_1  and  O_2
REMARK    2  A    between atoms: O_2  and  C_3
REMARK    3  A    between atoms: C_3  and  C_4
REMARK    4  A    between atoms: N_6  and  C_7
REMARK    5  A    between atoms: N_10  and  C_11
REMARK    6  A    between atoms: C_15  and  C_16
REMARK    7  A    between atoms: N_21  and  C_22
REMARK    8  A    between atoms: C_26  and  O_27
REMARK    9  A    between atoms: O_27  and  C_28
REMARK                            x       y       z     vdW  Elec       q    Type
REMARK                         _______ _______ _______ _____ _____    ______ ____
ROOT
ATOM      1  C   UNL     1       2.763   6.191  19.210  0.00  0.00    +0.000 A 
ATOM      2  C   UNL     1       2.174   5.719  20.391  0.00  0.00    +0.000 A 
ATOM      3  C   UNL     1       1.325   6.545  21.130  0.00  0.00    +0.000 A 
ATOM      4  C   UNL     1       1.005   7.820  20.658  0.00  0.00    +0.000 A 
ATOM      5  C   UNL     1       1.579   8.288  19.471  0.00  0.00    +0.000 A 
ATOM      6  C   UNL     1       2.537   7.510  18.813  0.00  0.00    +0.000 A 
ENDROOT
BRANCH   5   7
ATOM      7  C   UNL     1       1.201   9.629  18.954  0.00  0.00    +0.000 C 
ATOM      8  O   UNL     1       1.232   9.796  17.735  0.00  0.00    +0.000 OA
ATOM      9  N   UNL     1       0.813  10.642  19.830  0.00  0.00    +0.000 N 
ATOM     10  C   UNL     1       0.192  11.836  19.290  0.00  0.00    +0.000 C 
ATOM     11  C   UNL     1      -1.222  11.918  19.852  0.00  0.00    +0.000 C 
ATOM     12  N   UNL     1      -1.251  11.891  21.328  0.00  0.00    +0.000 N 
ATOM     13  C   UNL     1      -0.302  11.134  22.042  0.00  0.00    +0.000 C 
ATOM     14  O   UNL     1      -0.371  10.868  23.246  0.00  0.00    +0.000 OA
ATOM     15  C   UNL     1       0.967  10.699  21.282  0.00  0.00    +0.000 C 
BRANCH  12  16
ATOM     16  C   UNL     1      -2.381  12.492  21.985  0.00  0.00    +0.000 A 
ATOM     17  C   UNL     1      -2.222  13.263  23.144  0.00  0.00    +0.000 A 
ATOM     18  C   UNL     1      -3.315  13.869  23.764  0.00  0.00    +0.000 A 
ATOM     19  C   UNL     1      -4.592  13.709  23.233  0.00  0.00    +0.000 A 
ATOM     20  C   UNL     1      -4.783  12.951  22.080  0.00  0.00    +0.000 A 
ATOM     21  C   UNL     1      -3.679  12.357  21.460  0.00  0.00    +0.000 A 
BRANCH  20  22
ATOM     22  O   UNL     1      -6.081  12.854  21.658  0.00  0.00    +0.000 OA
ATOM     23  C   UNL     1      -6.327  12.033  20.522  0.00  0.00    +0.000 C 
ENDBRANCH  20  22
ENDBRANCH  12  16
ENDBRANCH   5   7
BRANCH   1  27
ATOM     24  C   UNL     1       4.539   4.402  16.640  0.00  0.00    +0.000 A 
ATOM     25  C   UNL     1       4.153   3.441  17.591  0.00  0.00    +0.000 A 
ATOM     26  N   UNL     1       3.553   3.984  18.654  0.00  0.00    +0.000 NA
ATOM     27  N   UNL     1       3.506   5.307  18.374  0.00  0.00    +0.000 N 
ATOM     28  C   UNL     1       4.143   5.601  17.187  0.00  0.00    +0.000 A 
BRANCH  24  31
ATOM     29  C   UNL     1       6.533   4.462  15.254  0.00  0.00    +0.000 C 
ATOM     30  O   UNL     1       7.338   4.704  16.149  0.00  0.00    +0.000 OA
ATOM     31  N   UNL     1       5.172   4.269  15.417  0.00  0.00    +0.000 N 
ATOM     32  H   UNL     1       4.611   4.060  14.607  0.00  0.00    +0.000 HD
BRANCH  29  33
ATOM     33  C   UNL     1       6.980   4.378  13.800  0.00  0.00    +0.000 C 
BRANCH  33  35
ATOM     34  C   UNL     1       6.242   2.940  12.079  0.00  0.00    +0.000 C 
ATOM     35  O   UNL     1       5.924   4.061  12.901  0.00  0.00    +0.000 OA
ENDBRANCH  33  35
ENDBRANCH  29  33
ENDBRANCH  24  31
ENDBRANCH   1  27
TORSDOF 7
ENDMDL
MODEL 6
REMARK VINA RESULT:      -7.5      2.455     11.746
REMARK  Name = 
REMARK  9 active torsions:
REMARK  status: ('A' for Active; 'I' for Inactive)
REMARK    1  A    between atoms: C_1  and  O_2
REMARK    2  A    between atoms: O_2  and  C_3
REMARK    3  A    between atoms: C_3  and  C_4
REMARK    4  A    between atoms: N_6  and  C_7
REMARK    5  A    between atoms: N_10  and  C_11
REMARK    6  A    between atoms: C_15  and  C_16
REMARK    7  A    between atoms: N_21  and  C_22
REMARK    8  A    between atoms: C_26  and  O_27
REMARK    9  A    between atoms: O_27  and  C_28
REMARK                            x       y       z     vdW  Elec       q    Type
REMARK                         _______ _______ _______ _____ _____    ______ ____
ROOT
ATOM      1  C   UNL     1       6.443   5.274  16.280  0.00  0.00    +0.000 A 
ATOM      2  C   UNL     1       7.529   5.792  16.999  0.00  0.00    +0.000 A 
ATOM      3  C   UNL     1       7.417   6.015  18.374  0.00  0.00    +0.000 A 
ATOM      4  C   UNL     1       6.246   5.657  19.047  0.00  0.00    +0.000 A 
ATOM      5  C   UNL     1       5.167   5.126  18.333  0.00  0.00    +0.000 A 
ATOM      6  C   UNL     1       5.236   5.039  16.939  0.00  0.00    +0.000 A 
ENDROOT
BRANCH   5   7
ATOM      7  C   UNL     1       3.941   4.709  19.063  0.00  0.00    +0.000 C 
ATOM      8  O   UNL     1       3.967   3.621  19.639  0.00  0.00    +0.000 OA
ATOM      9  N   UNL     1       2.822   5.538  19.099  0.00  0.00    +0.000 N 
ATOM     10  C   UNL     1       1.755   5.238  20.036  0.00  0.00    +0.000 C 
ATOM     11  C   UNL     1       1.649   6.406  21.008  0.00  0.00    +0.000 C 
ATOM     12  N   UNL     1       1.445   7.699  20.325  0.00  0.00    +0.000 N 
ATOM     13  C   UNL     1       2.038   7.940  19.070  0.00  0.00    +0.000 C 
ATOM     14  O   UNL     1       2.113   9.044  18.523  0.00  0.00    +0.000 OA
ATOM     15  C   UNL     1       2.531   6.711  18.278  0.00  0.00    +0.000 C 
BRANCH  12  16
ATOM     16  C   UNL     1       0.798   8.751  21.064  0.00  0.00    +0.000 A 
ATOM     17  C   UNL     1      -0.119   8.464  22.083  0.00  0.00    +0.000 A 
ATOM     18  C   UNL     1      -0.723   9.484  22.818  0.00  0.00    +0.000 A 
ATOM     19  C   UNL     1      -0.420  10.814  22.541  0.00  0.00    +0.000 A 
ATOM     20  C   UNL     1       0.490  11.132  21.536  0.00  0.00    +0.000 A 
ATOM     21  C   UNL     1       1.099  10.102  20.812  0.00  0.00    +0.000 A 
BRANCH  20  22
ATOM     22  O   UNL     1       0.699  12.471  21.345  0.00  0.00    +0.000 OA
ATOM     23  C   UNL     1       0.732  12.929  19.998  0.00  0.00    +0.000 C 
ENDBRANCH  20  22
ENDBRANCH  12  16
ENDBRANCH   5   7
BRANCH   1  27
ATOM     24  C   UNL     1       6.831   3.732  13.050  0.00  0.00    +0.000 A 
ATOM     25  C   UNL     1       7.327   5.042  12.922  0.00  0.00    +0.000 A 
ATOM     26  N   UNL     1       7.164   5.764  14.034  0.00  0.00    +0.000 NA
ATOM     27  N   UNL     1       6.598   4.903  14.912  0.00  0.00    +0.000 N 
ATOM     28  C   UNL     1       6.332   3.682  14.331  0.00  0.00    +0.000 A 
BRANCH  24  31
ATOM     29  C   UNL     1       5.656   2.292  11.486  0.00  0.00    +0.000 C 
ATOM     30  O   UNL     1       4.567   2.854  11.544  0.00  0.00    +0.000 OA
ATOM     31  N   UNL     1       6.804   2.677  12.156  0.00  0.00    +0.000 N 
ATOM     32  H   UNL     1       7.648   2.145  12.017  0.00  0.00    +0.000 HD
BRANCH  29  33
ATOM     33  C   UNL     1       5.845   1.034  10.648  0.00  0.00    +0.000 C 
BRANCH  33  35
ATOM     34  C   UNL     1       5.673  -1.201  11.389  0.00  0.00    +0.000 C 
ATOM     35  O   UNL     1       6.480  -0.026  11.353  0.00  0.00    +0.000 OA
ENDBRANCH  33  35
ENDBRANCH  29  33
ENDBRANCH  24  31
ENDBRANCH   1  27
TORSDOF 7
ENDMDL
MODEL 7
REMARK VINA RESULT:      -7.5      5.406     10.150
REMARK  Name = 
REMARK  9 active torsions:
REMARK  status: ('A' for Active; 'I' for Inactive)
REMARK    1  A    between atoms: C_1  and  O_2
REMARK    2  A    between atoms: O_2  and  C_3
REMARK    3  A    between atoms: C_3  and  C_4
REMARK    4  A    between atoms: N_6  and  C_7
REMARK    5  A    between atoms: N_10  and  C_11
REMARK    6  A    between atoms: C_15  and  C_16
REMARK    7  A    between atoms: N_21  and  C_22
REMARK    8  A    between atoms: C_26  and  O_27
REMARK    9  A    between atoms: O_27  and  C_28
REMARK                            x       y       z     vdW  Elec       q    Type
REMARK                         _______ _______ _______ _____ _____    ______ ____
ROOT
ATOM      1  C   UNL     1       0.492  10.604  19.229  0.00  0.00    +0.000 A 
ATOM      2  C   UNL     1      -0.771  10.845  18.671  0.00  0.00    +0.000 A 
ATOM      3  C   UNL     1      -1.440  12.041  18.939  0.00  0.00    +0.000 A 
ATOM      4  C   UNL     1      -0.822  13.031  19.708  0.00  0.00    +0.000 A 
ATOM      5  C   UNL     1       0.445  12.798  20.254  0.00  0.00    +0.000 A 
ATOM      6  C   UNL     1       1.045  11.545  20.099  0.00  0.00    +0.000 A 
ENDROOT
BRANCH   5   7
ATOM      7  C   UNL     1       1.112  13.872  21.036  0.00  0.00    +0.000 C 
ATOM      8  O   UNL     1       0.923  13.887  22.252  0.00  0.00    +0.000 OA
ATOM      9  N   UNL     1       1.929  14.806  20.403  0.00  0.00    +0.000 N 
ATOM     10  C   UNL     1       2.777  15.661  21.213  0.00  0.00    +0.000 C 
ATOM     11  C   UNL     1       4.225  15.353  20.854  0.00  0.00    +0.000 C 
ATOM     12  N   UNL     1       4.499  15.500  19.411  0.00  0.00    +0.000 N 
ATOM     13  C   UNL     1       3.505  15.183  18.465  0.00  0.00    +0.000 C 
ATOM     14  O   UNL     1       3.698  15.061  17.252  0.00  0.00    +0.000 OA
ATOM     15  C   UNL     1       2.053  15.089  18.974  0.00  0.00    +0.000 C 
BRANCH  12  16
ATOM     16  C   UNL     1       5.853  15.782  19.014  0.00  0.00    +0.000 A 
ATOM     17  C   UNL     1       6.330  17.098  18.945  0.00  0.00    +0.000 A 
ATOM     18  C   UNL     1       7.651  17.368  18.587  0.00  0.00    +0.000 A 
ATOM     19  C   UNL     1       8.519  16.322  18.287  0.00  0.00    +0.000 A 
ATOM     20  C   UNL     1       8.075  15.003  18.350  0.00  0.00    +0.000 A 
ATOM     21  C   UNL     1       6.752  14.741  18.720  0.00  0.00    +0.000 A 
BRANCH  20  22
ATOM     22  O   UNL     1       9.011  14.060  18.022  0.00  0.00    +0.000 OA
ATOM     23  C   UNL     1      10.322  14.532  17.731  0.00  0.00    +0.000 C 
ENDBRANCH  20  22
ENDBRANCH  12  16
ENDBRANCH   5   7
BRANCH   1  27
ATOM     24  C   UNL     1       2.432   7.591  18.880  0.00  0.00    +0.000 A 
ATOM     25  C   UNL     1       2.640   8.331  17.702  0.00  0.00    +0.000 A 
ATOM     26  N   UNL     1       1.904   9.445  17.659  0.00  0.00    +0.000 NA
ATOM     27  N   UNL     1       1.244   9.457  18.840  0.00  0.00    +0.000 N 
ATOM     28  C   UNL     1       1.498   8.321  19.579  0.00  0.00    +0.000 A 
BRANCH  24  31
ATOM     29  C   UNL     1       2.641   5.173  18.784  0.00  0.00    +0.000 C 
ATOM     30  O   UNL     1       1.874   4.988  17.843  0.00  0.00    +0.000 OA
ATOM     31  N   UNL     1       2.986   6.402  19.318  0.00  0.00    +0.000 N 
ATOM     32  H   UNL     1       3.640   6.432  20.084  0.00  0.00    +0.000 HD
BRANCH  29  33
ATOM     33  C   UNL     1       3.292   4.001  19.507  0.00  0.00    +0.000 C 
BRANCH  33  35
ATOM     34  C   UNL     1       3.394   1.848  18.546  0.00  0.00    +0.000 C 
ATOM     35  O   UNL     1       4.010   3.130  18.642  0.00  0.00    +0.000 OA
ENDBRANCH  33  35
ENDBRANCH  29  33
ENDBRANCH  24  31
ENDBRANCH   1  27
TORSDOF 7
ENDMDL
MODEL 8
REMARK VINA RESULT:      -7.5      5.638     10.289
REMARK  Name = 
REMARK  9 active torsions:
REMARK  status: ('A' for Active; 'I' for Inactive)
REMARK    1  A    between atoms: C_1  and  O_2
REMARK    2  A    between atoms: O_2  and  C_3
REMARK    3  A    between atoms: C_3  and  C_4
REMARK    4  A    between atoms: N_6  and  C_7
REMARK    5  A    between atoms: N_10  and  C_11
REMARK    6  A    between atoms: C_15  and  C_16
REMARK    7  A    between atoms: N_21  and  C_22
REMARK    8  A    between atoms: C_26  and  O_27
REMARK    9  A    between atoms: O_27  and  C_28
REMARK                            x       y       z     vdW  Elec       q    Type
REMARK                         _______ _______ _______ _____ _____    ______ ____
ROOT
ATOM      1  C   UNL     1       0.314  10.666  19.519  0.00  0.00    +0.000 A 
ATOM      2  C   UNL     1      -0.981  10.876  19.026  0.00  0.00    +0.000 A 
ATOM      3  C   UNL     1      -1.646  12.076  19.290  0.00  0.00    +0.000 A 
ATOM      4  C   UNL     1      -0.995  13.097  19.986  0.00  0.00    +0.000 A 
ATOM      5  C   UNL     1       0.303  12.895  20.466  0.00  0.00    +0.000 A 
ATOM      6  C   UNL     1       0.907  11.642  20.321  0.00  0.00    +0.000 A 
ENDROOT
BRANCH   5   7
ATOM      7  C   UNL     1       1.003  14.002  21.170  0.00  0.00    +0.000 C 
ATOM      8  O   UNL     1       0.849  14.084  22.388  0.00  0.00    +0.000 OA
ATOM      9  N   UNL     1       1.810  14.891  20.464  0.00  0.00    +0.000 N 
ATOM     10  C   UNL     1       2.689  15.779  21.202  0.00  0.00    +0.000 C 
ATOM     11  C   UNL     1       4.123  15.436  20.820  0.00  0.00    +0.000 C 
ATOM     12  N   UNL     1       4.356  15.503  19.363  0.00  0.00    +0.000 N 
ATOM     13  C   UNL     1       3.332  15.146  18.464  0.00  0.00    +0.000 C 
ATOM     14  O   UNL     1       3.488  14.958  17.254  0.00  0.00    +0.000 OA
ATOM     15  C   UNL     1       1.894  15.096  19.019  0.00  0.00    +0.000 C 
BRANCH  12  16
ATOM     16  C   UNL     1       5.700  15.749  18.912  0.00  0.00    +0.000 A 
ATOM     17  C   UNL     1       6.479  14.723  18.361  0.00  0.00    +0.000 A 
ATOM     18  C   UNL     1       7.772  14.969  17.898  0.00  0.00    +0.000 A 
ATOM     19  C   UNL     1       8.310  16.251  17.982  0.00  0.00    +0.000 A 
ATOM     20  C   UNL     1       7.558  17.292  18.523  0.00  0.00    +0.000 A 
ATOM     21  C   UNL     1       6.259  17.038  18.975  0.00  0.00    +0.000 A 
BRANCH  20  22
ATOM     22  O   UNL     1       8.194  18.504  18.566  0.00  0.00    +0.000 OA
ATOM     23  C   UNL     1       9.611  18.480  18.688  0.00  0.00    +0.000 C 
ENDBRANCH  20  22
ENDBRANCH  12  16
ENDBRANCH   5   7
BRANCH   1  27
ATOM     24  C   UNL     1       2.304   7.687  19.160  0.00  0.00    +0.000 A 
ATOM     25  C   UNL     1       2.342   8.337  17.914  0.00  0.00    +0.000 A 
ATOM     26  N   UNL     1       1.567   9.424  17.878  0.00  0.00    +0.000 NA
ATOM     27  N   UNL     1       1.054   9.512  19.127  0.00  0.00    +0.000 N 
ATOM     28  C   UNL     1       1.436   8.445  19.912  0.00  0.00    +0.000 A 
BRANCH  24  31
ATOM     29  C   UNL     1       2.686   5.289  19.113  0.00  0.00    +0.000 C 
ATOM     30  O   UNL     1       1.922   5.027  18.189  0.00  0.00    +0.000 OA
ATOM     31  N   UNL     1       2.949   6.551  19.615  0.00  0.00    +0.000 N 
ATOM     32  H   UNL     1       3.610   6.646  20.370  0.00  0.00    +0.000 HD
BRANCH  29  33
ATOM     33  C   UNL     1       3.431   4.184  19.851  0.00  0.00    +0.000 C 
BRANCH  33  35
ATOM     34  C   UNL     1       2.065   3.437  21.625  0.00  0.00    +0.000 C 
ATOM     35  O   UNL     1       2.581   3.148  20.328  0.00  0.00    +0.000 OA
ENDBRANCH  33  35
ENDBRANCH  29  33
ENDBRANCH  24  31
ENDBRANCH   1  27
TORSDOF 7
ENDMDL
MODEL 9
REMARK VINA RESULT:      -7.5      4.065      9.241
REMARK  Name = 
REMARK  9 active torsions:
REMARK  status: ('A' for Active; 'I' for Inactive)
REMARK    1  A    between atoms: C_1  and  O_2
REMARK    2  A    between atoms: O_2  and  C_3
REMARK    3  A    between atoms: C_3  and  C_4
REMARK    4  A    between atoms: N_6  and  C_7
REMARK    5  A    between atoms: N_10  and  C_11
REMARK    6  A    between atoms: C_15  and  C_16
REMARK    7  A    between atoms: N_21  and  C_22
REMARK    8  A    between atoms: C_26  and  O_27
REMARK    9  A    between atoms: O_27  and  C_28
REMARK                            x       y       z     vdW  Elec       q    Type
REMARK                         _______ _______ _______ _____ _____    ______ ____
ROOT
ATOM      1  C   UNL     1       7.046   6.217  17.585  0.00  0.00    +0.000 A 
ATOM      2  C   UNL     1       7.368   5.453  16.455  0.00  0.00    +0.000 A 
ATOM      3  C   UNL     1       6.631   4.307  16.149  0.00  0.00    +0.000 A 
ATOM      4  C   UNL     1       5.527   3.957  16.930  0.00  0.00    +0.000 A 
ATOM      5  C   UNL     1       5.194   4.727  18.050  0.00  0.00    +0.000 A 
ATOM      6  C   UNL     1       6.021   5.788  18.429  0.00  0.00    +0.000 A 
ENDROOT
BRANCH   5   7
ATOM      7  C   UNL     1       3.993   4.371  18.850  0.00  0.00    +0.000 C 
ATOM      8  O   UNL     1       4.028   3.318  19.486  0.00  0.00    +0.000 OA
ATOM      9  N   UNL     1       2.886   5.216  18.880  0.00  0.00    +0.000 N 
ATOM     10  C   UNL     1       1.853   4.986  19.873  0.00  0.00    +0.000 C 
ATOM     11  C   UNL     1       1.798   6.211  20.778  0.00  0.00    +0.000 C 
ATOM     12  N   UNL     1       1.584   7.464  20.029  0.00  0.00    +0.000 N 
ATOM     13  C   UNL     1       2.130   7.623  18.740  0.00  0.00    +0.000 C 
ATOM     14  O   UNL     1       2.197   8.693  18.128  0.00  0.00    +0.000 OA
ATOM     15  C   UNL     1       2.577   6.344  18.003  0.00  0.00    +0.000 C 
BRANCH  12  16
ATOM     16  C   UNL     1       0.979   8.566  20.729  0.00  0.00    +0.000 A 
ATOM     17  C   UNL     1       1.104   8.699  22.118  0.00  0.00    +0.000 A 
ATOM     18  C   UNL     1       0.542   9.783  22.792  0.00  0.00    +0.000 A 
ATOM     19  C   UNL     1      -0.161  10.755  22.084  0.00  0.00    +0.000 A 
ATOM     20  C   UNL     1      -0.299  10.652  20.702  0.00  0.00    +0.000 A 
ATOM     21  C   UNL     1       0.277   9.567  20.034  0.00  0.00    +0.000 A 
BRANCH  20  22
ATOM     22  O   UNL     1      -1.020  11.657  20.115  0.00  0.00    +0.000 OA
ATOM     23  C   UNL     1      -1.115  11.634  18.696  0.00  0.00    +0.000 C 
ENDBRANCH  20  22
ENDBRANCH  12  16
ENDBRANCH   5   7
BRANCH   1  27
ATOM     24  C   UNL     1       8.730   9.165  18.783  0.00  0.00    +0.000 A 
ATOM     25  C   UNL     1       8.040   9.552  17.620  0.00  0.00    +0.000 A 
ATOM     26  N   UNL     1       7.434   8.525  17.017  0.00  0.00    +0.000 NA
ATOM     27  N   UNL     1       7.693   7.465  17.818  0.00  0.00    +0.000 N 
ATOM     28  C   UNL     1       8.520   7.808  18.866  0.00  0.00    +0.000 A 
BRANCH  24  31
ATOM     29  C   UNL     1       9.670  11.265  19.562  0.00  0.00    +0.000 C 
ATOM     30  O   UNL     1       9.182  11.985  18.697  0.00  0.00    +0.000 OA
ATOM     31  N   UNL     1       9.471   9.901  19.689  0.00  0.00    +0.000 N 
ATOM     32  H   UNL     1       9.915   9.415  20.452  0.00  0.00    +0.000 HD
BRANCH  29  33
ATOM     33  C   UNL     1      10.617  11.832  20.613  0.00  0.00    +0.000 C 
BRANCH  33  35
ATOM     34  C   UNL     1      10.362  14.128  21.098  0.00  0.00    +0.000 C 
ATOM     35  O   UNL     1      10.008  12.796  21.463  0.00  0.00    +0.000 OA
ENDBRANCH  33  35
ENDBRANCH  29  33
ENDBRANCH  24  31
ENDBRANCH   1  27
TORSDOF 7
ENDMDL
