MODEL 1
REMARK VINA RESULT:      -7.8      0.000      0.000
REMARK  Name = 
REMARK  5 active torsions:
REMARK  status: ('A' for Active; 'I' for Inactive)
REMARK    1  A    between atoms: C_1  and  C_2
REMARK    2  A    between atoms: C_4  and  C_5
REMARK    3  A    between atoms: C_7  and  C_8
REMARK    4  A    between atoms: C_21  and  C_22
REMARK    5  A    between atoms: C_25  and  C_26
REMARK                            x       y       z     vdW  Elec       q    Type
REMARK                         _______ _______ _______ _____ _____    ______ ____
ROOT
ATOM      1  C   UNL     1       4.153   5.445  18.753  0.00  0.00    +0.000 A 
ATOM      2  N   UNL     1       3.625   6.709  18.812  0.00  0.00    +0.000 NA
ATOM      3  C   UNL     1       2.538   6.639  19.564  0.00  0.00    +0.000 A 
ATOM      4  N   UNL     1       2.325   5.320  19.942  0.00  0.00    +0.000 N 
ATOM      5  C   UNL     1       3.418   4.575  19.536  0.00  0.00    +0.000 A 
ATOM      6  C   UNL     1       3.648   3.128  19.862  0.00  0.00    +0.000 C 
ATOM      7  C   UNL     1       2.926   2.640  21.107  0.00  0.00    +0.000 C 
ATOM      8  O   UNL     1       1.551   2.342  20.879  0.00  0.00    +0.000 OA
ATOM      9  C   UNL     1       0.742   3.353  20.273  0.00  0.00    +0.000 C 
ATOM     10  C   UNL     1       0.543   3.074  18.782  0.00  0.00    +0.000 C 
ATOM     11  C   UNL     1       1.135   4.799  20.597  0.00  0.00    +0.000 C 
ENDROOT
BRANCH   3  12
ATOM     12  C   UNL     1       1.691   7.803  19.873  0.00  0.00    +0.000 A 
ATOM     13  C   UNL     1       1.143   8.036  21.145  0.00  0.00    +0.000 A 
ATOM     14  C   UNL     1       0.333   9.151  21.393  0.00  0.00    +0.000 A 
ATOM     15  C   UNL     1       0.092  10.073  20.378  0.00  0.00    +0.000 A 
ATOM     16 CL   UNL     1      -0.893  11.446  20.699  0.00  0.00    +0.000 Cl
ATOM     17  C   UNL     1       0.661   9.877  19.123  0.00  0.00    +0.000 A 
ATOM     18  F   UNL     1       0.458  10.761  18.136  0.00  0.00    +0.000 F 
ATOM     19  C   UNL     1       1.450   8.754  18.869  0.00  0.00    +0.000 A 
ENDBRANCH   3  12
BRANCH   1  23
ATOM     20  C   UNL     1       9.009   4.352  18.430  0.00  0.00    +0.000 C 
ATOM     21  C   UNL     1       7.664   4.584  17.808  0.00  0.00    +0.000 A 
ATOM     22  C   UNL     1       6.558   4.901  18.592  0.00  0.00    +0.000 A 
ATOM     23  C   UNL     1       5.333   5.119  17.966  0.00  0.00    +0.000 A 
ATOM     24  C   UNL     1       5.274   5.048  16.574  0.00  0.00    +0.000 A 
ATOM     25  C   UNL     1       6.409   4.693  15.858  0.00  0.00    +0.000 A 
ATOM     26  N   UNL     1       7.601   4.469  16.458  0.00  0.00    +0.000 NA
BRANCH  25  27
ATOM     27  C   UNL     1       6.334   4.595  14.357  0.00  0.00    +0.000 C 
ATOM     28  F   UNL     1       5.088   4.262  13.902  0.00  0.00    +0.000 F 
ENDBRANCH  25  27
ENDBRANCH   1  23
TORSDOF 3
ENDMDL
MODEL 2
REMARK VINA RESULT:      -7.8      0.910      1.286
REMARK  Name = 
REMARK  5 active torsions:
REMARK  status: ('A' for Active; 'I' for Inactive)
REMARK    1  A    between atoms: C_1  and  C_2
REMARK    2  A    between atoms: C_4  and  C_5
REMARK    3  A    between atoms: C_7  and  C_8
REMARK    4  A    between atoms: C_21  and  C_22
REMARK    5  A    between atoms: C_25  and  C_26
REMARK                            x       y       z     vdW  Elec       q    Type
REMARK                         _______ _______ _______ _____ _____    ______ ____
ROOT
ATOM      1  C   UNL     1       4.154   5.442  18.722  0.00  0.00    +0.000 A 
ATOM      2  N   UNL     1       3.628   6.707  18.756  0.00  0.00    +0.000 NA
ATOM      3  C   UNL     1       2.539   6.655  19.506  0.00  0.00    +0.000 A 
ATOM      4  N   UNL     1       2.322   5.343  19.909  0.00  0.00    +0.000 N 
ATOM      5  C   UNL     1       3.415   4.589  19.520  0.00  0.00    +0.000 A 
ATOM      6  C   UNL     1       3.640   3.147  19.875  0.00  0.00    +0.000 C 
ATOM      7  C   UNL     1       2.913   2.685  21.126  0.00  0.00    +0.000 C 
ATOM      8  O   UNL     1       1.539   2.386  20.900  0.00  0.00    +0.000 OA
ATOM      9  C   UNL     1       0.734   3.386  20.272  0.00  0.00    +0.000 C 
ATOM     10  C   UNL     1       0.539   3.080  18.786  0.00  0.00    +0.000 C 
ATOM     11  C   UNL     1       1.129   4.838  20.570  0.00  0.00    +0.000 C 
ENDROOT
BRANCH   3  12
ATOM     12  C   UNL     1       1.693   7.826  19.790  0.00  0.00    +0.000 A 
ATOM     13  C   UNL     1       1.399   8.809  18.831  0.00  0.00    +0.000 A 
ATOM     14  C   UNL     1       0.599   9.913  19.145  0.00  0.00    +0.000 A 
ATOM     15  C   UNL     1       0.046  10.029  20.419  0.00  0.00    +0.000 A 
ATOM     16 CL   UNL     1      -0.947  11.384  20.790  0.00  0.00    +0.000 Cl
ATOM     17  C   UNL     1       0.297   9.043  21.368  0.00  0.00    +0.000 A 
ATOM     18  F   UNL     1      -0.240   9.124  22.594  0.00  0.00    +0.000 F 
ATOM     19  C   UNL     1       1.113   7.953  21.062  0.00  0.00    +0.000 A 
ENDBRANCH   3  12
BRANCH   1  23
ATOM     20  C   UNL     1       9.015   4.364  18.431  0.00  0.00    +0.000 C 
ATOM     21  C   UNL     1       7.669   4.570  17.804  0.00  0.00    +0.000 A 
ATOM     22  C   UNL     1       6.561   4.905  18.577  0.00  0.00    +0.000 A 
ATOM     23  C   UNL     1       5.335   5.098  17.945  0.00  0.00    +0.000 A 
ATOM     24  C   UNL     1       5.276   4.985  16.557  0.00  0.00    +0.000 A 
ATOM     25  C   UNL     1       6.413   4.615  15.851  0.00  0.00    +0.000 A 
ATOM     26  N   UNL     1       7.607   4.414  16.457  0.00  0.00    +0.000 NA
BRANCH  25  27
ATOM     27  C   UNL     1       6.339   4.471  14.354  0.00  0.00    +0.000 C 
ATOM     28  F   UNL     1       5.062   4.309  13.892  0.00  0.00    +0.000 F 
ENDBRANCH  25  27
ENDBRANCH   1  23
TORSDOF 3
ENDMDL
MODEL 3
REMARK VINA RESULT:      -7.6      1.708      2.131
REMARK  Name = 
REMARK  5 active torsions:
REMARK  status: ('A' for Active; 'I' for Inactive)
REMARK    1  A    between atoms: C_1  and  C_2
REMARK    2  A    between atoms: C_4  and  C_5
REMARK    3  A    between atoms: C_7  and  C_8
REMARK    4  A    between atoms: C_21  and  C_22
REMARK    5  A    between atoms: C_25  and  C_26
REMARK                            x       y       z     vdW  Elec       q    Type
REMARK                         _______ _______ _______ _____ _____    ______ ____
ROOT
ATOM      1  C   UNL     1       3.902   6.051  18.705  0.00  0.00    +0.000 A 
ATOM      2  N   UNL     1       3.262   7.227  19.000  0.00  0.00    +0.000 NA
ATOM      3  C   UNL     1       2.267   6.931  19.821  0.00  0.00    +0.000 A 
ATOM      4  N   UNL     1       2.221   5.555  20.010  0.00  0.00    +0.000 N 
ATOM      5  C   UNL     1       3.336   5.002  19.405  0.00  0.00    +0.000 A 
ATOM      6  C   UNL     1       3.736   3.557  19.487  0.00  0.00    +0.000 C 
ATOM      7  C   UNL     1       3.191   2.820  20.698  0.00  0.00    +0.000 C 
ATOM      8  O   UNL     1       1.836   2.407  20.544  0.00  0.00    +0.000 OA
ATOM      9  C   UNL     1       0.877   3.399  20.168  0.00  0.00    +0.000 C 
ATOM     10  C   UNL     1       0.559   3.315  18.674  0.00  0.00    +0.000 C 
ATOM     11  C   UNL     1       1.158   4.818  20.674  0.00  0.00    +0.000 C 
ENDROOT
BRANCH   3  12
ATOM     12  C   UNL     1       1.345   7.938  20.373  0.00  0.00    +0.000 A 
ATOM     13  C   UNL     1       0.782   7.839  21.656  0.00  0.00    +0.000 A 
ATOM     14  C   UNL     1      -0.099   8.814  22.139  0.00  0.00    +0.000 A 
ATOM     15  C   UNL     1      -0.398   9.927  21.356  0.00  0.00    +0.000 A 
ATOM     16 CL   UNL     1      -1.471  11.126  21.966  0.00  0.00    +0.000 Cl
ATOM     17  C   UNL     1       0.184  10.058  20.099  0.00  0.00    +0.000 A 
ATOM     18  F   UNL     1      -0.075  11.130  19.336  0.00  0.00    +0.000 F 
ATOM     19  C   UNL     1       1.045   9.075  19.608  0.00  0.00    +0.000 A 
ENDBRANCH   3  12
BRANCH   1  23
ATOM     20  C   UNL     1       6.185   3.965  14.792  0.00  0.00    +0.000 C 
ATOM     21  C   UNL     1       6.118   4.979  15.894  0.00  0.00    +0.000 A 
ATOM     22  C   UNL     1       5.033   5.021  16.765  0.00  0.00    +0.000 A 
ATOM     23  C   UNL     1       5.023   5.973  17.781  0.00  0.00    +0.000 A 
ATOM     24  C   UNL     1       6.122   6.822  17.908  0.00  0.00    +0.000 A 
ATOM     25  C   UNL     1       7.156   6.748  16.985  0.00  0.00    +0.000 A 
ATOM     26  N   UNL     1       7.169   5.833  15.987  0.00  0.00    +0.000 NA
BRANCH  25  27
ATOM     27  C   UNL     1       8.330   7.683  17.112  0.00  0.00    +0.000 C 
ATOM     28  F   UNL     1       8.545   8.102  18.396  0.00  0.00    +0.000 F 
ENDBRANCH  25  27
ENDBRANCH   1  23
TORSDOF 3
ENDMDL
MODEL 4
REMARK VINA RESULT:      -7.5      1.325      2.061
REMARK  Name = 
REMARK  5 active torsions:
REMARK  status: ('A' for Active; 'I' for Inactive)
REMARK    1  A    between atoms: C_1  and  C_2
REMARK    2  A    between atoms: C_4  and  C_5
REMARK    3  A    between atoms: C_7  and  C_8
REMARK    4  A    between atoms: C_21  and  C_22
REMARK    5  A    between atoms: C_25  and  C_26
REMARK                            x       y       z     vdW  Elec       q    Type
REMARK                         _______ _______ _______ _____ _____    ______ ____
ROOT
ATOM      1  C   UNL     1       4.053   5.442  18.760  0.00  0.00    +0.000 A 
ATOM      2  N   UNL     1       3.525   6.705  18.821  0.00  0.00    +0.000 NA
ATOM      3  C   UNL     1       2.449   6.638  19.590  0.00  0.00    +0.000 A 
ATOM      4  N   UNL     1       2.242   5.319  19.977  0.00  0.00    +0.000 N 
ATOM      5  C   UNL     1       3.330   4.574  19.557  0.00  0.00    +0.000 A 
ATOM      6  C   UNL     1       3.566   3.128  19.886  0.00  0.00    +0.000 C 
ATOM      7  C   UNL     1       2.862   2.645  21.142  0.00  0.00    +0.000 C 
ATOM      8  O   UNL     1       1.485   2.345  20.937  0.00  0.00    +0.000 OA
ATOM      9  C   UNL     1       0.666   3.353  20.338  0.00  0.00    +0.000 C 
ATOM     10  C   UNL     1       0.446   3.068  18.851  0.00  0.00    +0.000 C 
ATOM     11  C   UNL     1       1.062   4.800  20.650  0.00  0.00    +0.000 C 
ENDROOT
BRANCH   3  12
ATOM     12  C   UNL     1       1.605   7.802  19.907  0.00  0.00    +0.000 A 
ATOM     13  C   UNL     1       1.073   8.037  21.184  0.00  0.00    +0.000 A 
ATOM     14  C   UNL     1       0.266   9.152  21.440  0.00  0.00    +0.000 A 
ATOM     15  C   UNL     1       0.013  10.073  20.426  0.00  0.00    +0.000 A 
ATOM     16 CL   UNL     1      -0.969  11.447  20.756  0.00  0.00    +0.000 Cl
ATOM     17  C   UNL     1       0.567   9.874  19.165  0.00  0.00    +0.000 A 
ATOM     18  F   UNL     1       0.353  10.757  18.179  0.00  0.00    +0.000 F 
ATOM     19  C   UNL     1       1.354   8.751  18.904  0.00  0.00    +0.000 A 
ENDBRANCH   3  12
BRANCH   1  23
ATOM     20  C   UNL     1       6.171   4.449  14.354  0.00  0.00    +0.000 C 
ATOM     21  C   UNL     1       6.243   4.646  15.839  0.00  0.00    +0.000 A 
ATOM     22  C   UNL     1       5.104   4.953  16.578  0.00  0.00    +0.000 A 
ATOM     23  C   UNL     1       5.221   5.113  17.957  0.00  0.00    +0.000 A 
ATOM     24  C   UNL     1       6.471   4.922  18.545  0.00  0.00    +0.000 A 
ATOM     25  C   UNL     1       7.571   4.651  17.744  0.00  0.00    +0.000 A 
ATOM     26  N   UNL     1       7.470   4.503  16.403  0.00  0.00    +0.000 NA
BRANCH  25  27
ATOM     27  C   UNL     1       8.923   4.469  18.383  0.00  0.00    +0.000 C 
ATOM     28  F   UNL     1       8.979   4.941  19.665  0.00  0.00    +0.000 F 
ENDBRANCH  25  27
ENDBRANCH   1  23
TORSDOF 3
ENDMDL
MODEL 5
REMARK VINA RESULT:      -7.5      1.114      1.174
REMARK  Name = 
REMARK  5 active torsions:
REMARK  status: ('A' for Active; 'I' for Inactive)
REMARK    1  A    between atoms: C_1  and  C_2
REMARK    2  A    between atoms: C_4  and  C_5
REMARK    3  A    between atoms: C_7  and  C_8
REMARK    4  A    between atoms: C_21  and  C_22
REMARK    5  A    between atoms: C_25  and  C_26
REMARK                            x       y       z     vdW  Elec       q    Type
REMARK                         _______ _______ _______ _____ _____    ______ ____
ROOT
ATOM      1  C   UNL     1       3.921   6.066  18.673  0.00  0.00    +0.000 A 
ATOM      2  N   UNL     1       3.281   7.240  18.970  0.00  0.00    +0.000 NA
ATOM      3  C   UNL     1       2.288   6.943  19.794  0.00  0.00    +0.000 A 
ATOM      4  N   UNL     1       2.245   5.568  19.983  0.00  0.00    +0.000 N 
ATOM      5  C   UNL     1       3.358   5.016  19.375  0.00  0.00    +0.000 A 
ATOM      6  C   UNL     1       3.760   3.571  19.455  0.00  0.00    +0.000 C 
ATOM      7  C   UNL     1       3.220   2.833  20.667  0.00  0.00    +0.000 C 
ATOM      8  O   UNL     1       1.865   2.419  20.517  0.00  0.00    +0.000 OA
ATOM      9  C   UNL     1       0.903   3.410  20.144  0.00  0.00    +0.000 C 
ATOM     10  C   UNL     1       0.581   3.326  18.651  0.00  0.00    +0.000 C 
ATOM     11  C   UNL     1       1.184   4.829  20.651  0.00  0.00    +0.000 C 
ENDROOT
BRANCH   3  12
ATOM     12  C   UNL     1       1.367   7.949  20.349  0.00  0.00    +0.000 A 
ATOM     13  C   UNL     1       0.882   7.899  21.666  0.00  0.00    +0.000 A 
ATOM     14  C   UNL     1      -0.001   8.871  22.151  0.00  0.00    +0.000 A 
ATOM     15  C   UNL     1      -0.381   9.933  21.334  0.00  0.00    +0.000 A 
ATOM     16 CL   UNL     1      -1.456  11.129  21.946  0.00  0.00    +0.000 Cl
ATOM     17  C   UNL     1       0.123  10.018  20.040  0.00  0.00    +0.000 A 
ATOM     18  F   UNL     1      -0.213  11.041  19.242  0.00  0.00    +0.000 F 
ATOM     19  C   UNL     1       0.987   9.037  19.548  0.00  0.00    +0.000 A 
ENDBRANCH   3  12
BRANCH   1  23
ATOM     20  C   UNL     1       8.340   7.699  17.036  0.00  0.00    +0.000 C 
ATOM     21  C   UNL     1       7.169   6.765  16.964  0.00  0.00    +0.000 A 
ATOM     22  C   UNL     1       6.111   6.872  17.863  0.00  0.00    +0.000 A 
ATOM     23  C   UNL     1       5.040   5.989  17.746  0.00  0.00    +0.000 A 
ATOM     24  C   UNL     1       5.054   5.059  16.708  0.00  0.00    +0.000 A 
ATOM     25  C   UNL     1       6.157   4.986  15.867  0.00  0.00    +0.000 A 
ATOM     26  N   UNL     1       7.207   5.832  15.979  0.00  0.00    +0.000 NA
BRANCH  25  27
ATOM     27  C   UNL     1       6.177   3.964  14.762  0.00  0.00    +0.000 C 
ATOM     28  F   UNL     1       5.167   4.133  13.855  0.00  0.00    +0.000 F 
ENDBRANCH  25  27
ENDBRANCH   1  23
TORSDOF 3
ENDMDL
MODEL 6
REMARK VINA RESULT:      -7.5      1.625      2.441
REMARK  Name = 
REMARK  5 active torsions:
REMARK  status: ('A' for Active; 'I' for Inactive)
REMARK    1  A    between atoms: C_1  and  C_2
REMARK    2  A    between atoms: C_4  and  C_5
REMARK    3  A    between atoms: C_7  and  C_8
REMARK    4  A    between atoms: C_21  and  C_22
REMARK    5  A    between atoms: C_25  and  C_26
REMARK                            x       y       z     vdW  Elec       q    Type
REMARK                         _______ _______ _______ _____ _____    ______ ____
ROOT
ATOM      1  C   UNL     1       4.085   5.481  18.765  0.00  0.00    +0.000 A 
ATOM      2  N   UNL     1       3.559   6.745  18.805  0.00  0.00    +0.000 NA
ATOM      3  C   UNL     1       2.473   6.689  19.559  0.00  0.00    +0.000 A 
ATOM      4  N   UNL     1       2.258   5.376  19.958  0.00  0.00    +0.000 N 
ATOM      5  C   UNL     1       3.350   4.624  19.562  0.00  0.00    +0.000 A 
ATOM      6  C   UNL     1       3.578   3.181  19.910  0.00  0.00    +0.000 C 
ATOM      7  C   UNL     1       2.856   2.714  21.162  0.00  0.00    +0.000 C 
ATOM      8  O   UNL     1       1.481   2.414  20.941  0.00  0.00    +0.000 OA
ATOM      9  C   UNL     1       0.673   3.417  20.319  0.00  0.00    +0.000 C 
ATOM     10  C   UNL     1       0.472   3.115  18.834  0.00  0.00    +0.000 C 
ATOM     11  C   UNL     1       1.068   4.867  20.621  0.00  0.00    +0.000 C 
ENDROOT
BRANCH   3  12
ATOM     12  C   UNL     1       1.627   7.859  19.851  0.00  0.00    +0.000 A 
ATOM     13  C   UNL     1       1.306   8.830  18.889  0.00  0.00    +0.000 A 
ATOM     14  C   UNL     1       0.507   9.934  19.211  0.00  0.00    +0.000 A 
ATOM     15  C   UNL     1      -0.017  10.059  20.496  0.00  0.00    +0.000 A 
ATOM     16 CL   UNL     1      -1.009  11.413  20.875  0.00  0.00    +0.000 Cl
ATOM     17  C   UNL     1       0.260   9.084  21.448  0.00  0.00    +0.000 A 
ATOM     18  F   UNL     1      -0.249   9.174  22.685  0.00  0.00    +0.000 F 
ATOM     19  C   UNL     1       1.075   7.995  21.134  0.00  0.00    +0.000 A 
ENDBRANCH   3  12
BRANCH   1  23
ATOM     20  C   UNL     1       6.272   4.487  14.393  0.00  0.00    +0.000 C 
ATOM     21  C   UNL     1       6.319   4.673  15.880  0.00  0.00    +0.000 A 
ATOM     22  C   UNL     1       5.171   4.991  16.600  0.00  0.00    +0.000 A 
ATOM     23  C   UNL     1       5.264   5.141  17.982  0.00  0.00    +0.000 A 
ATOM     24  C   UNL     1       6.499   4.928  18.593  0.00  0.00    +0.000 A 
ATOM     25  C   UNL     1       7.611   4.646  17.810  0.00  0.00    +0.000 A 
ATOM     26  N   UNL     1       7.533   4.509  16.466  0.00  0.00    +0.000 NA
BRANCH  25  27
ATOM     27  C   UNL     1       8.947   4.440  18.473  0.00  0.00    +0.000 C 
ATOM     28  F   UNL     1       9.015   4.984  19.726  0.00  0.00    +0.000 F 
ENDBRANCH  25  27
ENDBRANCH   1  23
TORSDOF 3
ENDMDL
MODEL 7
REMARK VINA RESULT:      -7.4      2.021      2.551
REMARK  Name = 
REMARK  5 active torsions:
REMARK  status: ('A' for Active; 'I' for Inactive)
REMARK    1  A    between atoms: C_1  and  C_2
REMARK    2  A    between atoms: C_4  and  C_5
REMARK    3  A    between atoms: C_7  and  C_8
REMARK    4  A    between atoms: C_21  and  C_22
REMARK    5  A    between atoms: C_25  and  C_26
REMARK                            x       y       z     vdW  Elec       q    Type
REMARK                         _______ _______ _______ _____ _____    ______ ____
ROOT
ATOM      1  C   UNL     1       3.892   6.137  18.711  0.00  0.00    +0.000 A 
ATOM      2  N   UNL     1       3.262   7.324  18.983  0.00  0.00    +0.000 NA
ATOM      3  C   UNL     1       2.267   7.052  19.813  0.00  0.00    +0.000 A 
ATOM      4  N   UNL     1       2.211   5.681  20.030  0.00  0.00    +0.000 N 
ATOM      5  C   UNL     1       3.320   5.107  19.434  0.00  0.00    +0.000 A 
ATOM      6  C   UNL     1       3.709   3.661  19.543  0.00  0.00    +0.000 C 
ATOM      7  C   UNL     1       3.162   2.953  20.771  0.00  0.00    +0.000 C 
ATOM      8  O   UNL     1       1.804   2.548  20.628  0.00  0.00    +0.000 OA
ATOM      9  C   UNL     1       0.851   3.539  20.235  0.00  0.00    +0.000 C 
ATOM     10  C   UNL     1       0.528   3.428  18.744  0.00  0.00    +0.000 C 
ATOM     11  C   UNL     1       1.144   4.966  20.712  0.00  0.00    +0.000 C 
ENDROOT
BRANCH   3  12
ATOM     12  C   UNL     1       1.355   8.078  20.347  0.00  0.00    +0.000 A 
ATOM     13  C   UNL     1       0.628   8.957  19.528  0.00  0.00    +0.000 A 
ATOM     14  C   UNL     1      -0.221   9.925  20.078  0.00  0.00    +0.000 A 
ATOM     15  C   UNL     1      -0.385  10.000  21.459  0.00  0.00    +0.000 A 
ATOM     16 CL   UNL     1      -1.442  11.185  22.122  0.00  0.00    +0.000 Cl
ATOM     17  C   UNL     1       0.298   9.109  22.281  0.00  0.00    +0.000 A 
ATOM     18  F   UNL     1       0.141   9.150  23.612  0.00  0.00    +0.000 F 
ATOM     19  C   UNL     1       1.162   8.158  21.735  0.00  0.00    +0.000 A 
ENDBRANCH   3  12
BRANCH   1  23
ATOM     20  C   UNL     1       6.128   3.984  14.807  0.00  0.00    +0.000 C 
ATOM     21  C   UNL     1       6.083   5.005  15.903  0.00  0.00    +0.000 A 
ATOM     22  C   UNL     1       5.000   5.073  16.775  0.00  0.00    +0.000 A 
ATOM     23  C   UNL     1       5.011   6.032  17.786  0.00  0.00    +0.000 A 
ATOM     24  C   UNL     1       6.126   6.860  17.906  0.00  0.00    +0.000 A 
ATOM     25  C   UNL     1       7.156   6.760  16.981  0.00  0.00    +0.000 A 
ATOM     26  N   UNL     1       7.150   5.839  15.989  0.00  0.00    +0.000 NA
BRANCH  25  27
ATOM     27  C   UNL     1       8.348   7.673  17.102  0.00  0.00    +0.000 C 
ATOM     28  F   UNL     1       8.532   8.152  18.369  0.00  0.00    +0.000 F 
ENDBRANCH  25  27
ENDBRANCH   1  23
TORSDOF 3
ENDMDL
MODEL 8
REMARK VINA RESULT:      -7.4      1.563      1.840
REMARK  Name = 
REMARK  5 active torsions:
REMARK  status: ('A' for Active; 'I' for Inactive)
REMARK    1  A    between atoms: C_1  and  C_2
REMARK    2  A    between atoms: C_4  and  C_5
REMARK    3  A    between atoms: C_7  and  C_8
REMARK    4  A    between atoms: C_21  and  C_22
REMARK    5  A    between atoms: C_25  and  C_26
REMARK                            x       y       z     vdW  Elec       q    Type
REMARK                         _______ _______ _______ _____ _____    ______ ____
ROOT
ATOM      1  C   UNL     1       3.918   6.170  18.700  0.00  0.00    +0.000 A 
ATOM      2  N   UNL     1       3.284   7.352  18.983  0.00  0.00    +0.000 NA
ATOM      3  C   UNL     1       2.283   7.068  19.802  0.00  0.00    +0.000 A 
ATOM      4  N   UNL     1       2.229   5.694  20.001  0.00  0.00    +0.000 N 
ATOM      5  C   UNL     1       3.343   5.130  19.406  0.00  0.00    +0.000 A 
ATOM      6  C   UNL     1       3.734   3.684  19.500  0.00  0.00    +0.000 C 
ATOM      7  C   UNL     1       3.180   2.959  20.715  0.00  0.00    +0.000 C 
ATOM      8  O   UNL     1       1.824   2.552  20.557  0.00  0.00    +0.000 OA
ATOM      9  C   UNL     1       0.871   3.546  20.169  0.00  0.00    +0.000 C 
ATOM     10  C   UNL     1       0.560   3.453  18.675  0.00  0.00    +0.000 C 
ATOM     11  C   UNL     1       1.158   4.968  20.667  0.00  0.00    +0.000 C 
ENDROOT
BRANCH   3  12
ATOM     12  C   UNL     1       1.365   8.084  20.342  0.00  0.00    +0.000 A 
ATOM     13  C   UNL     1       0.617   8.950  19.528  0.00  0.00    +0.000 A 
ATOM     14  C   UNL     1      -0.238   9.911  20.083  0.00  0.00    +0.000 A 
ATOM     15  C   UNL     1      -0.386   9.990  21.466  0.00  0.00    +0.000 A 
ATOM     16 CL   UNL     1      -1.449  11.165  22.136  0.00  0.00    +0.000 Cl
ATOM     17  C   UNL     1       0.318   9.112  22.284  0.00  0.00    +0.000 A 
ATOM     18  F   UNL     1       0.176   9.158  23.616  0.00  0.00    +0.000 F 
ATOM     19  C   UNL     1       1.187   8.169  21.732  0.00  0.00    +0.000 A 
ENDBRANCH   3  12
BRANCH   1  23
ATOM     20  C   UNL     1       8.357   7.766  17.079  0.00  0.00    +0.000 C 
ATOM     21  C   UNL     1       7.182   6.837  17.008  0.00  0.00    +0.000 A 
ATOM     22  C   UNL     1       6.118   6.958  17.898  0.00  0.00    +0.000 A 
ATOM     23  C   UNL     1       5.044   6.079  17.783  0.00  0.00    +0.000 A 
ATOM     24  C   UNL     1       5.061   5.138  16.754  0.00  0.00    +0.000 A 
ATOM     25  C   UNL     1       6.170   5.051  15.923  0.00  0.00    +0.000 A 
ATOM     26  N   UNL     1       7.223   5.893  16.034  0.00  0.00    +0.000 NA
BRANCH  25  27
ATOM     27  C   UNL     1       6.193   4.017  14.828  0.00  0.00    +0.000 C 
ATOM     28  F   UNL     1       5.139   4.127  13.963  0.00  0.00    +0.000 F 
ENDBRANCH  25  27
ENDBRANCH   1  23
TORSDOF 3
ENDMDL
MODEL 9
REMARK VINA RESULT:      -7.4      3.268      7.317
REMARK  Name = 
REMARK  5 active torsions:
REMARK  status: ('A' for Active; 'I' for Inactive)
REMARK    1  A    between atoms: C_1  and  C_2
REMARK    2  A    between atoms: C_4  and  C_5
REMARK    3  A    between atoms: C_7  and  C_8
REMARK    4  A    between atoms: C_21  and  C_22
REMARK    5  A    between atoms: C_25  and  C_26
REMARK                            x       y       z     vdW  Elec       q    Type
REMARK                         _______ _______ _______ _____ _____    ______ ____
ROOT
ATOM      1  C   UNL     1       2.727   6.517  18.396  0.00  0.00    +0.000 A 
ATOM      2  N   UNL     1       3.697   6.677  17.441  0.00  0.00    +0.000 NA
ATOM      3  C   UNL     1       4.079   5.466  17.069  0.00  0.00    +0.000 A 
ATOM      4  N   UNL     1       3.402   4.518  17.827  0.00  0.00    +0.000 N 
ATOM      5  C   UNL     1       2.448   5.176  18.583  0.00  0.00    +0.000 A 
ATOM      6  C   UNL     1       1.415   4.508  19.443  0.00  0.00    +0.000 C 
ATOM      7  C   UNL     1       1.088   3.080  19.040  0.00  0.00    +0.000 C 
ATOM      8  O   UNL     1       2.045   2.131  19.501  0.00  0.00    +0.000 OA
ATOM      9  C   UNL     1       3.421   2.368  19.190  0.00  0.00    +0.000 C 
ATOM     10  C   UNL     1       4.159   2.963  20.391  0.00  0.00    +0.000 C 
ATOM     11  C   UNL     1       3.685   3.092  17.865  0.00  0.00    +0.000 C 
ENDROOT
BRANCH   3  12
ATOM     12  C   UNL     1       5.108   5.219  16.045  0.00  0.00    +0.000 A 
ATOM     13  C   UNL     1       6.455   5.579  16.211  0.00  0.00    +0.000 A 
ATOM     14  C   UNL     1       7.400   5.336  15.207  0.00  0.00    +0.000 A 
ATOM     15  C   UNL     1       7.016   4.689  14.035  0.00  0.00    +0.000 A 
ATOM     16 CL   UNL     1       8.189   4.383  12.814  0.00  0.00    +0.000 Cl
ATOM     17  C   UNL     1       5.693   4.290  13.873  0.00  0.00    +0.000 A 
ATOM     18  F   UNL     1       5.304   3.649  12.762  0.00  0.00    +0.000 F 
ATOM     19  C   UNL     1       4.745   4.552  14.864  0.00  0.00    +0.000 A 
ENDBRANCH   3  12
BRANCH   1  23
ATOM     20  C   UNL     1       0.684  11.067  18.342  0.00  0.00    +0.000 C 
ATOM     21  C   UNL     1       1.111   9.820  19.057  0.00  0.00    +0.000 A 
ATOM     22  C   UNL     1       1.712   8.769  18.370  0.00  0.00    +0.000 A 
ATOM     23  C   UNL     1       2.103   7.638  19.082  0.00  0.00    +0.000 A 
ATOM     24  C   UNL     1       1.909   7.621  20.463  0.00  0.00    +0.000 A 
ATOM     25  C   UNL     1       1.273   8.689  21.079  0.00  0.00    +0.000 A 
ATOM     26  N   UNL     1       0.880   9.789  20.394  0.00  0.00    +0.000 NA
BRANCH  25  27
ATOM     27  C   UNL     1       1.045   8.655  22.567  0.00  0.00    +0.000 C 
ATOM     28  F   UNL     1      -0.215   9.047  22.928  0.00  0.00    +0.000 F 
ENDBRANCH  25  27
ENDBRANCH   1  23
TORSDOF 3
ENDMDL
