MODEL 1
REMARK VINA RESULT:      -6.9      0.000      0.000
REMARK  Name = 
REMARK  5 active torsions:
REMARK  status: ('A' for Active; 'I' for Inactive)
REMARK    1  A    between atoms: C_1  and  O_2
REMARK    2  A    between atoms: O_2  and  C_3
REMARK    3  A    between atoms: C_6  and  N_7
REMARK    4  A    between atoms: N_10  and  O_11
REMARK    5  A    between atoms: C_15  and  C_16
REMARK                            x       y       z     vdW  Elec       q    Type
REMARK                         _______ _______ _______ _____ _____    ______ ____
ROOT
ATOM      1  N   UNL     1       4.087   5.563  18.254  0.00  0.00    +0.000 N 
ATOM      2  C   UNL     1       3.433   6.788  18.434  0.00  0.00    +0.000 A 
ATOM      3  O   UNL     1       3.630   7.797  17.747  0.00  0.00    +0.000 OA
ATOM      4  N   UNL     1       2.456   6.821  19.426  0.00  0.00    +0.000 N 
ATOM      5  C   UNL     1       1.968   5.776  20.199  0.00  0.00    +0.000 A 
ATOM      6  O   UNL     1       0.994   5.850  20.941  0.00  0.00    +0.000 OA
ATOM      7  C   UNL     1       2.737   4.550  20.042  0.00  0.00    +0.000 A 
ATOM      8  C   UNL     1       2.630   3.302  20.769  0.00  0.00    +0.000 A 
ATOM      9  C   UNL     1       1.661   2.974  21.859  0.00  0.00    +0.000 C 
ATOM     10  C   UNL     1       3.590   2.402  20.336  0.00  0.00    +0.000 A 
ATOM     11  S   UNL     1       4.588   3.034  19.110  0.00  0.00    +0.000 S 
ATOM     12  C   UNL     1       3.736   4.502  19.087  0.00  0.00    +0.000 A 
ENDROOT
BRANCH   1  16
ATOM     13  C   UNL     1       6.948   5.201  15.156  0.00  0.00    +0.000 A 
ATOM     14  C   UNL     1       7.289   5.796  16.371  0.00  0.00    +0.000 A 
ATOM     15  C   UNL     1       6.348   5.909  17.399  0.00  0.00    +0.000 A 
ATOM     16  C   UNL     1       5.053   5.409  17.224  0.00  0.00    +0.000 A 
ATOM     17  C   UNL     1       4.710   4.825  15.996  0.00  0.00    +0.000 A 
ATOM     18  C   UNL     1       5.652   4.725  14.966  0.00  0.00    +0.000 A 
BRANCH  13  20
ATOM     19  C   UNL     1       7.520   5.043  12.867  0.00  0.00    +0.000 C 
ATOM     20  O   UNL     1       7.943   5.183  14.218  0.00  0.00    +0.000 OA
ENDBRANCH  13  20
ENDBRANCH   1  16
BRANCH   4  21
ATOM     21  O   UNL     1       1.740   8.045  19.522  0.00  0.00    +0.000 OA
ATOM     22  H   UNL     1       0.823   7.732  19.669  0.00  0.00    +0.000 HD
ENDBRANCH   4  21
TORSDOF 3
ENDMDL
MODEL 2
REMARK VINA RESULT:      -6.7      2.295      3.075
REMARK  Name = 
REMARK  5 active torsions:
REMARK  status: ('A' for Active; 'I' for Inactive)
REMARK    1  A    between atoms: C_1  and  O_2
REMARK    2  A    between atoms: O_2  and  C_3
REMARK    3  A    between atoms: C_6  and  N_7
REMARK    4  A    between atoms: N_10  and  O_11
REMARK    5  A    between atoms: C_15  and  C_16
REMARK                            x       y       z     vdW  Elec       q    Type
REMARK                         _______ _______ _______ _____ _____    ______ ____
ROOT
ATOM      1  N   UNL     1       3.854   4.231  17.730  0.00  0.00    +0.000 N 
ATOM      2  C   UNL     1       3.377   2.946  18.013  0.00  0.00    +0.000 A 
ATOM      3  O   UNL     1       3.809   1.907  17.500  0.00  0.00    +0.000 OA
ATOM      4  N   UNL     1       2.384   2.860  18.987  0.00  0.00    +0.000 N 
ATOM      5  C   UNL     1       1.870   3.867  19.792  0.00  0.00    +0.000 A 
ATOM      6  O   UNL     1       1.111   3.687  20.739  0.00  0.00    +0.000 OA
ATOM      7  C   UNL     1       2.328   5.193  19.401  0.00  0.00    +0.000 A 
ATOM      8  C   UNL     1       1.913   6.488  19.898  0.00  0.00    +0.000 A 
ATOM      9  C   UNL     1       0.911   6.764  20.973  0.00  0.00    +0.000 C 
ATOM     10  C   UNL     1       2.566   7.503  19.217  0.00  0.00    +0.000 A 
ATOM     11  S   UNL     1       3.629   6.923  18.021  0.00  0.00    +0.000 S 
ATOM     12  C   UNL     1       3.287   5.307  18.413  0.00  0.00    +0.000 A 
ENDROOT
BRANCH   1  16
ATOM     13  C   UNL     1       6.999   4.883  14.974  0.00  0.00    +0.000 A 
ATOM     14  C   UNL     1       7.256   4.831  16.345  0.00  0.00    +0.000 A 
ATOM     15  C   UNL     1       6.219   4.607  17.256  0.00  0.00    +0.000 A 
ATOM     16  C   UNL     1       4.911   4.416  16.800  0.00  0.00    +0.000 A 
ATOM     17  C   UNL     1       4.654   4.485  15.423  0.00  0.00    +0.000 A 
ATOM     18  C   UNL     1       5.692   4.721  14.515  0.00  0.00    +0.000 A 
BRANCH  13  20
ATOM     19  C   UNL     1       7.838   5.224  12.789  0.00  0.00    +0.000 C 
ATOM     20  O   UNL     1       8.087   5.144  14.188  0.00  0.00    +0.000 OA
ENDBRANCH  13  20
ENDBRANCH   1  16
BRANCH   4  21
ATOM     21  O   UNL     1       1.987   1.538  19.324  0.00  0.00    +0.000 OA
ATOM     22  H   UNL     1       1.505   1.680  20.165  0.00  0.00    +0.000 HD
ENDBRANCH   4  21
TORSDOF 3
ENDMDL
MODEL 3
REMARK VINA RESULT:      -6.6      2.097      3.040
REMARK  Name = 
REMARK  5 active torsions:
REMARK  status: ('A' for Active; 'I' for Inactive)
REMARK    1  A    between atoms: C_1  and  O_2
REMARK    2  A    between atoms: O_2  and  C_3
REMARK    3  A    between atoms: C_6  and  N_7
REMARK    4  A    between atoms: N_10  and  O_11
REMARK    5  A    between atoms: C_15  and  C_16
REMARK                            x       y       z     vdW  Elec       q    Type
REMARK                         _______ _______ _______ _____ _____    ______ ____
ROOT
ATOM      1  N   UNL     1       4.247   4.782  18.188  0.00  0.00    +0.000 N 
ATOM      2  C   UNL     1       4.092   3.597  18.917  0.00  0.00    +0.000 A 
ATOM      3  O   UNL     1       4.698   2.544  18.686  0.00  0.00    +0.000 OA
ATOM      4  N   UNL     1       3.230   3.658  20.011  0.00  0.00    +0.000 N 
ATOM      5  C   UNL     1       2.577   4.763  20.540  0.00  0.00    +0.000 A 
ATOM      6  O   UNL     1       1.960   4.770  21.600  0.00  0.00    +0.000 OA
ATOM      7  C   UNL     1       2.694   5.945  19.699  0.00  0.00    +0.000 A 
ATOM      8  C   UNL     1       2.048   7.234  19.834  0.00  0.00    +0.000 A 
ATOM      9  C   UNL     1       1.105   7.660  20.914  0.00  0.00    +0.000 C 
ATOM     10  C   UNL     1       2.399   8.068  18.786  0.00  0.00    +0.000 A 
ATOM     11  S   UNL     1       3.457   7.330  17.676  0.00  0.00    +0.000 S 
ATOM     12  C   UNL     1       3.517   5.900  18.589  0.00  0.00    +0.000 A 
ENDROOT
BRANCH   1  16
ATOM     13  C   UNL     1       6.923   5.051  14.920  0.00  0.00    +0.000 A 
ATOM     14  C   UNL     1       7.309   5.479  16.191  0.00  0.00    +0.000 A 
ATOM     15  C   UNL     1       6.429   5.382  17.273  0.00  0.00    +0.000 A 
ATOM     16  C   UNL     1       5.153   4.839  17.096  0.00  0.00    +0.000 A 
ATOM     17  C   UNL     1       4.763   4.424  15.814  0.00  0.00    +0.000 A 
ATOM     18  C   UNL     1       5.642   4.533  14.731  0.00  0.00    +0.000 A 
BRANCH  13  20
ATOM     19  C   UNL     1       7.461   4.845  12.626  0.00  0.00    +0.000 C 
ATOM     20  O   UNL     1       7.857   5.230  13.938  0.00  0.00    +0.000 OA
ENDBRANCH  13  20
ENDBRANCH   1  16
BRANCH   4  21
ATOM     21  O   UNL     1       3.166   2.471  20.791  0.00  0.00    +0.000 OA
ATOM     22  H   UNL     1       3.145   2.830  21.702  0.00  0.00    +0.000 HD
ENDBRANCH   4  21
TORSDOF 3
ENDMDL
MODEL 4
REMARK VINA RESULT:      -6.6      0.549      1.184
REMARK  Name = 
REMARK  5 active torsions:
REMARK  status: ('A' for Active; 'I' for Inactive)
REMARK    1  A    between atoms: C_1  and  O_2
REMARK    2  A    between atoms: O_2  and  C_3
REMARK    3  A    between atoms: C_6  and  N_7
REMARK    4  A    between atoms: N_10  and  O_11
REMARK    5  A    between atoms: C_15  and  C_16
REMARK                            x       y       z     vdW  Elec       q    Type
REMARK                         _______ _______ _______ _____ _____    ______ ____
ROOT
ATOM      1  N   UNL     1       4.083   5.448  17.962  0.00  0.00    +0.000 N 
ATOM      2  C   UNL     1       3.468   6.688  18.174  0.00  0.00    +0.000 A 
ATOM      3  O   UNL     1       3.619   7.680  17.452  0.00  0.00    +0.000 OA
ATOM      4  N   UNL     1       2.585   6.759  19.250  0.00  0.00    +0.000 N 
ATOM      5  C   UNL     1       2.152   5.739  20.086  0.00  0.00    +0.000 A 
ATOM      6  O   UNL     1       1.251   5.845  20.911  0.00  0.00    +0.000 OA
ATOM      7  C   UNL     1       2.883   4.496  19.886  0.00  0.00    +0.000 A 
ATOM      8  C   UNL     1       2.822   3.265  20.646  0.00  0.00    +0.000 A 
ATOM      9  C   UNL     1       1.950   2.977  21.827  0.00  0.00    +0.000 C 
ATOM     10  C   UNL     1       3.724   2.339  20.148  0.00  0.00    +0.000 A 
ATOM     11  S   UNL     1       4.616   2.928  18.824  0.00  0.00    +0.000 S 
ATOM     12  C   UNL     1       3.790   4.410  18.847  0.00  0.00    +0.000 A 
ENDROOT
BRANCH   1  16
ATOM     13  C   UNL     1       6.676   4.780  14.685  0.00  0.00    +0.000 A 
ATOM     14  C   UNL     1       5.332   4.410  14.614  0.00  0.00    +0.000 A 
ATOM     15  C   UNL     1       4.472   4.639  15.692  0.00  0.00    +0.000 A 
ATOM     16  C   UNL     1       4.949   5.256  16.853  0.00  0.00    +0.000 A 
ATOM     17  C   UNL     1       6.303   5.612  16.927  0.00  0.00    +0.000 A 
ATOM     18  C   UNL     1       7.163   5.371  15.850  0.00  0.00    +0.000 A 
BRANCH  13  20
ATOM     19  C   UNL     1       6.742   3.774  12.546  0.00  0.00    +0.000 C 
ATOM     20  O   UNL     1       7.423   4.472  13.582  0.00  0.00    +0.000 OA
ENDBRANCH  13  20
ENDBRANCH   1  16
BRANCH   4  21
ATOM     21  O   UNL     1       1.902   7.998  19.384  0.00  0.00    +0.000 OA
ATOM     22  H   UNL     1       2.567   8.546  19.852  0.00  0.00    +0.000 HD
ENDBRANCH   4  21
TORSDOF 3
ENDMDL
MODEL 5
REMARK VINA RESULT:      -6.5      2.294      3.204
REMARK  Name = 
REMARK  5 active torsions:
REMARK  status: ('A' for Active; 'I' for Inactive)
REMARK    1  A    between atoms: C_1  and  O_2
REMARK    2  A    between atoms: O_2  and  C_3
REMARK    3  A    between atoms: C_6  and  N_7
REMARK    4  A    between atoms: N_10  and  O_11
REMARK    5  A    between atoms: C_15  and  C_16
REMARK                            x       y       z     vdW  Elec       q    Type
REMARK                         _______ _______ _______ _____ _____    ______ ____
ROOT
ATOM      1  N   UNL     1       3.836   4.363  17.800  0.00  0.00    +0.000 N 
ATOM      2  C   UNL     1       3.371   3.064  18.033  0.00  0.00    +0.000 A 
ATOM      3  O   UNL     1       3.835   2.045  17.508  0.00  0.00    +0.000 OA
ATOM      4  N   UNL     1       2.349   2.938  18.973  0.00  0.00    +0.000 N 
ATOM      5  C   UNL     1       1.795   3.915  19.788  0.00  0.00    +0.000 A 
ATOM      6  O   UNL     1       1.010   3.699  20.705  0.00  0.00    +0.000 OA
ATOM      7  C   UNL     1       2.244   5.258  19.447  0.00  0.00    +0.000 A 
ATOM      8  C   UNL     1       1.795   6.533  19.964  0.00  0.00    +0.000 A 
ATOM      9  C   UNL     1       0.755   6.765  21.014  0.00  0.00    +0.000 C 
ATOM     10  C   UNL     1       2.452   7.575  19.331  0.00  0.00    +0.000 A 
ATOM     11  S   UNL     1       3.560   7.043  18.154  0.00  0.00    +0.000 S 
ATOM     12  C   UNL     1       3.232   5.412  18.492  0.00  0.00    +0.000 A 
ENDROOT
BRANCH   1  16
ATOM     13  C   UNL     1       7.060   4.937  15.118  0.00  0.00    +0.000 A 
ATOM     14  C   UNL     1       5.744   4.913  14.652  0.00  0.00    +0.000 A 
ATOM     15  C   UNL     1       4.678   4.733  15.538  0.00  0.00    +0.000 A 
ATOM     16  C   UNL     1       4.919   4.589  16.908  0.00  0.00    +0.000 A 
ATOM     17  C   UNL     1       6.243   4.597  17.371  0.00  0.00    +0.000 A 
ATOM     18  C   UNL     1       7.308   4.767  16.479  0.00  0.00    +0.000 A 
BRANCH  13  20
ATOM     19  C   UNL     1       7.565   4.958  12.808  0.00  0.00    +0.000 C 
ATOM     20  O   UNL     1       8.016   5.084  14.152  0.00  0.00    +0.000 OA
ENDBRANCH  13  20
ENDBRANCH   1  16
BRANCH   4  21
ATOM     21  O   UNL     1       1.963   1.601  19.263  0.00  0.00    +0.000 OA
ATOM     22  H   UNL     1       1.695   1.668  20.203  0.00  0.00    +0.000 HD
ENDBRANCH   4  21
TORSDOF 3
ENDMDL
MODEL 6
REMARK VINA RESULT:      -6.5      2.153      3.258
REMARK  Name = 
REMARK  5 active torsions:
REMARK  status: ('A' for Active; 'I' for Inactive)
REMARK    1  A    between atoms: C_1  and  O_2
REMARK    2  A    between atoms: O_2  and  C_3
REMARK    3  A    between atoms: C_6  and  N_7
REMARK    4  A    between atoms: N_10  and  O_11
REMARK    5  A    between atoms: C_15  and  C_16
REMARK                            x       y       z     vdW  Elec       q    Type
REMARK                         _______ _______ _______ _____ _____    ______ ____
ROOT
ATOM      1  N   UNL     1       4.198   4.768  18.021  0.00  0.00    +0.000 N 
ATOM      2  C   UNL     1       4.075   3.590  18.768  0.00  0.00    +0.000 A 
ATOM      3  O   UNL     1       4.654   2.529  18.507  0.00  0.00    +0.000 OA
ATOM      4  N   UNL     1       3.283   3.668  19.912  0.00  0.00    +0.000 N 
ATOM      5  C   UNL     1       2.676   4.784  20.472  0.00  0.00    +0.000 A 
ATOM      6  O   UNL     1       2.127   4.805  21.568  0.00  0.00    +0.000 OA
ATOM      7  C   UNL     1       2.755   5.960  19.617  0.00  0.00    +0.000 A 
ATOM      8  C   UNL     1       2.133   7.256  19.783  0.00  0.00    +0.000 A 
ATOM      9  C   UNL     1       1.264   7.701  20.916  0.00  0.00    +0.000 C 
ATOM     10  C   UNL     1       2.428   8.080  18.709  0.00  0.00    +0.000 A 
ATOM     11  S   UNL     1       3.407   7.323  17.541  0.00  0.00    +0.000 S 
ATOM     12  C   UNL     1       3.507   5.898  18.458  0.00  0.00    +0.000 A 
ENDROOT
BRANCH   1  16
ATOM     13  C   UNL     1       6.714   4.788  14.618  0.00  0.00    +0.000 A 
ATOM     14  C   UNL     1       5.391   4.352  14.521  0.00  0.00    +0.000 A 
ATOM     15  C   UNL     1       4.557   4.354  15.642  0.00  0.00    +0.000 A 
ATOM     16  C   UNL     1       5.036   4.808  16.875  0.00  0.00    +0.000 A 
ATOM     17  C   UNL     1       6.370   5.230  16.972  0.00  0.00    +0.000 A 
ATOM     18  C   UNL     1       7.205   5.217  15.850  0.00  0.00    +0.000 A 
BRANCH  13  20
ATOM     19  C   UNL     1       6.838   3.969  12.403  0.00  0.00    +0.000 C 
ATOM     20  O   UNL     1       7.439   4.705  13.462  0.00  0.00    +0.000 OA
ENDBRANCH  13  20
ENDBRANCH   1  16
BRANCH   4  21
ATOM     21  O   UNL     1       3.254   2.488  20.702  0.00  0.00    +0.000 OA
ATOM     22  H   UNL     1       3.720   1.847  20.125  0.00  0.00    +0.000 HD
ENDBRANCH   4  21
TORSDOF 3
ENDMDL
MODEL 7
REMARK VINA RESULT:      -6.2      2.900      6.257
REMARK  Name = 
REMARK  5 active torsions:
REMARK  status: ('A' for Active; 'I' for Inactive)
REMARK    1  A    between atoms: C_1  and  O_2
REMARK    2  A    between atoms: O_2  and  C_3
REMARK    3  A    between atoms: C_6  and  N_7
REMARK    4  A    between atoms: N_10  and  O_11
REMARK    5  A    between atoms: C_15  and  C_16
REMARK                            x       y       z     vdW  Elec       q    Type
REMARK                         _______ _______ _______ _____ _____    ______ ____
ROOT
ATOM      1  N   UNL     1       2.656   5.963  18.728  0.00  0.00    +0.000 N 
ATOM      2  C   UNL     1       2.140   4.820  19.351  0.00  0.00    +0.000 A 
ATOM      3  O   UNL     1       1.234   4.825  20.192  0.00  0.00    +0.000 OA
ATOM      4  N   UNL     1       2.668   3.600  18.928  0.00  0.00    +0.000 N 
ATOM      5  C   UNL     1       3.566   3.354  17.900  0.00  0.00    +0.000 A 
ATOM      6  O   UNL     1       3.863   2.239  17.482  0.00  0.00    +0.000 OA
ATOM      7  C   UNL     1       4.140   4.572  17.346  0.00  0.00    +0.000 A 
ATOM      8  C   UNL     1       5.200   4.724  16.372  0.00  0.00    +0.000 A 
ATOM      9  C   UNL     1       5.950   3.633  15.677  0.00  0.00    +0.000 C 
ATOM     10  C   UNL     1       5.477   6.065  16.157  0.00  0.00    +0.000 A 
ATOM     11  S   UNL     1       4.506   7.101  17.096  0.00  0.00    +0.000 S 
ATOM     12  C   UNL     1       3.659   5.795  17.773  0.00  0.00    +0.000 A 
ENDROOT
BRANCH   1  16
ATOM     13  C   UNL     1       1.019   9.749  19.672  0.00  0.00    +0.000 A 
ATOM     14  C   UNL     1       1.331   8.839  20.683  0.00  0.00    +0.000 A 
ATOM     15  C   UNL     1       1.880   7.591  20.373  0.00  0.00    +0.000 A 
ATOM     16  C   UNL     1       2.138   7.247  19.042  0.00  0.00    +0.000 A 
ATOM     17  C   UNL     1       1.808   8.158  18.028  0.00  0.00    +0.000 A 
ATOM     18  C   UNL     1       1.248   9.402  18.342  0.00  0.00    +0.000 A 
BRANCH  13  20
ATOM     19  C   UNL     1       0.030  10.946  21.456  0.00  0.00    +0.000 C 
ATOM     20  O   UNL     1       0.454  10.919  20.098  0.00  0.00    +0.000 OA
ENDBRANCH  13  20
ENDBRANCH   1  16
BRANCH   4  21
ATOM     21  O   UNL     1       2.059   2.453  19.505  0.00  0.00    +0.000 OA
ATOM     22  H   UNL     1       1.971   1.860  18.729  0.00  0.00    +0.000 HD
ENDBRANCH   4  21
TORSDOF 3
ENDMDL
MODEL 8
REMARK VINA RESULT:      -6.1      2.133      3.340
REMARK  Name = 
REMARK  5 active torsions:
REMARK  status: ('A' for Active; 'I' for Inactive)
REMARK    1  A    between atoms: C_1  and  O_2
REMARK    2  A    between atoms: O_2  and  C_3
REMARK    3  A    between atoms: C_6  and  N_7
REMARK    4  A    between atoms: N_10  and  O_11
REMARK    5  A    between atoms: C_15  and  C_16
REMARK                            x       y       z     vdW  Elec       q    Type
REMARK                         _______ _______ _______ _____ _____    ______ ____
ROOT
ATOM      1  N   UNL     1       3.740   5.901  18.514  0.00  0.00    +0.000 N 
ATOM      2  C   UNL     1       3.420   4.947  19.487  0.00  0.00    +0.000 A 
ATOM      3  O   UNL     1       3.980   3.851  19.608  0.00  0.00    +0.000 OA
ATOM      4  N   UNL     1       2.437   5.313  20.405  0.00  0.00    +0.000 N 
ATOM      5  C   UNL     1       1.799   6.537  20.551  0.00  0.00    +0.000 A 
ATOM      6  O   UNL     1       1.060   6.834  21.483  0.00  0.00    +0.000 OA
ATOM      7  C   UNL     1       2.095   7.462  19.466  0.00  0.00    +0.000 A 
ATOM      8  C   UNL     1       1.523   8.763  19.190  0.00  0.00    +0.000 A 
ATOM      9  C   UNL     1       0.486   9.481  19.993  0.00  0.00    +0.000 C 
ATOM     10  C   UNL     1       2.053   9.291  18.024  0.00  0.00    +0.000 A 
ATOM     11  S   UNL     1       3.188   8.260  17.284  0.00  0.00    +0.000 S 
ATOM     12  C   UNL     1       3.042   7.109  18.523  0.00  0.00    +0.000 A 
ENDROOT
BRANCH   1  16
ATOM     13  C   UNL     1       6.803   5.239  15.669  0.00  0.00    +0.000 A 
ATOM     14  C   UNL     1       7.047   6.006  16.809  0.00  0.00    +0.000 A 
ATOM     15  C   UNL     1       6.039   6.218  17.754  0.00  0.00    +0.000 A 
ATOM     16  C   UNL     1       4.774   5.649  17.574  0.00  0.00    +0.000 A 
ATOM     17  C   UNL     1       4.528   4.892  16.419  0.00  0.00    +0.000 A 
ATOM     18  C   UNL     1       5.536   4.691  15.470  0.00  0.00    +0.000 A 
BRANCH  13  20
ATOM     19  C   UNL     1       7.517   5.005  13.427  0.00  0.00    +0.000 C 
ATOM     20  O   UNL     1       7.855   5.135  14.803  0.00  0.00    +0.000 OA
ENDBRANCH  13  20
ENDBRANCH   1  16
BRANCH   4  21
ATOM     21  O   UNL     1       2.201   4.367  21.439  0.00  0.00    +0.000 OA
ATOM     22  H   UNL     1       1.370   4.703  21.834  0.00  0.00    +0.000 HD
ENDBRANCH   4  21
TORSDOF 3
ENDMDL
MODEL 9
REMARK VINA RESULT:      -6.0      2.937      6.176
REMARK  Name = 
REMARK  5 active torsions:
REMARK  status: ('A' for Active; 'I' for Inactive)
REMARK    1  A    between atoms: C_1  and  O_2
REMARK    2  A    between atoms: O_2  and  C_3
REMARK    3  A    between atoms: C_6  and  N_7
REMARK    4  A    between atoms: N_10  and  O_11
REMARK    5  A    between atoms: C_15  and  C_16
REMARK                            x       y       z     vdW  Elec       q    Type
REMARK                         _______ _______ _______ _____ _____    ______ ____
ROOT
ATOM      1  N   UNL     1       2.593   5.889  18.737  0.00  0.00    +0.000 N 
ATOM      2  C   UNL     1       2.084   4.737  19.347  0.00  0.00    +0.000 A 
ATOM      3  O   UNL     1       1.166   4.727  20.176  0.00  0.00    +0.000 OA
ATOM      4  N   UNL     1       2.631   3.526  18.926  0.00  0.00    +0.000 N 
ATOM      5  C   UNL     1       3.547   3.295  17.908  0.00  0.00    +0.000 A 
ATOM      6  O   UNL     1       3.862   2.187  17.489  0.00  0.00    +0.000 OA
ATOM      7  C   UNL     1       4.113   4.523  17.368  0.00  0.00    +0.000 A 
ATOM      8  C   UNL     1       5.184   4.694  16.409  0.00  0.00    +0.000 A 
ATOM      9  C   UNL     1       5.956   3.615  15.719  0.00  0.00    +0.000 C 
ATOM     10  C   UNL     1       5.447   6.038  16.205  0.00  0.00    +0.000 A 
ATOM     11  S   UNL     1       4.451   7.058  17.136  0.00  0.00    +0.000 S 
ATOM     12  C   UNL     1       3.611   5.739  17.795  0.00  0.00    +0.000 A 
ENDROOT
BRANCH   1  16
ATOM     13  C   UNL     1       1.083   9.733  19.663  0.00  0.00    +0.000 A 
ATOM     14  C   UNL     1       1.290   9.352  18.336  0.00  0.00    +0.000 A 
ATOM     15  C   UNL     1       1.780   8.079  18.028  0.00  0.00    +0.000 A 
ATOM     16  C   UNL     1       2.056   7.165  19.051  0.00  0.00    +0.000 A 
ATOM     17  C   UNL     1       1.862   7.557  20.383  0.00  0.00    +0.000 A 
ATOM     18  C   UNL     1       1.381   8.836  20.688  0.00  0.00    +0.000 A 
BRANCH  13  20
ATOM     19  C   UNL     1      -0.289  11.485  18.864  0.00  0.00    +0.000 C 
ATOM     20  O   UNL     1       0.636  11.013  19.837  0.00  0.00    +0.000 OA
ENDBRANCH  13  20
ENDBRANCH   1  16
BRANCH   4  21
ATOM     21  O   UNL     1       2.029   2.368  19.488  0.00  0.00    +0.000 OA
ATOM     22  H   UNL     1       2.724   2.059  20.106  0.00  0.00    +0.000 HD
ENDBRANCH   4  21
TORSDOF 3
ENDMDL
