MODEL 1
REMARK VINA RESULT:      -7.7      0.000      0.000
REMARK  Name = 
REMARK  9 active torsions:
REMARK  status: ('A' for Active; 'I' for Inactive)
REMARK    1  A    between atoms: C_1  and  N_2
REMARK    2  A    between atoms: C_3  and  C_5
REMARK    3  A    between atoms: C_8  and  N_9
REMARK    4  A    between atoms: N_12  and  C_13
REMARK    5  A    between atoms: C_13  and  C_14
REMARK    6  A    between atoms: C_13  and  C_15
REMARK    7  A    between atoms: C_17  and  C_18
REMARK    8  A    between atoms: C_20  and  C_21
REMARK    9  A    between atoms: C_22  and  C_23
REMARK                            x       y       z     vdW  Elec       q    Type
REMARK                         _______ _______ _______ _____ _____    ______ ____
ROOT
ATOM      1  N   UNL     1       3.315   5.855  17.525  0.00  0.00    +0.000 N 
ATOM      2  C   UNL     1       4.621   5.937  17.123  0.00  0.00    +0.000 C 
ATOM      3  O   UNL     1       5.463   6.666  17.629  0.00  0.00    +0.000 OA
ATOM      4  N   UNL     1       4.963   5.084  16.097  0.00  0.00    +0.000 N 
ATOM      5  H   UNL     1       2.852   4.969  17.382  0.00  0.00    +0.000 HD
ATOM      6  H   UNL     1       4.223   4.822  15.465  0.00  0.00    +0.000 HD
ENDROOT
BRANCH   1  10
ATOM      7  C   UNL     1       1.408   8.682  20.108  0.00  0.00    +0.000 A 
ATOM      8  C   UNL     1       1.756   9.019  18.803  0.00  0.00    +0.000 A 
ATOM      9  C   UNL     1       2.364   8.071  17.974  0.00  0.00    +0.000 A 
ATOM     10  C   UNL     1       2.695   6.781  18.424  0.00  0.00    +0.000 A 
ATOM     11  C   UNL     1       2.371   6.442  19.754  0.00  0.00    +0.000 A 
ATOM     12  C   UNL     1       2.745   5.136  20.397  0.00  0.00    +0.000 C 
ATOM     13  C   UNL     1       1.689   7.387  20.560  0.00  0.00    +0.000 A 
BRANCH   7  16
ATOM     14  C   UNL     1      -0.759   9.954  22.960  0.00  0.00    +0.000 C 
ATOM     15  N   UNL     1      -0.032   9.098  22.054  0.00  0.00    +0.000 N 
ATOM     16  C   UNL     1       0.734   9.637  21.038  0.00  0.00    +0.000 C 
ATOM     17  O   UNL     1       0.852  10.847  20.868  0.00  0.00    +0.000 OA
ATOM     18  H   UNL     1      -0.290   8.123  22.025  0.00  0.00    +0.000 HD
ENDBRANCH   7  16
ENDBRANCH   1  10
BRANCH   4  19
ATOM     19  C   UNL     1       6.315   5.191  15.529  0.00  0.00    +0.000 C 
ATOM     20  C   UNL     1       7.378   4.628  16.470  0.00  0.00    +0.000 C 
BRANCH  19  21
ATOM     21  C   UNL     1       6.348   4.546  14.172  0.00  0.00    +0.000 A 
ATOM     22  C   UNL     1       5.512   3.504  13.662  0.00  0.00    +0.000 A 
ATOM     23  C   UNL     1       5.956   3.218  12.391  0.00  0.00    +0.000 A 
ATOM     24  C   UNL     1       5.555   2.248  11.351  0.00  0.00    +0.000 C 
ATOM     25  O   UNL     1       7.008   4.016  12.077  0.00  0.00    +0.000 OA
ATOM     26  C   UNL     1       7.242   4.820  13.148  0.00  0.00    +0.000 A 
ATOM     27  C   UNL     1       8.364   5.772  12.997  0.00  0.00    +0.000 C 
ENDBRANCH  19  21
ENDBRANCH   4  19
TORSDOF 4
ENDMDL
MODEL 2
REMARK VINA RESULT:      -7.5      1.879      3.115
REMARK  Name = 
REMARK  9 active torsions:
REMARK  status: ('A' for Active; 'I' for Inactive)
REMARK    1  A    between atoms: C_1  and  N_2
REMARK    2  A    between atoms: C_3  and  C_5
REMARK    3  A    between atoms: C_8  and  N_9
REMARK    4  A    between atoms: N_12  and  C_13
REMARK    5  A    between atoms: C_13  and  C_14
REMARK    6  A    between atoms: C_13  and  C_15
REMARK    7  A    between atoms: C_17  and  C_18
REMARK    8  A    between atoms: C_20  and  C_21
REMARK    9  A    between atoms: C_22  and  C_23
REMARK                            x       y       z     vdW  Elec       q    Type
REMARK                         _______ _______ _______ _____ _____    ______ ____
ROOT
ATOM      1  N   UNL     1       2.423   7.657  18.218  0.00  0.00    +0.000 N 
ATOM      2  C   UNL     1       2.998   6.418  18.311  0.00  0.00    +0.000 C 
ATOM      3  O   UNL     1       2.820   5.632  19.232  0.00  0.00    +0.000 OA
ATOM      4  N   UNL     1       3.792   6.069  17.241  0.00  0.00    +0.000 N 
ATOM      5  H   UNL     1       2.261   8.012  17.287  0.00  0.00    +0.000 HD
ATOM      6  H   UNL     1       4.229   6.827  16.740  0.00  0.00    +0.000 HD
ENDROOT
BRANCH   1  10
ATOM      7  C   UNL     1       0.440   9.515  21.522  0.00  0.00    +0.000 A 
ATOM      8  C   UNL     1       1.013   8.253  21.643  0.00  0.00    +0.000 A 
ATOM      9  C   UNL     1       1.669   7.674  20.553  0.00  0.00    +0.000 A 
ATOM     10  C   UNL     1       1.734   8.301  19.295  0.00  0.00    +0.000 A 
ATOM     11  C   UNL     1       1.131   9.568  19.157  0.00  0.00    +0.000 A 
ATOM     12  C   UNL     1       1.042  10.312  17.855  0.00  0.00    +0.000 C 
ATOM     13  C   UNL     1       0.534  10.174  20.290  0.00  0.00    +0.000 A 
BRANCH   7  16
ATOM     14  C   UNL     1      -1.901  11.875  23.366  0.00  0.00    +0.000 C 
ATOM     15  N   UNL     1      -1.224  11.130  22.332  0.00  0.00    +0.000 N 
ATOM     16  C   UNL     1      -0.253  10.202  22.653  0.00  0.00    +0.000 C 
ATOM     17  O   UNL     1       0.065   9.950  23.813  0.00  0.00    +0.000 OA
ATOM     18  H   UNL     1      -1.297  11.474  21.386  0.00  0.00    +0.000 HD
ENDBRANCH   7  16
ENDBRANCH   1  10
BRANCH   4  19
ATOM     19  C   UNL     1       4.539   4.805  17.314  0.00  0.00    +0.000 C 
ATOM     20  C   UNL     1       3.630   3.592  17.118  0.00  0.00    +0.000 C 
BRANCH  19  21
ATOM     21  C   UNL     1       5.680   4.832  16.338  0.00  0.00    +0.000 A 
ATOM     22  C   UNL     1       5.630   4.930  14.912  0.00  0.00    +0.000 A 
ATOM     23  C   UNL     1       6.928   4.868  14.459  0.00  0.00    +0.000 A 
ATOM     24  C   UNL     1       7.556   4.886  13.122  0.00  0.00    +0.000 C 
ATOM     25  O   UNL     1       7.779   4.743  15.508  0.00  0.00    +0.000 OA
ATOM     26  C   UNL     1       7.030   4.726  16.641  0.00  0.00    +0.000 A 
ATOM     27  C   UNL     1       7.787   4.594  17.905  0.00  0.00    +0.000 C 
ENDBRANCH  19  21
ENDBRANCH   4  19
TORSDOF 4
ENDMDL
MODEL 3
REMARK VINA RESULT:      -7.2      4.330      9.475
REMARK  Name = 
REMARK  9 active torsions:
REMARK  status: ('A' for Active; 'I' for Inactive)
REMARK    1  A    between atoms: C_1  and  N_2
REMARK    2  A    between atoms: C_3  and  C_5
REMARK    3  A    between atoms: C_8  and  N_9
REMARK    4  A    between atoms: N_12  and  C_13
REMARK    5  A    between atoms: C_13  and  C_14
REMARK    6  A    between atoms: C_13  and  C_15
REMARK    7  A    between atoms: C_17  and  C_18
REMARK    8  A    between atoms: C_20  and  C_21
REMARK    9  A    between atoms: C_22  and  C_23
REMARK                            x       y       z     vdW  Elec       q    Type
REMARK                         _______ _______ _______ _____ _____    ______ ____
ROOT
ATOM      1  N   UNL     1       1.729   8.592  20.881  0.00  0.00    +0.000 N 
ATOM      2  C   UNL     1       0.517   9.226  20.935  0.00  0.00    +0.000 C 
ATOM      3  O   UNL     1      -0.550   8.722  20.609  0.00  0.00    +0.000 OA
ATOM      4  N   UNL     1       0.558  10.506  21.441  0.00  0.00    +0.000 N 
ATOM      5  H   UNL     1       2.424   8.886  21.551  0.00  0.00    +0.000 HD
ATOM      6  H   UNL     1       1.421  11.010  21.316  0.00  0.00    +0.000 HD
ENDROOT
BRANCH   1  10
ATOM      7  C   UNL     1       2.308   4.814  18.959  0.00  0.00    +0.000 A 
ATOM      8  C   UNL     1       1.987   4.893  20.311  0.00  0.00    +0.000 A 
ATOM      9  C   UNL     1       1.788   6.139  20.911  0.00  0.00    +0.000 A 
ATOM     10  C   UNL     1       1.951   7.347  20.209  0.00  0.00    +0.000 A 
ATOM     11  C   UNL     1       2.304   7.276  18.846  0.00  0.00    +0.000 A 
ATOM     12  C   UNL     1       2.599   8.479  17.996  0.00  0.00    +0.000 C 
ATOM     13  C   UNL     1       2.430   6.005  18.232  0.00  0.00    +0.000 A 
BRANCH   7  16
ATOM     14  C   UNL     1       3.608   1.320  18.215  0.00  0.00    +0.000 C 
ATOM     15  N   UNL     1       3.319   2.578  18.861  0.00  0.00    +0.000 N 
ATOM     16  C   UNL     1       2.510   3.515  18.249  0.00  0.00    +0.000 C 
ATOM     17  O   UNL     1       1.986   3.324  17.155  0.00  0.00    +0.000 OA
ATOM     18  H   UNL     1       3.909   2.851  19.634  0.00  0.00    +0.000 HD
ENDBRANCH   7  16
ENDBRANCH   1  10
BRANCH   4  19
ATOM     19  C   UNL     1      -0.681  11.298  21.426  0.00  0.00    +0.000 C 
ATOM     20  C   UNL     1      -1.010  11.871  22.803  0.00  0.00    +0.000 C 
BRANCH  19  21
ATOM     21  C   UNL     1      -0.594  12.359  20.367  0.00  0.00    +0.000 A 
ATOM     22  C   UNL     1      -0.251  13.739  20.516  0.00  0.00    +0.000 A 
ATOM     23  C   UNL     1      -0.353  14.316  19.270  0.00  0.00    +0.000 A 
ATOM     24  C   UNL     1      -0.166  15.686  18.749  0.00  0.00    +0.000 C 
ATOM     25  O   UNL     1      -0.731  13.386  18.359  0.00  0.00    +0.000 OA
ATOM     26  C   UNL     1      -0.872  12.205  19.016  0.00  0.00    +0.000 A 
ATOM     27  C   UNL     1      -1.285  11.055  18.182  0.00  0.00    +0.000 C 
ENDBRANCH  19  21
ENDBRANCH   4  19
TORSDOF 4
ENDMDL
MODEL 4
REMARK VINA RESULT:      -7.1      2.364      3.347
REMARK  Name = 
REMARK  9 active torsions:
REMARK  status: ('A' for Active; 'I' for Inactive)
REMARK    1  A    between atoms: C_1  and  N_2
REMARK    2  A    between atoms: C_3  and  C_5
REMARK    3  A    between atoms: C_8  and  N_9
REMARK    4  A    between atoms: N_12  and  C_13
REMARK    5  A    between atoms: C_13  and  C_14
REMARK    6  A    between atoms: C_13  and  C_15
REMARK    7  A    between atoms: C_17  and  C_18
REMARK    8  A    between atoms: C_20  and  C_21
REMARK    9  A    between atoms: C_22  and  C_23
REMARK                            x       y       z     vdW  Elec       q    Type
REMARK                         _______ _______ _______ _____ _____    ______ ____
ROOT
ATOM      1  N   UNL     1       2.093   6.581  18.628  0.00  0.00    +0.000 N 
ATOM      2  C   UNL     1       3.285   5.962  18.888  0.00  0.00    +0.000 C 
ATOM      3  O   UNL     1       4.221   6.471  19.492  0.00  0.00    +0.000 OA
ATOM      4  N   UNL     1       3.366   4.658  18.451  0.00  0.00    +0.000 N 
ATOM      5  H   UNL     1       1.281   5.986  18.553  0.00  0.00    +0.000 HD
ATOM      6  H   UNL     1       2.798   4.417  17.654  0.00  0.00    +0.000 HD
ENDROOT
BRANCH   1  10
ATOM      7  C   UNL     1       1.392  10.782  19.034  0.00  0.00    +0.000 A 
ATOM      8  C   UNL     1       1.936  10.252  17.868  0.00  0.00    +0.000 A 
ATOM      9  C   UNL     1       2.140   8.873  17.755  0.00  0.00    +0.000 A 
ATOM     10  C   UNL     1       1.864   7.983  18.808  0.00  0.00    +0.000 A 
ATOM     11  C   UNL     1       1.340   8.517  20.003  0.00  0.00    +0.000 A 
ATOM     12  C   UNL     1       1.083   7.701  21.239  0.00  0.00    +0.000 C 
ATOM     13  C   UNL     1       1.069   9.906  20.077  0.00  0.00    +0.000 A 
BRANCH   7  16
ATOM     14  C   UNL     1      -0.121  14.224  18.479  0.00  0.00    +0.000 C 
ATOM     15  N   UNL     1       0.157  12.810  18.407  0.00  0.00    +0.000 N 
ATOM     16  C   UNL     1       1.125  12.241  19.212  0.00  0.00    +0.000 C 
ATOM     17  O   UNL     1       1.770  12.889  20.031  0.00  0.00    +0.000 OA
ATOM     18  H   UNL     1      -0.184  12.308  17.600  0.00  0.00    +0.000 HD
ENDBRANCH   7  16
ENDBRANCH   1  10
BRANCH   4  19
ATOM     19  C   UNL     1       4.652   3.958  18.587  0.00  0.00    +0.000 C 
ATOM     20  C   UNL     1       4.466   2.477  18.909  0.00  0.00    +0.000 C 
BRANCH  19  21
ATOM     21  C   UNL     1       5.483   4.179  17.356  0.00  0.00    +0.000 A 
ATOM     22  C   UNL     1       5.155   3.883  15.996  0.00  0.00    +0.000 A 
ATOM     23  C   UNL     1       6.252   4.219  15.235  0.00  0.00    +0.000 A 
ATOM     24  C   UNL     1       6.573   4.140  13.795  0.00  0.00    +0.000 C 
ATOM     25  O   UNL     1       7.235   4.709  16.031  0.00  0.00    +0.000 OA
ATOM     26  C   UNL     1       6.772   4.690  17.309  0.00  0.00    +0.000 A 
ATOM     27  C   UNL     1       7.711   5.192  18.336  0.00  0.00    +0.000 C 
ENDBRANCH  19  21
ENDBRANCH   4  19
TORSDOF 4
ENDMDL
MODEL 5
REMARK VINA RESULT:      -7.1      2.535      9.526
REMARK  Name = 
REMARK  9 active torsions:
REMARK  status: ('A' for Active; 'I' for Inactive)
REMARK    1  A    between atoms: C_1  and  N_2
REMARK    2  A    between atoms: C_3  and  C_5
REMARK    3  A    between atoms: C_8  and  N_9
REMARK    4  A    between atoms: N_12  and  C_13
REMARK    5  A    between atoms: C_13  and  C_14
REMARK    6  A    between atoms: C_13  and  C_15
REMARK    7  A    between atoms: C_17  and  C_18
REMARK    8  A    between atoms: C_20  and  C_21
REMARK    9  A    between atoms: C_22  and  C_23
REMARK                            x       y       z     vdW  Elec       q    Type
REMARK                         _______ _______ _______ _____ _____    ______ ____
ROOT
ATOM      1  N   UNL     1       2.423   7.623  18.858  0.00  0.00    +0.000 N 
ATOM      2  C   UNL     1       1.664   8.675  18.422  0.00  0.00    +0.000 C 
ATOM      3  O   UNL     1       1.440   8.936  17.248  0.00  0.00    +0.000 OA
ATOM      4  N   UNL     1       1.105   9.436  19.424  0.00  0.00    +0.000 N 
ATOM      5  H   UNL     1       2.187   7.238  19.761  0.00  0.00    +0.000 HD
ATOM      6  H   UNL     1       1.602   9.461  20.300  0.00  0.00    +0.000 HD
ENDROOT
BRANCH   1  10
ATOM      7  C   UNL     1       5.012   5.342  16.329  0.00  0.00    +0.000 A 
ATOM      8  C   UNL     1       5.168   6.718  16.466  0.00  0.00    +0.000 A 
ATOM      9  C   UNL     1       4.319   7.437  17.311  0.00  0.00    +0.000 A 
ATOM     10  C   UNL     1       3.257   6.830  18.005  0.00  0.00    +0.000 A 
ATOM     11  C   UNL     1       3.075   5.441  17.848  0.00  0.00    +0.000 A 
ATOM     12  C   UNL     1       1.932   4.676  18.454  0.00  0.00    +0.000 C 
ATOM     13  C   UNL     1       3.988   4.712  17.047  0.00  0.00    +0.000 A 
BRANCH   7  16
ATOM     14  C   UNL     1       6.307   3.523  13.252  0.00  0.00    +0.000 C 
ATOM     15  N   UNL     1       5.532   4.356  14.139  0.00  0.00    +0.000 N 
ATOM     16  C   UNL     1       5.899   4.509  15.463  0.00  0.00    +0.000 C 
ATOM     17  O   UNL     1       6.896   3.972  15.939  0.00  0.00    +0.000 OA
ATOM     18  H   UNL     1       4.603   4.616  13.843  0.00  0.00    +0.000 HD
ENDBRANCH   7  16
ENDBRANCH   1  10
BRANCH   4  19
ATOM     19  C   UNL     1       0.371  10.653  19.044  0.00  0.00    +0.000 C 
ATOM     20  C   UNL     1      -1.131  10.402  18.929  0.00  0.00    +0.000 C 
BRANCH  19  21
ATOM     21  C   UNL     1       0.698  11.763  20.001  0.00  0.00    +0.000 A 
ATOM     22  C   UNL     1       1.514  12.916  19.781  0.00  0.00    +0.000 A 
ATOM     23  C   UNL     1       1.551  13.616  20.966  0.00  0.00    +0.000 A 
ATOM     24  C   UNL     1       2.221  14.854  21.413  0.00  0.00    +0.000 C 
ATOM     25  O   UNL     1       0.808  12.976  21.904  0.00  0.00    +0.000 OA
ATOM     26  C   UNL     1       0.289  11.862  21.324  0.00  0.00    +0.000 A 
ATOM     27  C   UNL     1      -0.559  11.023  22.197  0.00  0.00    +0.000 C 
ENDBRANCH  19  21
ENDBRANCH   4  19
TORSDOF 4
ENDMDL
MODEL 6
REMARK VINA RESULT:      -7.0      2.380      9.581
REMARK  Name = 
REMARK  9 active torsions:
REMARK  status: ('A' for Active; 'I' for Inactive)
REMARK    1  A    between atoms: C_1  and  N_2
REMARK    2  A    between atoms: C_3  and  C_5
REMARK    3  A    between atoms: C_8  and  N_9
REMARK    4  A    between atoms: N_12  and  C_13
REMARK    5  A    between atoms: C_13  and  C_14
REMARK    6  A    between atoms: C_13  and  C_15
REMARK    7  A    between atoms: C_17  and  C_18
REMARK    8  A    between atoms: C_20  and  C_21
REMARK    9  A    between atoms: C_22  and  C_23
REMARK                            x       y       z     vdW  Elec       q    Type
REMARK                         _______ _______ _______ _____ _____    ______ ____
ROOT
ATOM      1  N   UNL     1       2.384   7.633  18.879  0.00  0.00    +0.000 N 
ATOM      2  C   UNL     1       1.653   8.706  18.444  0.00  0.00    +0.000 C 
ATOM      3  O   UNL     1       1.469   8.996  17.270  0.00  0.00    +0.000 OA
ATOM      4  N   UNL     1       1.074   9.452  19.446  0.00  0.00    +0.000 N 
ATOM      5  H   UNL     1       2.115   7.231  19.765  0.00  0.00    +0.000 HD
ATOM      6  H   UNL     1       1.544   9.449  20.337  0.00  0.00    +0.000 HD
ENDROOT
BRANCH   1  10
ATOM      7  C   UNL     1       5.017   5.373  16.376  0.00  0.00    +0.000 A 
ATOM      8  C   UNL     1       5.184   6.744  16.545  0.00  0.00    +0.000 A 
ATOM      9  C   UNL     1       4.319   7.457  17.381  0.00  0.00    +0.000 A 
ATOM     10  C   UNL     1       3.232   6.848  18.033  0.00  0.00    +0.000 A 
ATOM     11  C   UNL     1       3.040   5.464  17.844  0.00  0.00    +0.000 A 
ATOM     12  C   UNL     1       1.873   4.700  18.402  0.00  0.00    +0.000 C 
ATOM     13  C   UNL     1       3.967   4.741  17.053  0.00  0.00    +0.000 A 
BRANCH   7  16
ATOM     14  C   UNL     1       6.323   3.511  13.330  0.00  0.00    +0.000 C 
ATOM     15  N   UNL     1       5.534   4.342  14.207  0.00  0.00    +0.000 N 
ATOM     16  C   UNL     1       5.919   4.547  15.518  0.00  0.00    +0.000 C 
ATOM     17  O   UNL     1       6.943   4.062  15.991  0.00  0.00    +0.000 OA
ATOM     18  H   UNL     1       4.590   4.557  13.921  0.00  0.00    +0.000 HD
ENDBRANCH   7  16
ENDBRANCH   1  10
BRANCH   4  19
ATOM     19  C   UNL     1       0.369  10.687  19.072  0.00  0.00    +0.000 C 
ATOM     20  C   UNL     1      -0.958  10.399  18.373  0.00  0.00    +0.000 C 
BRANCH  19  21
ATOM     21  C   UNL     1       0.204  11.564  20.280  0.00  0.00    +0.000 A 
ATOM     22  C   UNL     1      -0.857  11.568  21.239  0.00  0.00    +0.000 A 
ATOM     23  C   UNL     1      -0.588  12.580  22.133  0.00  0.00    +0.000 A 
ATOM     24  C   UNL     1      -1.282  13.120  23.319  0.00  0.00    +0.000 C 
ATOM     25  O   UNL     1       0.571  13.199  21.796  0.00  0.00    +0.000 OA
ATOM     26  C   UNL     1       1.052  12.586  20.683  0.00  0.00    +0.000 A 
ATOM     27  C   UNL     1       2.324  13.126  20.155  0.00  0.00    +0.000 C 
ENDBRANCH  19  21
ENDBRANCH   4  19
TORSDOF 4
ENDMDL
MODEL 7
REMARK VINA RESULT:      -7.0      3.875      8.782
REMARK  Name = 
REMARK  9 active torsions:
REMARK  status: ('A' for Active; 'I' for Inactive)
REMARK    1  A    between atoms: C_1  and  N_2
REMARK    2  A    between atoms: C_3  and  C_5
REMARK    3  A    between atoms: C_8  and  N_9
REMARK    4  A    between atoms: N_12  and  C_13
REMARK    5  A    between atoms: C_13  and  C_14
REMARK    6  A    between atoms: C_13  and  C_15
REMARK    7  A    between atoms: C_17  and  C_18
REMARK    8  A    between atoms: C_20  and  C_21
REMARK    9  A    between atoms: C_22  and  C_23
REMARK                            x       y       z     vdW  Elec       q    Type
REMARK                         _______ _______ _______ _____ _____    ______ ____
ROOT
ATOM      1  N   UNL     1       2.274   7.596  17.678  0.00  0.00    +0.000 N 
ATOM      2  C   UNL     1       1.793   8.533  18.553  0.00  0.00    +0.000 C 
ATOM      3  O   UNL     1       1.885   8.464  19.771  0.00  0.00    +0.000 OA
ATOM      4  N   UNL     1       1.210   9.631  17.959  0.00  0.00    +0.000 N 
ATOM      5  H   UNL     1       2.552   7.929  16.767  0.00  0.00    +0.000 HD
ATOM      6  H   UNL     1       0.799   9.484  17.051  0.00  0.00    +0.000 HD
ENDROOT
BRANCH   1  10
ATOM      7  C   UNL     1       3.510   3.668  18.838  0.00  0.00    +0.000 A 
ATOM      8  C   UNL     1       2.223   4.127  19.105  0.00  0.00    +0.000 A 
ATOM      9  C   UNL     1       1.840   5.409  18.702  0.00  0.00    +0.000 A 
ATOM     10  C   UNL     1       2.729   6.297  18.070  0.00  0.00    +0.000 A 
ATOM     11  C   UNL     1       4.043   5.849  17.821  0.00  0.00    +0.000 A 
ATOM     12  C   UNL     1       5.123   6.715  17.239  0.00  0.00    +0.000 C 
ATOM     13  C   UNL     1       4.396   4.521  18.169  0.00  0.00    +0.000 A 
BRANCH   7  16
ATOM     14  C   UNL     1       5.266   0.910  20.777  0.00  0.00    +0.000 C 
ATOM     15  N   UNL     1       4.731   2.187  20.371  0.00  0.00    +0.000 N 
ATOM     16  C   UNL     1       3.977   2.301  19.219  0.00  0.00    +0.000 C 
ATOM     17  O   UNL     1       3.709   1.339  18.505  0.00  0.00    +0.000 OA
ATOM     18  H   UNL     1       5.120   3.014  20.800  0.00  0.00    +0.000 HD
ENDBRANCH   7  16
ENDBRANCH   1  10
BRANCH   4  19
ATOM     19  C   UNL     1       0.566  10.628  18.826  0.00  0.00    +0.000 C 
ATOM     20  C   UNL     1       1.347  11.940  18.867  0.00  0.00    +0.000 C 
BRANCH  19  21
ATOM     21  C   UNL     1      -0.862  10.822  18.403  0.00  0.00    +0.000 A 
ATOM     22  C   UNL     1      -1.511  10.351  17.220  0.00  0.00    +0.000 A 
ATOM     23  C   UNL     1      -2.805  10.821  17.256  0.00  0.00    +0.000 A 
ATOM     24  C   UNL     1      -3.966  10.719  16.348  0.00  0.00    +0.000 C 
ATOM     25  O   UNL     1      -3.002  11.547  18.385  0.00  0.00    +0.000 OA
ATOM     26  C   UNL     1      -1.834  11.545  19.080  0.00  0.00    +0.000 A 
ATOM     27  C   UNL     1      -1.849  12.294  20.355  0.00  0.00    +0.000 C 
ENDBRANCH  19  21
ENDBRANCH   4  19
TORSDOF 4
ENDMDL
MODEL 8
REMARK VINA RESULT:      -7.0      2.652      4.094
REMARK  Name = 
REMARK  9 active torsions:
REMARK  status: ('A' for Active; 'I' for Inactive)
REMARK    1  A    between atoms: C_1  and  N_2
REMARK    2  A    between atoms: C_3  and  C_5
REMARK    3  A    between atoms: C_8  and  N_9
REMARK    4  A    between atoms: N_12  and  C_13
REMARK    5  A    between atoms: C_13  and  C_14
REMARK    6  A    between atoms: C_13  and  C_15
REMARK    7  A    between atoms: C_17  and  C_18
REMARK    8  A    between atoms: C_20  and  C_21
REMARK    9  A    between atoms: C_22  and  C_23
REMARK                            x       y       z     vdW  Elec       q    Type
REMARK                         _______ _______ _______ _____ _____    ______ ____
ROOT
ATOM      1  N   UNL     1       2.555   7.530  20.004  0.00  0.00    +0.000 N 
ATOM      2  C   UNL     1       2.792   6.362  19.331  0.00  0.00    +0.000 C 
ATOM      3  O   UNL     1       2.336   6.085  18.229  0.00  0.00    +0.000 OA
ATOM      4  N   UNL     1       3.645   5.491  19.971  0.00  0.00    +0.000 N 
ATOM      5  H   UNL     1       3.282   7.847  20.630  0.00  0.00    +0.000 HD
ATOM      6  H   UNL     1       3.670   5.544  20.977  0.00  0.00    +0.000 HD
ENDROOT
BRANCH   1  10
ATOM      7  C   UNL     1      -0.441  10.318  18.757  0.00  0.00    +0.000 A 
ATOM      8  C   UNL     1       0.481   9.799  17.853  0.00  0.00    +0.000 A 
ATOM      9  C   UNL     1       1.440   8.877  18.283  0.00  0.00    +0.000 A 
ATOM     10  C   UNL     1       1.553   8.480  19.628  0.00  0.00    +0.000 A 
ATOM     11  C   UNL     1       0.640   9.024  20.555  0.00  0.00    +0.000 A 
ATOM     12  C   UNL     1       0.697   8.762  22.033  0.00  0.00    +0.000 C 
ATOM     13  C   UNL     1      -0.374   9.900  20.092  0.00  0.00    +0.000 A 
BRANCH   7  16
ATOM     14  C   UNL     1      -3.861  11.650  17.768  0.00  0.00    +0.000 C 
ATOM     15  N   UNL     1      -2.787  10.790  18.203  0.00  0.00    +0.000 N 
ATOM     16  C   UNL     1      -1.507  11.286  18.360  0.00  0.00    +0.000 C 
ATOM     17  O   UNL     1      -1.225  12.465  18.164  0.00  0.00    +0.000 OA
ATOM     18  H   UNL     1      -2.936   9.793  18.147  0.00  0.00    +0.000 HD
ENDBRANCH   7  16
ENDBRANCH   1  10
BRANCH   4  19
ATOM     19  C   UNL     1       3.861   4.165  19.371  0.00  0.00    +0.000 C 
ATOM     20  C   UNL     1       2.545   3.468  19.035  0.00  0.00    +0.000 C 
BRANCH  19  21
ATOM     21  C   UNL     1       4.768   4.288  18.180  0.00  0.00    +0.000 A 
ATOM     22  C   UNL     1       4.542   3.844  16.840  0.00  0.00    +0.000 A 
ATOM     23  C   UNL     1       5.679   4.138  16.121  0.00  0.00    +0.000 A 
ATOM     24  C   UNL     1       6.099   3.923  14.721  0.00  0.00    +0.000 C 
ATOM     25  O   UNL     1       6.592   4.739  16.925  0.00  0.00    +0.000 OA
ATOM     26  C   UNL     1       6.044   4.835  18.165  0.00  0.00    +0.000 A 
ATOM     27  C   UNL     1       6.897   5.469  19.192  0.00  0.00    +0.000 C 
ENDBRANCH  19  21
ENDBRANCH   4  19
TORSDOF 4
ENDMDL
MODEL 9
REMARK VINA RESULT:      -7.0      2.175      9.720
REMARK  Name = 
REMARK  9 active torsions:
REMARK  status: ('A' for Active; 'I' for Inactive)
REMARK    1  A    between atoms: C_1  and  N_2
REMARK    2  A    between atoms: C_3  and  C_5
REMARK    3  A    between atoms: C_8  and  N_9
REMARK    4  A    between atoms: N_12  and  C_13
REMARK    5  A    between atoms: C_13  and  C_14
REMARK    6  A    between atoms: C_13  and  C_15
REMARK    7  A    between atoms: C_17  and  C_18
REMARK    8  A    between atoms: C_20  and  C_21
REMARK    9  A    between atoms: C_22  and  C_23
REMARK                            x       y       z     vdW  Elec       q    Type
REMARK                         _______ _______ _______ _____ _____    ______ ____
ROOT
ATOM      1  N   UNL     1       2.320   7.415  19.030  0.00  0.00    +0.000 N 
ATOM      2  C   UNL     1       1.641   8.556  18.696  0.00  0.00    +0.000 C 
ATOM      3  O   UNL     1       1.522   8.990  17.558  0.00  0.00    +0.000 OA
ATOM      4  N   UNL     1       1.033   9.196  19.753  0.00  0.00    +0.000 N 
ATOM      5  H   UNL     1       1.998   6.920  19.848  0.00  0.00    +0.000 HD
ATOM      6  H   UNL     1       1.459   9.071  20.657  0.00  0.00    +0.000 HD
ENDROOT
BRANCH   1  10
ATOM      7  C   UNL     1       5.009   5.392  16.389  0.00  0.00    +0.000 A 
ATOM      8  C   UNL     1       5.157   6.747  16.667  0.00  0.00    +0.000 A 
ATOM      9  C   UNL     1       4.274   7.381  17.546  0.00  0.00    +0.000 A 
ATOM     10  C   UNL     1       3.187   6.710  18.136  0.00  0.00    +0.000 A 
ATOM     11  C   UNL     1       3.015   5.343  17.836  0.00  0.00    +0.000 A 
ATOM     12  C   UNL     1       1.852   4.524  18.319  0.00  0.00    +0.000 C 
ATOM     13  C   UNL     1       3.961   4.696  17.002  0.00  0.00    +0.000 A 
BRANCH   7  16
ATOM     14  C   UNL     1       6.273   3.575  13.299  0.00  0.00    +0.000 C 
ATOM     15  N   UNL     1       5.464   4.339  14.217  0.00  0.00    +0.000 N 
ATOM     16  C   UNL     1       5.932   4.647  15.480  0.00  0.00    +0.000 C 
ATOM     17  O   UNL     1       7.046   4.313  15.873  0.00  0.00    +0.000 OA
ATOM     18  H   UNL     1       4.479   4.424  14.011  0.00  0.00    +0.000 HD
ENDBRANCH   7  16
ENDBRANCH   1  10
BRANCH   4  19
ATOM     19  C   UNL     1       0.380  10.489  19.499  0.00  0.00    +0.000 C 
ATOM     20  C   UNL     1      -0.774  10.362  18.507  0.00  0.00    +0.000 C 
BRANCH  19  21
ATOM     21  C   UNL     1      -0.044  11.108  20.799  0.00  0.00    +0.000 A 
ATOM     22  C   UNL     1      -0.476  12.449  21.047  0.00  0.00    +0.000 A 
ATOM     23  C   UNL     1      -0.711  12.551  22.400  0.00  0.00    +0.000 A 
ATOM     24  C   UNL     1      -1.141  13.648  23.292  0.00  0.00    +0.000 C 
ATOM     25  O   UNL     1      -0.457  11.364  23.006  0.00  0.00    +0.000 OA
ATOM     26  C   UNL     1      -0.060  10.492  22.043  0.00  0.00    +0.000 A 
ATOM     27  C   UNL     1       0.266   9.128  22.512  0.00  0.00    +0.000 C 
ENDBRANCH  19  21
ENDBRANCH   4  19
TORSDOF 4
ENDMDL
