MODEL 1
REMARK VINA RESULT:      -7.3      0.000      0.000
REMARK  Name = 
REMARK  15 active torsions:
REMARK  status: ('A' for Active; 'I' for Inactive)
REMARK    1  A    between atoms: C_1  and  C_2
REMARK    2  A    between atoms: C_2  and  CA_3
REMARK    3  A    between atoms: CA_3  and  C_4
REMARK    4  A    between atoms: CA_3  and  N_6
REMARK    5  A    between atoms: C_4  and  O_5
REMARK    6  A    between atoms: N_6  and  C_7
REMARK    7  A    between atoms: C_7  and  C_8
REMARK    8  A    between atoms: C_10  and  O_11
REMARK    9  A    between atoms: O_11  and  C_12
REMARK   10  A    between atoms: C_13  and  O_14
REMARK   11  A    between atoms: O_14  and  C_15
REMARK   12  A    between atoms: C_15  and  C_16
REMARK   13  A    between atoms: N_18  and  C_19
REMARK   14  A    between atoms: C_19  and  C_20
REMARK   15  A    between atoms: C_20  and  C_21
REMARK                            x       y       z     vdW  Elec       q    Type
REMARK                         _______ _______ _______ _____ _____    ______ ____
ROOT
ATOM      1  C   UNL     1       2.565   6.227  19.603  0.00  0.00    +0.000 A 
ATOM      2  C   UNL     1       3.206   5.049  19.995  0.00  0.00    +0.000 A 
ATOM      3  C   UNL     1       4.363   4.576  19.366  0.00  0.00    +0.000 A 
ATOM      4  C   UNL     1       4.866   5.295  18.283  0.00  0.00    +0.000 A 
ATOM      5  C   UNL     1       4.195   6.417  17.804  0.00  0.00    +0.000 A 
ATOM      6  C   UNL     1       3.043   6.887  18.468  0.00  0.00    +0.000 A 
ATOM      7 BR   UNL     1       2.198   8.430  17.743  0.00  0.00    +0.000 Br
ENDROOT
BRANCH   3   8
ATOM      8  O   UNL     1       5.052   3.477  19.812  0.00  0.00    +0.000 OA
ATOM      9  C   UNL     1       4.366   2.229  19.726  0.00  0.00    +0.000 C 
ENDBRANCH   3   8
BRANCH   1  10
ATOM     10  C   UNL     1       1.396   6.699  20.448  0.00  0.00    +0.000 C 
BRANCH  10  11
ATOM     11  N   UNL     1       1.650   7.987  21.147  0.00  0.00    +0.000 NA
ATOM     12  H   UNL     1       2.144   7.775  22.016  0.00  0.00    +0.000 HD
BRANCH  11  13
ATOM     13  CA  UNL     1       0.416   8.754  21.461  0.00  0.00    +0.000 C 
BRANCH  13  15
ATOM     14  C   UNL     1      -0.753  10.157  23.257  0.00  0.00    +0.000 C 
ATOM     15  C   UNL     1       0.534   9.483  22.809  0.00  0.00    +0.000 C 
ENDBRANCH  13  15
BRANCH  13  16
ATOM     16  C   UNL     1       0.113   9.721  20.289  0.00  0.00    +0.000 C 
BRANCH  16  17
ATOM     17  O   UNL     1       1.001  10.830  20.303  0.00  0.00    +0.000 OA
ATOM     18  H   UNL     1       0.512  11.549  20.748  0.00  0.00    +0.000 HD
ENDBRANCH  16  17
ENDBRANCH  13  16
ENDBRANCH  11  13
ENDBRANCH  10  11
ENDBRANCH   1  10
BRANCH   4  19
ATOM     19  O   UNL     1       6.011   4.795  17.706  0.00  0.00    +0.000 OA
BRANCH  19  20
ATOM     20  C   UNL     1       7.251   5.277  18.225  0.00  0.00    +0.000 C 
BRANCH  20  21
ATOM     21  C   UNL     1       7.674   6.535  17.472  0.00  0.00    +0.000 C 
ATOM     22  O   UNL     1       7.653   6.602  16.244  0.00  0.00    +0.000 OA
ATOM     23  N   UNL     1       8.067   7.576  18.285  0.00  0.00    +0.000 N 
ATOM     24  H   UNL     1       7.965   7.437  19.290  0.00  0.00    +0.000 HD
BRANCH  23  25
ATOM     25  C   UNL     1       8.463   8.857  17.745  0.00  0.00    +0.000 C 
BRANCH  25  26
ATOM     26  C   UNL     1       8.225  10.004  18.724  0.00  0.00    +0.000 C 
BRANCH  26  27
ATOM     27  C   UNL     1       9.484  10.809  18.930  0.00  0.00    +0.000 A 
ATOM     28  C   UNL     1      10.338  11.081  17.852  0.00  0.00    +0.000 A 
ATOM     29  C   UNL     1      11.530  11.778  18.055  0.00  0.00    +0.000 A 
ATOM     30  C   UNL     1      11.881  12.205  19.334  0.00  0.00    +0.000 A 
ATOM     31  C   UNL     1      11.039  11.938  20.411  0.00  0.00    +0.000 A 
ATOM     32  C   UNL     1       9.846  11.243  20.212  0.00  0.00    +0.000 A 
ENDBRANCH  26  27
ENDBRANCH  25  26
ENDBRANCH  23  25
ENDBRANCH  20  21
ENDBRANCH  19  20
ENDBRANCH   4  19
TORSDOF 13
ENDMDL
MODEL 2
REMARK VINA RESULT:      -7.2      0.894      1.055
REMARK  Name = 
REMARK  15 active torsions:
REMARK  status: ('A' for Active; 'I' for Inactive)
REMARK    1  A    between atoms: C_1  and  C_2
REMARK    2  A    between atoms: C_2  and  CA_3
REMARK    3  A    between atoms: CA_3  and  C_4
REMARK    4  A    between atoms: CA_3  and  N_6
REMARK    5  A    between atoms: C_4  and  O_5
REMARK    6  A    between atoms: N_6  and  C_7
REMARK    7  A    between atoms: C_7  and  C_8
REMARK    8  A    between atoms: C_10  and  O_11
REMARK    9  A    between atoms: O_11  and  C_12
REMARK   10  A    between atoms: C_13  and  O_14
REMARK   11  A    between atoms: O_14  and  C_15
REMARK   12  A    between atoms: C_15  and  C_16
REMARK   13  A    between atoms: N_18  and  C_19
REMARK   14  A    between atoms: C_19  and  C_20
REMARK   15  A    between atoms: C_20  and  C_21
REMARK                            x       y       z     vdW  Elec       q    Type
REMARK                         _______ _______ _______ _____ _____    ______ ____
ROOT
ATOM      1  C   UNL     1       2.555   6.320  19.601  0.00  0.00    +0.000 A 
ATOM      2  C   UNL     1       3.220   5.144  19.956  0.00  0.00    +0.000 A 
ATOM      3  C   UNL     1       4.378   4.706  19.304  0.00  0.00    +0.000 A 
ATOM      4  C   UNL     1       4.859   5.462  18.234  0.00  0.00    +0.000 A 
ATOM      5  C   UNL     1       4.163   6.584  17.791  0.00  0.00    +0.000 A 
ATOM      6  C   UNL     1       3.009   7.017  18.478  0.00  0.00    +0.000 A 
ATOM      7 BR   UNL     1       2.130   8.562  17.801  0.00  0.00    +0.000 Br
ENDROOT
BRANCH   3   8
ATOM      8  O   UNL     1       5.092   3.609  19.715  0.00  0.00    +0.000 OA
ATOM      9  C   UNL     1       4.348   2.402  19.876  0.00  0.00    +0.000 C 
ENDBRANCH   3   8
BRANCH   1  10
ATOM     10  C   UNL     1       1.387   6.749  20.469  0.00  0.00    +0.000 C 
BRANCH  10  11
ATOM     11  N   UNL     1       1.614   8.037  21.175  0.00  0.00    +0.000 NA
ATOM     12  H   UNL     1       1.762   7.827  22.164  0.00  0.00    +0.000 HD
BRANCH  11  13
ATOM     13  CA  UNL     1       0.489   9.001  21.045  0.00  0.00    +0.000 C 
BRANCH  13  15
ATOM     14  C   UNL     1       0.073   9.473  23.528  0.00  0.00    +0.000 C 
ATOM     15  C   UNL     1      -0.480   8.899  22.233  0.00  0.00    +0.000 C 
ENDBRANCH  13  15
BRANCH  13  16
ATOM     16  C   UNL     1       1.069  10.429  20.874  0.00  0.00    +0.000 C 
BRANCH  16  17
ATOM     17  O   UNL     1       0.216  11.230  20.068  0.00  0.00    +0.000 OA
ATOM     18  H   UNL     1      -0.635  11.267  20.546  0.00  0.00    +0.000 HD
ENDBRANCH  16  17
ENDBRANCH  13  16
ENDBRANCH  11  13
ENDBRANCH  10  11
ENDBRANCH   1  10
BRANCH   4  19
ATOM     19  O   UNL     1       6.006   4.997  17.634  0.00  0.00    +0.000 OA
BRANCH  19  20
ATOM     20  C   UNL     1       7.243   5.443  18.189  0.00  0.00    +0.000 C 
BRANCH  20  21
ATOM     21  C   UNL     1       7.688   6.729  17.498  0.00  0.00    +0.000 C 
ATOM     22  O   UNL     1       7.827   6.804  16.278  0.00  0.00    +0.000 OA
ATOM     23  N   UNL     1       7.906   7.786  18.356  0.00  0.00    +0.000 N 
ATOM     24  H   UNL     1       7.678   7.635  19.338  0.00  0.00    +0.000 HD
BRANCH  23  25
ATOM     25  C   UNL     1       8.293   9.092  17.872  0.00  0.00    +0.000 C 
BRANCH  25  26
ATOM     26  C   UNL     1       8.884   9.972  18.971  0.00  0.00    +0.000 C 
BRANCH  26  27
ATOM     27  C   UNL     1       9.471  11.236  18.395  0.00  0.00    +0.000 A 
ATOM     28  C   UNL     1      10.718  11.214  17.757  0.00  0.00    +0.000 A 
ATOM     29  C   UNL     1      11.285  12.395  17.274  0.00  0.00    +0.000 A 
ATOM     30  C   UNL     1      10.613  13.606  17.427  0.00  0.00    +0.000 A 
ATOM     31  C   UNL     1       9.372  13.638  18.061  0.00  0.00    +0.000 A 
ATOM     32  C   UNL     1       8.803  12.459  18.544  0.00  0.00    +0.000 A 
ENDBRANCH  26  27
ENDBRANCH  25  26
ENDBRANCH  23  25
ENDBRANCH  20  21
ENDBRANCH  19  20
ENDBRANCH   4  19
TORSDOF 13
ENDMDL
MODEL 3
REMARK VINA RESULT:      -7.2      4.463      6.604
REMARK  Name = 
REMARK  15 active torsions:
REMARK  status: ('A' for Active; 'I' for Inactive)
REMARK    1  A    between atoms: C_1  and  C_2
REMARK    2  A    between atoms: C_2  and  CA_3
REMARK    3  A    between atoms: CA_3  and  C_4
REMARK    4  A    between atoms: CA_3  and  N_6
REMARK    5  A    between atoms: C_4  and  O_5
REMARK    6  A    between atoms: N_6  and  C_7
REMARK    7  A    between atoms: C_7  and  C_8
REMARK    8  A    between atoms: C_10  and  O_11
REMARK    9  A    between atoms: O_11  and  C_12
REMARK   10  A    between atoms: C_13  and  O_14
REMARK   11  A    between atoms: O_14  and  C_15
REMARK   12  A    between atoms: C_15  and  C_16
REMARK   13  A    between atoms: N_18  and  C_19
REMARK   14  A    between atoms: C_19  and  C_20
REMARK   15  A    between atoms: C_20  and  C_21
REMARK                            x       y       z     vdW  Elec       q    Type
REMARK                         _______ _______ _______ _____ _____    ______ ____
ROOT
ATOM      1  C   UNL     1       0.498  10.103  19.486  0.00  0.00    +0.000 A 
ATOM      2  C   UNL     1       1.191   9.366  18.523  0.00  0.00    +0.000 A 
ATOM      3  C   UNL     1       1.822   8.151  18.813  0.00  0.00    +0.000 A 
ATOM      4  C   UNL     1       1.783   7.684  20.127  0.00  0.00    +0.000 A 
ATOM      5  C   UNL     1       1.187   8.444  21.131  0.00  0.00    +0.000 A 
ATOM      6  C   UNL     1       0.540   9.655  20.809  0.00  0.00    +0.000 A 
ATOM      7 BR   UNL     1      -0.250  10.619  22.247  0.00  0.00    +0.000 Br
ENDROOT
BRANCH   3   8
ATOM      8  O   UNL     1       2.415   7.374  17.850  0.00  0.00    +0.000 OA
ATOM      9  C   UNL     1       3.778   7.677  17.553  0.00  0.00    +0.000 C 
ENDBRANCH   3   8
BRANCH   1  10
ATOM     10  C   UNL     1      -0.250  11.335  19.015  0.00  0.00    +0.000 C 
BRANCH  10  11
ATOM     11  N   UNL     1      -1.728  11.174  19.027  0.00  0.00    +0.000 NA
ATOM     12  H   UNL     1      -1.937  10.256  19.423  0.00  0.00    +0.000 HD
BRANCH  11  13
ATOM     13  CA  UNL     1      -2.355  11.279  17.682  0.00  0.00    +0.000 C 
BRANCH  13  15
ATOM     14  C   UNL     1      -2.774  10.041  15.480  0.00  0.00    +0.000 C 
ATOM     15  C   UNL     1      -2.104  10.015  16.845  0.00  0.00    +0.000 C 
ENDBRANCH  13  15
BRANCH  13  16
ATOM     16  C   UNL     1      -3.865  11.586  17.854  0.00  0.00    +0.000 C 
BRANCH  16  17
ATOM     17  O   UNL     1      -4.079  12.501  18.920  0.00  0.00    +0.000 OA
ATOM     18  H   UNL     1      -3.973  13.389  18.526  0.00  0.00    +0.000 HD
ENDBRANCH  16  17
ENDBRANCH  13  16
ENDBRANCH  11  13
ENDBRANCH  10  11
ENDBRANCH   1  10
BRANCH   4  19
ATOM     19  O   UNL     1       2.408   6.480  20.358  0.00  0.00    +0.000 OA
BRANCH  19  20
ATOM     20  C   UNL     1       1.574   5.397  20.770  0.00  0.00    +0.000 C 
BRANCH  20  21
ATOM     21  C   UNL     1       1.559   4.316  19.692  0.00  0.00    +0.000 C 
ATOM     22  O   UNL     1       0.800   3.350  19.744  0.00  0.00    +0.000 OA
ATOM     23  N   UNL     1       2.454   4.527  18.666  0.00  0.00    +0.000 N 
ATOM     24  H   UNL     1       2.973   5.404  18.684  0.00  0.00    +0.000 HD
BRANCH  23  25
ATOM     25  C   UNL     1       2.549   3.627  17.540  0.00  0.00    +0.000 C 
BRANCH  25  26
ATOM     26  C   UNL     1       3.907   2.933  17.457  0.00  0.00    +0.000 C 
BRANCH  26  27
ATOM     27  C   UNL     1       4.998   3.920  17.129  0.00  0.00    +0.000 A 
ATOM     28  C   UNL     1       5.844   4.405  18.136  0.00  0.00    +0.000 A 
ATOM     29  C   UNL     1       6.818   5.361  17.841  0.00  0.00    +0.000 A 
ATOM     30  C   UNL     1       6.952   5.842  16.540  0.00  0.00    +0.000 A 
ATOM     31  C   UNL     1       6.115   5.367  15.532  0.00  0.00    +0.000 A 
ATOM     32  C   UNL     1       5.142   4.410  15.824  0.00  0.00    +0.000 A 
ENDBRANCH  26  27
ENDBRANCH  25  26
ENDBRANCH  23  25
ENDBRANCH  20  21
ENDBRANCH  19  20
ENDBRANCH   4  19
TORSDOF 13
ENDMDL
MODEL 4
REMARK VINA RESULT:      -7.1      4.471      6.433
REMARK  Name = 
REMARK  15 active torsions:
REMARK  status: ('A' for Active; 'I' for Inactive)
REMARK    1  A    between atoms: C_1  and  C_2
REMARK    2  A    between atoms: C_2  and  CA_3
REMARK    3  A    between atoms: CA_3  and  C_4
REMARK    4  A    between atoms: CA_3  and  N_6
REMARK    5  A    between atoms: C_4  and  O_5
REMARK    6  A    between atoms: N_6  and  C_7
REMARK    7  A    between atoms: C_7  and  C_8
REMARK    8  A    between atoms: C_10  and  O_11
REMARK    9  A    between atoms: O_11  and  C_12
REMARK   10  A    between atoms: C_13  and  O_14
REMARK   11  A    between atoms: O_14  and  C_15
REMARK   12  A    between atoms: C_15  and  C_16
REMARK   13  A    between atoms: N_18  and  C_19
REMARK   14  A    between atoms: C_19  and  C_20
REMARK   15  A    between atoms: C_20  and  C_21
REMARK                            x       y       z     vdW  Elec       q    Type
REMARK                         _______ _______ _______ _____ _____    ______ ____
ROOT
ATOM      1  C   UNL     1       0.760   9.790  19.780  0.00  0.00    +0.000 A 
ATOM      2  C   UNL     1       1.495   9.084  18.823  0.00  0.00    +0.000 A 
ATOM      3  C   UNL     1       2.003   7.802  19.058  0.00  0.00    +0.000 A 
ATOM      4  C   UNL     1       1.794   7.229  20.313  0.00  0.00    +0.000 A 
ATOM      5  C   UNL     1       1.153   7.945  21.320  0.00  0.00    +0.000 A 
ATOM      6  C   UNL     1       0.631   9.228  21.053  0.00  0.00    +0.000 A 
ATOM      7 BR   UNL     1      -0.233  10.125  22.490  0.00  0.00    +0.000 Br
ENDROOT
BRANCH   3   8
ATOM      8  O   UNL     1       2.636   7.066  18.089  0.00  0.00    +0.000 OA
ATOM      9  C   UNL     1       3.762   7.684  17.467  0.00  0.00    +0.000 C 
ENDBRANCH   3   8
BRANCH   1  10
ATOM     10  C   UNL     1       0.155  11.115  19.356  0.00  0.00    +0.000 C 
BRANCH  10  11
ATOM     11  N   UNL     1      -1.331  11.131  19.400  0.00  0.00    +0.000 NA
ATOM     12  H   UNL     1      -1.637  10.266  19.848  0.00  0.00    +0.000 HD
BRANCH  11  13
ATOM     13  CA  UNL     1      -1.971  11.242  18.063  0.00  0.00    +0.000 C 
BRANCH  13  15
ATOM     14  C   UNL     1      -2.561   9.928  15.945  0.00  0.00    +0.000 C 
ATOM     15  C   UNL     1      -1.728   9.983  17.216  0.00  0.00    +0.000 C 
ENDBRANCH  13  15
BRANCH  13  16
ATOM     16  C   UNL     1      -3.479  11.548  18.251  0.00  0.00    +0.000 C 
BRANCH  16  17
ATOM     17  O   UNL     1      -3.668  12.666  19.107  0.00  0.00    +0.000 OA
ATOM     18  H   UNL     1      -2.771  12.929  19.393  0.00  0.00    +0.000 HD
ENDBRANCH  16  17
ENDBRANCH  13  16
ENDBRANCH  11  13
ENDBRANCH  10  11
ENDBRANCH   1  10
BRANCH   4  19
ATOM     19  O   UNL     1       2.303   5.963  20.490  0.00  0.00    +0.000 OA
BRANCH  19  20
ATOM     20  C   UNL     1       1.356   4.895  20.542  0.00  0.00    +0.000 C 
BRANCH  20  21
ATOM     21  C   UNL     1       1.770   3.788  19.578  0.00  0.00    +0.000 C 
ATOM     22  O   UNL     1       1.745   2.599  19.894  0.00  0.00    +0.000 OA
ATOM     23  N   UNL     1       2.158   4.237  18.334  0.00  0.00    +0.000 N 
ATOM     24  H   UNL     1       2.059   5.235  18.155  0.00  0.00    +0.000 HD
BRANCH  23  25
ATOM     25  C   UNL     1       2.544   3.325  17.281  0.00  0.00    +0.000 C 
BRANCH  25  26
ATOM     26  C   UNL     1       3.974   2.814  17.443  0.00  0.00    +0.000 C 
BRANCH  26  27
ATOM     27  C   UNL     1       4.974   3.895  17.122  0.00  0.00    +0.000 A 
ATOM     28  C   UNL     1       5.143   4.339  15.803  0.00  0.00    +0.000 A 
ATOM     29  C   UNL     1       6.109   5.300  15.499  0.00  0.00    +0.000 A 
ATOM     30  C   UNL     1       6.915   5.823  16.508  0.00  0.00    +0.000 A 
ATOM     31  C   UNL     1       6.755   5.388  17.822  0.00  0.00    +0.000 A 
ATOM     32  C   UNL     1       5.789   4.428  18.129  0.00  0.00    +0.000 A 
ENDBRANCH  26  27
ENDBRANCH  25  26
ENDBRANCH  23  25
ENDBRANCH  20  21
ENDBRANCH  19  20
ENDBRANCH   4  19
TORSDOF 13
ENDMDL
MODEL 5
REMARK VINA RESULT:      -7.1      3.114      8.951
REMARK  Name = 
REMARK  15 active torsions:
REMARK  status: ('A' for Active; 'I' for Inactive)
REMARK    1  A    between atoms: C_1  and  C_2
REMARK    2  A    between atoms: C_2  and  CA_3
REMARK    3  A    between atoms: CA_3  and  C_4
REMARK    4  A    between atoms: CA_3  and  N_6
REMARK    5  A    between atoms: C_4  and  O_5
REMARK    6  A    between atoms: N_6  and  C_7
REMARK    7  A    between atoms: C_7  and  C_8
REMARK    8  A    between atoms: C_10  and  O_11
REMARK    9  A    between atoms: O_11  and  C_12
REMARK   10  A    between atoms: C_13  and  O_14
REMARK   11  A    between atoms: O_14  and  C_15
REMARK   12  A    between atoms: C_15  and  C_16
REMARK   13  A    between atoms: N_18  and  C_19
REMARK   14  A    between atoms: C_19  and  C_20
REMARK   15  A    between atoms: C_20  and  C_21
REMARK                            x       y       z     vdW  Elec       q    Type
REMARK                         _______ _______ _______ _____ _____    ______ ____
ROOT
ATOM      1  C   UNL     1       3.636   5.045  19.245  0.00  0.00    +0.000 A 
ATOM      2  C   UNL     1       3.376   6.342  18.798  0.00  0.00    +0.000 A 
ATOM      3  C   UNL     1       2.404   7.161  19.385  0.00  0.00    +0.000 A 
ATOM      4  C   UNL     1       1.646   6.638  20.432  0.00  0.00    +0.000 A 
ATOM      5  C   UNL     1       1.812   5.315  20.835  0.00  0.00    +0.000 A 
ATOM      6  C   UNL     1       2.812   4.517  20.242  0.00  0.00    +0.000 A 
ATOM      7 BR   UNL     1       2.967   2.725  20.862  0.00  0.00    +0.000 Br
ENDROOT
BRANCH   3   8
ATOM      8  O   UNL     1       2.215   8.469  19.017  0.00  0.00    +0.000 OA
ATOM      9  C   UNL     1       2.035   8.708  17.622  0.00  0.00    +0.000 C 
ENDBRANCH   3   8
BRANCH   1  10
ATOM     10  C   UNL     1       4.802   4.310  18.609  0.00  0.00    +0.000 C 
BRANCH  10  11
ATOM     11  N   UNL     1       6.129   4.871  18.975  0.00  0.00    +0.000 NA
ATOM     12  H   UNL     1       5.997   5.474  19.789  0.00  0.00    +0.000 HD
BRANCH  11  13
ATOM     13  CA  UNL     1       6.772   5.653  17.887  0.00  0.00    +0.000 C 
BRANCH  13  15
ATOM     14  C   UNL     1       7.833   7.980  17.739  0.00  0.00    +0.000 C 
ATOM     15  C   UNL     1       7.821   6.631  18.440  0.00  0.00    +0.000 C 
ENDBRANCH  13  15
BRANCH  13  16
ATOM     16  C   UNL     1       7.368   4.671  16.846  0.00  0.00    +0.000 C 
BRANCH  16  17
ATOM     17  O   UNL     1       7.508   5.298  15.579  0.00  0.00    +0.000 OA
ATOM     18  H   UNL     1       8.354   4.968  15.218  0.00  0.00    +0.000 HD
ENDBRANCH  16  17
ENDBRANCH  13  16
ENDBRANCH  11  13
ENDBRANCH  10  11
ENDBRANCH   1  10
BRANCH   4  19
ATOM     19  O   UNL     1       0.712   7.485  20.983  0.00  0.00    +0.000 OA
BRANCH  19  20
ATOM     20  C   UNL     1       1.211   8.524  21.826  0.00  0.00    +0.000 C 
BRANCH  20  21
ATOM     21  C   UNL     1       0.323   9.759  21.708  0.00  0.00    +0.000 C 
ATOM     22  O   UNL     1      -0.683   9.912  22.399  0.00  0.00    +0.000 OA
ATOM     23  N   UNL     1       0.754  10.678  20.775  0.00  0.00    +0.000 N 
ATOM     24  H   UNL     1       1.646  10.487  20.321  0.00  0.00    +0.000 HD
BRANCH  23  25
ATOM     25  C   UNL     1       0.057  11.926  20.557  0.00  0.00    +0.000 C 
BRANCH  25  26
ATOM     26  C   UNL     1      -0.196  12.205  19.078  0.00  0.00    +0.000 C 
BRANCH  26  27
ATOM     27  C   UNL     1      -1.471  11.547  18.614  0.00  0.00    +0.000 A 
ATOM     28  C   UNL     1      -1.431  10.349  17.888  0.00  0.00    +0.000 A 
ATOM     29  C   UNL     1      -2.610   9.772  17.412  0.00  0.00    +0.000 A 
ATOM     30  C   UNL     1      -3.836  10.387  17.654  0.00  0.00    +0.000 A 
ATOM     31  C   UNL     1      -3.887  11.579  18.375  0.00  0.00    +0.000 A 
ATOM     32  C   UNL     1      -2.710  12.158  18.853  0.00  0.00    +0.000 A 
ENDBRANCH  26  27
ENDBRANCH  25  26
ENDBRANCH  23  25
ENDBRANCH  20  21
ENDBRANCH  19  20
ENDBRANCH   4  19
TORSDOF 13
ENDMDL
MODEL 6
REMARK VINA RESULT:      -6.9      3.884      8.991
REMARK  Name = 
REMARK  15 active torsions:
REMARK  status: ('A' for Active; 'I' for Inactive)
REMARK    1  A    between atoms: C_1  and  C_2
REMARK    2  A    between atoms: C_2  and  CA_3
REMARK    3  A    between atoms: CA_3  and  C_4
REMARK    4  A    between atoms: CA_3  and  N_6
REMARK    5  A    between atoms: C_4  and  O_5
REMARK    6  A    between atoms: N_6  and  C_7
REMARK    7  A    between atoms: C_7  and  C_8
REMARK    8  A    between atoms: C_10  and  O_11
REMARK    9  A    between atoms: O_11  and  C_12
REMARK   10  A    between atoms: C_13  and  O_14
REMARK   11  A    between atoms: O_14  and  C_15
REMARK   12  A    between atoms: C_15  and  C_16
REMARK   13  A    between atoms: N_18  and  C_19
REMARK   14  A    between atoms: C_19  and  C_20
REMARK   15  A    between atoms: C_20  and  C_21
REMARK                            x       y       z     vdW  Elec       q    Type
REMARK                         _______ _______ _______ _____ _____    ______ ____
ROOT
ATOM      1  C   UNL     1       3.366   5.210  19.325  0.00  0.00    +0.000 A 
ATOM      2  C   UNL     1       3.153   6.497  18.825  0.00  0.00    +0.000 A 
ATOM      3  C   UNL     1       2.244   7.389  19.404  0.00  0.00    +0.000 A 
ATOM      4  C   UNL     1       1.499   6.954  20.500  0.00  0.00    +0.000 A 
ATOM      5  C   UNL     1       1.615   5.645  20.960  0.00  0.00    +0.000 A 
ATOM      6  C   UNL     1       2.553   4.771  20.374  0.00  0.00    +0.000 A 
ATOM      7 BR   UNL     1       2.642   3.004  21.073  0.00  0.00    +0.000 Br
ENDROOT
BRANCH   3   8
ATOM      8  O   UNL     1       2.106   8.687  18.981  0.00  0.00    +0.000 OA
ATOM      9  C   UNL     1       1.617   8.864  17.652  0.00  0.00    +0.000 C 
ENDBRANCH   3   8
BRANCH   1  10
ATOM     10  C   UNL     1       4.471   4.389  18.687  0.00  0.00    +0.000 C 
BRANCH  10  11
ATOM     11  N   UNL     1       5.820   4.997  18.826  0.00  0.00    +0.000 NA
ATOM     12  H   UNL     1       5.707   5.899  19.293  0.00  0.00    +0.000 HD
BRANCH  11  13
ATOM     13  CA  UNL     1       6.524   5.202  17.533  0.00  0.00    +0.000 C 
BRANCH  13  15
ATOM     14  C   UNL     1       5.569   5.040  15.162  0.00  0.00    +0.000 C 
ATOM     15  C   UNL     1       5.952   4.295  16.431  0.00  0.00    +0.000 C 
ENDBRANCH  13  15
BRANCH  13  16
ATOM     16  C   UNL     1       6.459   6.705  17.157  0.00  0.00    +0.000 C 
BRANCH  16  17
ATOM     17  O   UNL     1       7.750   7.206  16.844  0.00  0.00    +0.000 OA
ATOM     18  H   UNL     1       8.212   6.473  16.392  0.00  0.00    +0.000 HD
ENDBRANCH  16  17
ENDBRANCH  13  16
ENDBRANCH  11  13
ENDBRANCH  10  11
ENDBRANCH   1  10
BRANCH   4  19
ATOM     19  O   UNL     1       0.629   7.872  21.040  0.00  0.00    +0.000 OA
BRANCH  19  20
ATOM     20  C   UNL     1       1.172   8.785  21.995  0.00  0.00    +0.000 C 
BRANCH  20  21
ATOM     21  C   UNL     1       0.562  10.169  21.795  0.00  0.00    +0.000 C 
ATOM     22  O   UNL     1       0.011  10.781  22.709  0.00  0.00    +0.000 OA
ATOM     23  N   UNL     1       0.694  10.666  20.516  0.00  0.00    +0.000 N 
ATOM     24  H   UNL     1       1.243  10.110  19.862  0.00  0.00    +0.000 HD
BRANCH  23  25
ATOM     25  C   UNL     1       0.211  11.980  20.156  0.00  0.00    +0.000 C 
BRANCH  25  26
ATOM     26  C   UNL     1      -0.160  12.083  18.678  0.00  0.00    +0.000 C 
BRANCH  26  27
ATOM     27  C   UNL     1      -1.560  11.578  18.436  0.00  0.00    +0.000 A 
ATOM     28  C   UNL     1      -1.805  10.601  17.462  0.00  0.00    +0.000 A 
ATOM     29  C   UNL     1      -3.108  10.176  17.201  0.00  0.00    +0.000 A 
ATOM     30  C   UNL     1      -4.177  10.725  17.907  0.00  0.00    +0.000 A 
ATOM     31  C   UNL     1      -3.944  11.698  18.876  0.00  0.00    +0.000 A 
ATOM     32  C   UNL     1      -2.641  12.124  19.141  0.00  0.00    +0.000 A 
ENDBRANCH  26  27
ENDBRANCH  25  26
ENDBRANCH  23  25
ENDBRANCH  20  21
ENDBRANCH  19  20
ENDBRANCH   4  19
TORSDOF 13
ENDMDL
MODEL 7
REMARK VINA RESULT:      -6.9      4.227      8.772
REMARK  Name = 
REMARK  15 active torsions:
REMARK  status: ('A' for Active; 'I' for Inactive)
REMARK    1  A    between atoms: C_1  and  C_2
REMARK    2  A    between atoms: C_2  and  CA_3
REMARK    3  A    between atoms: CA_3  and  C_4
REMARK    4  A    between atoms: CA_3  and  N_6
REMARK    5  A    between atoms: C_4  and  O_5
REMARK    6  A    between atoms: N_6  and  C_7
REMARK    7  A    between atoms: C_7  and  C_8
REMARK    8  A    between atoms: C_10  and  O_11
REMARK    9  A    between atoms: O_11  and  C_12
REMARK   10  A    between atoms: C_13  and  O_14
REMARK   11  A    between atoms: O_14  and  C_15
REMARK   12  A    between atoms: C_15  and  C_16
REMARK   13  A    between atoms: N_18  and  C_19
REMARK   14  A    between atoms: C_19  and  C_20
REMARK   15  A    between atoms: C_20  and  C_21
REMARK                            x       y       z     vdW  Elec       q    Type
REMARK                         _______ _______ _______ _____ _____    ______ ____
ROOT
ATOM      1  C   UNL     1       5.747   4.951  16.857  0.00  0.00    +0.000 A 
ATOM      2  C   UNL     1       4.570   4.200  16.907  0.00  0.00    +0.000 A 
ATOM      3  C   UNL     1       3.381   4.698  17.452  0.00  0.00    +0.000 A 
ATOM      4  C   UNL     1       3.392   5.982  17.998  0.00  0.00    +0.000 A 
ATOM      5  C   UNL     1       4.573   6.717  18.054  0.00  0.00    +0.000 A 
ATOM      6  C   UNL     1       5.753   6.203  17.479  0.00  0.00    +0.000 A 
ATOM      7 BR   UNL     1       7.315   7.283  17.600  0.00  0.00    +0.000 Br
ENDROOT
BRANCH   3   8
ATOM      8  O   UNL     1       2.198   4.004  17.412  0.00  0.00    +0.000 OA
ATOM      9  C   UNL     1       2.206   2.716  18.026  0.00  0.00    +0.000 C 
ENDBRANCH   3   8
BRANCH   1  10
ATOM     10  C   UNL     1       6.929   4.345  16.124  0.00  0.00    +0.000 C 
BRANCH  10  11
ATOM     11  N   UNL     1       7.364   5.135  14.942  0.00  0.00    +0.000 NA
ATOM     12  H   UNL     1       6.792   5.980  14.906  0.00  0.00    +0.000 HD
BRANCH  11  13
ATOM     13  CA  UNL     1       7.238   4.406  13.652  0.00  0.00    +0.000 C 
BRANCH  13  15
ATOM     14  C   UNL     1       5.587   3.264  12.062  0.00  0.00    +0.000 C 
ATOM     15  C   UNL     1       5.796   3.933  13.411  0.00  0.00    +0.000 C 
ENDBRANCH  13  15
BRANCH  13  16
ATOM     16  C   UNL     1       7.764   5.311  12.509  0.00  0.00    +0.000 C 
BRANCH  16  17
ATOM     17  O   UNL     1       8.893   6.062  12.934  0.00  0.00    +0.000 OA
ATOM     18  H   UNL     1       8.573   6.617  13.672  0.00  0.00    +0.000 HD
ENDBRANCH  16  17
ENDBRANCH  13  16
ENDBRANCH  11  13
ENDBRANCH  10  11
ENDBRANCH   1  10
BRANCH   4  19
ATOM     19  O   UNL     1       2.196   6.429  18.511  0.00  0.00    +0.000 OA
BRANCH  19  20
ATOM     20  C   UNL     1       2.133   6.601  19.927  0.00  0.00    +0.000 C 
BRANCH  20  21
ATOM     21  C   UNL     1       1.683   8.021  20.258  0.00  0.00    +0.000 C 
ATOM     22  O   UNL     1       1.541   8.411  21.416  0.00  0.00    +0.000 OA
ATOM     23  N   UNL     1       1.465   8.817  19.154  0.00  0.00    +0.000 N 
ATOM     24  H   UNL     1       1.695   8.415  18.246  0.00  0.00    +0.000 HD
BRANCH  23  25
ATOM     25  C   UNL     1       1.073  10.203  19.279  0.00  0.00    +0.000 C 
BRANCH  25  26
ATOM     26  C   UNL     1      -0.441  10.378  19.366  0.00  0.00    +0.000 C 
BRANCH  26  27
ATOM     27  C   UNL     1      -0.824  11.183  20.581  0.00  0.00    +0.000 A 
ATOM     28  C   UNL     1      -1.109  12.550  20.468  0.00  0.00    +0.000 A 
ATOM     29  C   UNL     1      -1.408  13.306  21.603  0.00  0.00    +0.000 A 
ATOM     30  C   UNL     1      -1.421  12.703  22.860  0.00  0.00    +0.000 A 
ATOM     31  C   UNL     1      -1.138  11.345  22.983  0.00  0.00    +0.000 A 
ATOM     32  C   UNL     1      -0.840  10.586  21.849  0.00  0.00    +0.000 A 
ENDBRANCH  26  27
ENDBRANCH  25  26
ENDBRANCH  23  25
ENDBRANCH  20  21
ENDBRANCH  19  20
ENDBRANCH   4  19
TORSDOF 13
ENDMDL
MODEL 8
REMARK VINA RESULT:      -6.9      4.289      9.055
REMARK  Name = 
REMARK  15 active torsions:
REMARK  status: ('A' for Active; 'I' for Inactive)
REMARK    1  A    between atoms: C_1  and  C_2
REMARK    2  A    between atoms: C_2  and  CA_3
REMARK    3  A    between atoms: CA_3  and  C_4
REMARK    4  A    between atoms: CA_3  and  N_6
REMARK    5  A    between atoms: C_4  and  O_5
REMARK    6  A    between atoms: N_6  and  C_7
REMARK    7  A    between atoms: C_7  and  C_8
REMARK    8  A    between atoms: C_10  and  O_11
REMARK    9  A    between atoms: O_11  and  C_12
REMARK   10  A    between atoms: C_13  and  O_14
REMARK   11  A    between atoms: O_14  and  C_15
REMARK   12  A    between atoms: C_15  and  C_16
REMARK   13  A    between atoms: N_18  and  C_19
REMARK   14  A    between atoms: C_19  and  C_20
REMARK   15  A    between atoms: C_20  and  C_21
REMARK                            x       y       z     vdW  Elec       q    Type
REMARK                         _______ _______ _______ _____ _____    ______ ____
ROOT
ATOM      1  C   UNL     1       5.799   4.889  16.962  0.00  0.00    +0.000 A 
ATOM      2  C   UNL     1       4.692   4.050  17.106  0.00  0.00    +0.000 A 
ATOM      3  C   UNL     1       3.500   4.470  17.706  0.00  0.00    +0.000 A 
ATOM      4  C   UNL     1       3.438   5.769  18.211  0.00  0.00    +0.000 A 
ATOM      5  C   UNL     1       4.556   6.598  18.173  0.00  0.00    +0.000 A 
ATOM      6  C   UNL     1       5.739   6.159  17.544  0.00  0.00    +0.000 A 
ATOM      7 BR   UNL     1       7.212   7.363  17.538  0.00  0.00    +0.000 Br
ENDROOT
BRANCH   3   8
ATOM      8  O   UNL     1       2.377   3.684  17.758  0.00  0.00    +0.000 OA
ATOM      9  C   UNL     1       2.573   2.294  17.499  0.00  0.00    +0.000 C 
ENDBRANCH   3   8
BRANCH   1  10
ATOM     10  C   UNL     1       6.983   4.354  16.178  0.00  0.00    +0.000 C 
BRANCH  10  11
ATOM     11  N   UNL     1       7.326   5.173  14.987  0.00  0.00    +0.000 NA
ATOM     12  H   UNL     1       6.666   5.951  14.944  0.00  0.00    +0.000 HD
BRANCH  11  13
ATOM     13  CA  UNL     1       7.276   4.421  13.705  0.00  0.00    +0.000 C 
BRANCH  13  15
ATOM     14  C   UNL     1       5.719   3.210  12.070  0.00  0.00    +0.000 C 
ATOM     15  C   UNL     1       5.871   3.856  13.439  0.00  0.00    +0.000 C 
ENDBRANCH  13  15
BRANCH  13  16
ATOM     16  C   UNL     1       7.770   5.343  12.561  0.00  0.00    +0.000 C 
BRANCH  16  17
ATOM     17  O   UNL     1       8.924   6.071  12.958  0.00  0.00    +0.000 OA
ATOM     18  H   UNL     1       8.784   6.286  13.901  0.00  0.00    +0.000 HD
ENDBRANCH  16  17
ENDBRANCH  13  16
ENDBRANCH  11  13
ENDBRANCH  10  11
ENDBRANCH   1  10
BRANCH   4  19
ATOM     19  O   UNL     1       2.241   6.138  18.781  0.00  0.00    +0.000 OA
BRANCH  19  20
ATOM     20  C   UNL     1       2.270   6.472  20.169  0.00  0.00    +0.000 C 
BRANCH  20  21
ATOM     21  C   UNL     1       1.667   7.857  20.382  0.00  0.00    +0.000 C 
ATOM     22  O   UNL     1       1.348   8.269  21.497  0.00  0.00    +0.000 OA
ATOM     23  N   UNL     1       1.525   8.596  19.228  0.00  0.00    +0.000 N 
ATOM     24  H   UNL     1       1.901   8.188  18.373  0.00  0.00    +0.000 HD
BRANCH  23  25
ATOM     25  C   UNL     1       1.008   9.946  19.246  0.00  0.00    +0.000 C 
BRANCH  25  26
ATOM     26  C   UNL     1       0.010  10.206  18.120  0.00  0.00    +0.000 C 
BRANCH  26  27
ATOM     27  C   UNL     1      -1.190  10.965  18.626  0.00  0.00    +0.000 A 
ATOM     28  C   UNL     1      -1.110  11.721  19.803  0.00  0.00    +0.000 A 
ATOM     29  C   UNL     1      -2.237  12.377  20.299  0.00  0.00    +0.000 A 
ATOM     30  C   UNL     1      -3.454  12.280  19.628  0.00  0.00    +0.000 A 
ATOM     31  C   UNL     1      -3.545  11.529  18.458  0.00  0.00    +0.000 A 
ATOM     32  C   UNL     1      -2.419  10.873  17.958  0.00  0.00    +0.000 A 
ENDBRANCH  26  27
ENDBRANCH  25  26
ENDBRANCH  23  25
ENDBRANCH  20  21
ENDBRANCH  19  20
ENDBRANCH   4  19
TORSDOF 13
ENDMDL
MODEL 9
REMARK VINA RESULT:      -6.9      3.627      4.950
REMARK  Name = 
REMARK  15 active torsions:
REMARK  status: ('A' for Active; 'I' for Inactive)
REMARK    1  A    between atoms: C_1  and  C_2
REMARK    2  A    between atoms: C_2  and  CA_3
REMARK    3  A    between atoms: CA_3  and  C_4
REMARK    4  A    between atoms: CA_3  and  N_6
REMARK    5  A    between atoms: C_4  and  O_5
REMARK    6  A    between atoms: N_6  and  C_7
REMARK    7  A    between atoms: C_7  and  C_8
REMARK    8  A    between atoms: C_10  and  O_11
REMARK    9  A    between atoms: O_11  and  C_12
REMARK   10  A    between atoms: C_13  and  O_14
REMARK   11  A    between atoms: O_14  and  C_15
REMARK   12  A    between atoms: C_15  and  C_16
REMARK   13  A    between atoms: N_18  and  C_19
REMARK   14  A    between atoms: C_19  and  C_20
REMARK   15  A    between atoms: C_20  and  C_21
REMARK                            x       y       z     vdW  Elec       q    Type
REMARK                         _______ _______ _______ _____ _____    ______ ____
ROOT
ATOM      1  C   UNL     1       4.037   4.739  17.005  0.00  0.00    +0.000 A 
ATOM      2  C   UNL     1       4.901   4.771  15.908  0.00  0.00    +0.000 A 
ATOM      3  C   UNL     1       6.065   5.547  15.888  0.00  0.00    +0.000 A 
ATOM      4  C   UNL     1       6.345   6.346  16.996  0.00  0.00    +0.000 A 
ATOM      5  C   UNL     1       5.453   6.414  18.064  0.00  0.00    +0.000 A 
ATOM      6  C   UNL     1       4.297   5.605  18.070  0.00  0.00    +0.000 A 
ATOM      7 BR   UNL     1       3.142   5.763  19.573  0.00  0.00    +0.000 Br
ENDROOT
BRANCH   3   8
ATOM      8  O   UNL     1       6.968   5.503  14.856  0.00  0.00    +0.000 OA
ATOM      9  C   UNL     1       6.799   4.440  13.919  0.00  0.00    +0.000 C 
ENDBRANCH   3   8
BRANCH   1  10
ATOM     10  C   UNL     1       2.880   3.758  16.953  0.00  0.00    +0.000 C 
BRANCH  10  11
ATOM     11  N   UNL     1       3.211   2.419  17.505  0.00  0.00    +0.000 NA
ATOM     12  H   UNL     1       2.584   1.740  17.070  0.00  0.00    +0.000 HD
BRANCH  11  13
ATOM     13  CA  UNL     1       3.078   2.328  18.984  0.00  0.00    +0.000 C 
BRANCH  13  15
ATOM     14  C   UNL     1       0.622   2.960  19.346  0.00  0.00    +0.000 C 
ATOM     15  C   UNL     1       1.672   1.861  19.394  0.00  0.00    +0.000 C 
ENDBRANCH  13  15
BRANCH  13  16
ATOM     16  C   UNL     1       4.194   1.403  19.534  0.00  0.00    +0.000 C 
BRANCH  16  17
ATOM     17  O   UNL     1       5.262   2.166  20.078  0.00  0.00    +0.000 OA
ATOM     18  H   UNL     1       5.824   2.407  19.316  0.00  0.00    +0.000 HD
ENDBRANCH  16  17
ENDBRANCH  13  16
ENDBRANCH  11  13
ENDBRANCH  10  11
ENDBRANCH   1  10
BRANCH   4  19
ATOM     19  O   UNL     1       7.506   7.082  16.932  0.00  0.00    +0.000 OA
BRANCH  19  20
ATOM     20  C   UNL     1       8.097   7.451  18.178  0.00  0.00    +0.000 C 
BRANCH  20  21
ATOM     21  C   UNL     1       8.306   8.962  18.225  0.00  0.00    +0.000 C 
ATOM     22  O   UNL     1       7.703   9.731  17.478  0.00  0.00    +0.000 OA
ATOM     23  N   UNL     1       9.213   9.379  19.176  0.00  0.00    +0.000 N 
ATOM     24  H   UNL     1       9.589   8.663  19.796  0.00  0.00    +0.000 HD
BRANCH  23  25
ATOM     25  C   UNL     1       9.505  10.779  19.388  0.00  0.00    +0.000 C 
BRANCH  25  26
ATOM     26  C   UNL     1       9.439  11.174  20.862  0.00  0.00    +0.000 C 
BRANCH  26  27
ATOM     27  C   UNL     1       9.785  12.629  21.047  0.00  0.00    +0.000 A 
ATOM     28  C   UNL     1      10.721  13.251  20.209  0.00  0.00    +0.000 A 
ATOM     29  C   UNL     1      11.081  14.583  20.417  0.00  0.00    +0.000 A 
ATOM     30  C   UNL     1      10.513  15.304  21.465  0.00  0.00    +0.000 A 
ATOM     31  C   UNL     1       9.582  14.695  22.304  0.00  0.00    +0.000 A 
ATOM     32  C   UNL     1       9.219  13.364  22.098  0.00  0.00    +0.000 A 
ENDBRANCH  26  27
ENDBRANCH  25  26
ENDBRANCH  23  25
ENDBRANCH  20  21
ENDBRANCH  19  20
ENDBRANCH   4  19
TORSDOF 13
ENDMDL
