MODEL 1
REMARK VINA RESULT:      -8.2      0.000      0.000
REMARK  Name = 
REMARK  8 active torsions:
REMARK  status: ('A' for Active; 'I' for Inactive)
REMARK    1  A    between atoms: C_1  and  C_2
REMARK    2  A    between atoms: C_6  and  S_7
REMARK    3  A    between atoms: S_7  and  N_10
REMARK    4  A    between atoms: N_10  and  C_11
REMARK    5  A    between atoms: C_11  and  C_12
REMARK    6  A    between atoms: C_12  and  C_13
REMARK    7  A    between atoms: C_13  and  N_14
REMARK    8  A    between atoms: C_20  and  C_21
REMARK                            x       y       z     vdW  Elec       q    Type
REMARK                         _______ _______ _______ _____ _____    ______ ____
ROOT
ATOM      1  N   UNL     1       1.939   8.101  19.155  0.00  0.00    +0.000 N 
ATOM      2  C   UNL     1       1.416   9.267  18.660  0.00  0.00    +0.000 C 
ATOM      3  N   UNL     1       1.850   9.834  17.578  0.00  0.00    +0.000 NA
ATOM      4  N   UNL     1       0.346   9.820  19.331  0.00  0.00    +0.000 N 
ATOM      5  C   UNL     1      -0.369  10.915  18.649  0.00  0.00    +0.000 C 
ATOM      6  C   UNL     1      -1.622  11.324  19.412  0.00  0.00    +0.000 C 
ATOM      7  C   UNL     1      -1.205  11.982  20.734  0.00  0.00    +0.000 C 
ATOM      8  C   UNL     1      -0.080  11.149  21.406  0.00  0.00    +0.000 C 
ATOM      9  C   UNL     1       0.142   9.753  20.786  0.00  0.00    +0.000 C 
ATOM     10  H   UNL     1       1.240   7.543  19.633  0.00  0.00    +0.000 HD
ATOM     11  H   UNL     1       2.630   9.315  17.189  0.00  0.00    +0.000 HD
ENDROOT
BRANCH   7  12
ATOM     12  C   UNL     1      -2.348  12.408  21.658  0.00  0.00    +0.000 A 
ATOM     13  C   UNL     1      -2.373  12.128  23.034  0.00  0.00    +0.000 A 
ATOM     14  C   UNL     1      -3.486  12.455  23.821  0.00  0.00    +0.000 A 
ATOM     15  C   UNL     1      -4.598  13.066  23.250  0.00  0.00    +0.000 A 
ATOM     16  C   UNL     1      -4.600  13.341  21.888  0.00  0.00    +0.000 A 
ATOM     17  C   UNL     1      -3.491  13.013  21.100  0.00  0.00    +0.000 A 
ENDBRANCH   7  12
BRANCH   1  18
ATOM     18  C   UNL     1       2.962   7.344  18.430  0.00  0.00    +0.000 C 
BRANCH  18  19
ATOM     19  C   UNL     1       2.480   6.042  17.788  0.00  0.00    +0.000 C 
BRANCH  19  20
ATOM     20  C   UNL     1       2.117   4.982  18.825  0.00  0.00    +0.000 C 
BRANCH  20  21
ATOM     21  N   UNL     1       3.319   4.550  19.556  0.00  0.00    +0.000 NA
ATOM     22  H   UNL     1       3.952   5.279  19.888  0.00  0.00    +0.000 HD
BRANCH  21  23
ATOM     23  S   UNL     1       4.177   3.229  18.929  0.00  0.00    +0.000 S 
ATOM     24  O   UNL     1       3.252   2.387  18.198  0.00  0.00    +0.000 OA
ATOM     25  O   UNL     1       4.990   2.717  20.009  0.00  0.00    +0.000 OA
BRANCH  23  31
ATOM     26  C   UNL     1       5.812   4.112  13.994  0.00  0.00    +0.000 C 
ATOM     27  C   UNL     1       5.997   4.343  15.465  0.00  0.00    +0.000 A 
ATOM     28  C   UNL     1       7.074   5.105  15.940  0.00  0.00    +0.000 A 
ATOM     29  C   UNL     1       7.256   5.304  17.309  0.00  0.00    +0.000 A 
ATOM     30  C   UNL     1       6.357   4.751  18.221  0.00  0.00    +0.000 A 
ATOM     31  C   UNL     1       5.275   3.998  17.755  0.00  0.00    +0.000 A 
ATOM     32  C   UNL     1       5.103   3.775  16.384  0.00  0.00    +0.000 A 
ENDBRANCH  23  31
ENDBRANCH  21  23
ENDBRANCH  20  21
ENDBRANCH  19  20
ENDBRANCH  18  19
ENDBRANCH   1  18
TORSDOF 7
ENDMDL
MODEL 2
REMARK VINA RESULT:      -8.0      2.953      4.383
REMARK  Name = 
REMARK  8 active torsions:
REMARK  status: ('A' for Active; 'I' for Inactive)
REMARK    1  A    between atoms: C_1  and  C_2
REMARK    2  A    between atoms: C_6  and  S_7
REMARK    3  A    between atoms: S_7  and  N_10
REMARK    4  A    between atoms: N_10  and  C_11
REMARK    5  A    between atoms: C_11  and  C_12
REMARK    6  A    between atoms: C_12  and  C_13
REMARK    7  A    between atoms: C_13  and  N_14
REMARK    8  A    between atoms: C_20  and  C_21
REMARK                            x       y       z     vdW  Elec       q    Type
REMARK                         _______ _______ _______ _____ _____    ______ ____
ROOT
ATOM      1  N   UNL     1       3.377   5.540  19.190  0.00  0.00    +0.000 N 
ATOM      2  C   UNL     1       2.318   6.048  19.894  0.00  0.00    +0.000 C 
ATOM      3  N   UNL     1       1.541   5.316  20.630  0.00  0.00    +0.000 NA
ATOM      4  N   UNL     1       2.117   7.411  19.845  0.00  0.00    +0.000 N 
ATOM      5  C   UNL     1       1.148   7.972  20.807  0.00  0.00    +0.000 C 
ATOM      6  C   UNL     1       1.139   9.495  20.766  0.00  0.00    +0.000 C 
ATOM      7  C   UNL     1       0.563   9.952  19.419  0.00  0.00    +0.000 C 
ATOM      8  C   UNL     1       1.180   9.111  18.269  0.00  0.00    +0.000 C 
ATOM      9  C   UNL     1       2.401   8.260  18.679  0.00  0.00    +0.000 C 
ATOM     10  H   UNL     1       4.138   6.207  19.111  0.00  0.00    +0.000 HD
ATOM     11  H   UNL     1       1.811   4.340  20.577  0.00  0.00    +0.000 HD
ENDROOT
BRANCH   7  12
ATOM     12  C   UNL     1       0.531  11.463  19.185  0.00  0.00    +0.000 A 
ATOM     13  C   UNL     1      -0.637  12.235  19.288  0.00  0.00    +0.000 A 
ATOM     14  C   UNL     1      -0.635  13.601  18.971  0.00  0.00    +0.000 A 
ATOM     15  C   UNL     1       0.533  14.224  18.542  0.00  0.00    +0.000 A 
ATOM     16  C   UNL     1       1.699  13.476  18.422  0.00  0.00    +0.000 A 
ATOM     17  C   UNL     1       1.697  12.112  18.734  0.00  0.00    +0.000 A 
ENDBRANCH   7  12
BRANCH   1  18
ATOM     18  C   UNL     1       3.781   4.136  19.306  0.00  0.00    +0.000 C 
BRANCH  18  19
ATOM     19  C   UNL     1       3.395   3.245  18.124  0.00  0.00    +0.000 C 
BRANCH  19  20
ATOM     20  C   UNL     1       4.418   3.304  16.993  0.00  0.00    +0.000 C 
BRANCH  20  21
ATOM     21  N   UNL     1       4.462   4.657  16.414  0.00  0.00    +0.000 NA
ATOM     22  H   UNL     1       3.651   4.961  15.875  0.00  0.00    +0.000 HD
BRANCH  21  23
ATOM     23  S   UNL     1       5.909   5.138  15.673  0.00  0.00    +0.000 S 
ATOM     24  O   UNL     1       5.607   6.177  14.711  0.00  0.00    +0.000 OA
ATOM     25  O   UNL     1       6.602   3.925  15.299  0.00  0.00    +0.000 OA
BRANCH  23  31
ATOM     26  C   UNL     1       8.273   9.249  17.977  0.00  0.00    +0.000 C 
ATOM     27  C   UNL     1       7.909   7.794  18.017  0.00  0.00    +0.000 A 
ATOM     28  C   UNL     1       8.334   6.979  19.075  0.00  0.00    +0.000 A 
ATOM     29  C   UNL     1       8.011   5.622  19.102  0.00  0.00    +0.000 A 
ATOM     30  C   UNL     1       7.250   5.064  18.074  0.00  0.00    +0.000 A 
ATOM     31  C   UNL     1       6.814   5.873  17.020  0.00  0.00    +0.000 A 
ATOM     32  C   UNL     1       7.156   7.229  16.977  0.00  0.00    +0.000 A 
ENDBRANCH  23  31
ENDBRANCH  21  23
ENDBRANCH  20  21
ENDBRANCH  19  20
ENDBRANCH  18  19
ENDBRANCH   1  18
TORSDOF 7
ENDMDL
MODEL 3
REMARK VINA RESULT:      -8.0      4.005     10.699
REMARK  Name = 
REMARK  8 active torsions:
REMARK  status: ('A' for Active; 'I' for Inactive)
REMARK    1  A    between atoms: C_1  and  C_2
REMARK    2  A    between atoms: C_6  and  S_7
REMARK    3  A    between atoms: S_7  and  N_10
REMARK    4  A    between atoms: N_10  and  C_11
REMARK    5  A    between atoms: C_11  and  C_12
REMARK    6  A    between atoms: C_12  and  C_13
REMARK    7  A    between atoms: C_13  and  N_14
REMARK    8  A    between atoms: C_20  and  C_21
REMARK                            x       y       z     vdW  Elec       q    Type
REMARK                         _______ _______ _______ _____ _____    ______ ____
ROOT
ATOM      1  N   UNL     1       2.153   7.112  19.970  0.00  0.00    +0.000 N 
ATOM      2  C   UNL     1       2.696   5.866  19.804  0.00  0.00    +0.000 C 
ATOM      3  N   UNL     1       2.687   4.960  20.731  0.00  0.00    +0.000 NA
ATOM      4  N   UNL     1       3.228   5.564  18.568  0.00  0.00    +0.000 N 
ATOM      5  C   UNL     1       3.566   4.149  18.321  0.00  0.00    +0.000 C 
ATOM      6  C   UNL     1       3.985   3.919  16.874  0.00  0.00    +0.000 C 
ATOM      7  C   UNL     1       5.327   4.622  16.628  0.00  0.00    +0.000 C 
ATOM      8  C   UNL     1       5.298   6.045  17.250  0.00  0.00    +0.000 C 
ATOM      9  C   UNL     1       3.898   6.529  17.683  0.00  0.00    +0.000 C 
ATOM     10  H   UNL     1       1.779   7.484  19.103  0.00  0.00    +0.000 HD
ATOM     11  H   UNL     1       2.260   5.318  21.578  0.00  0.00    +0.000 HD
ENDROOT
BRANCH   7  12
ATOM     12  C   UNL     1       5.872   4.540  15.202  0.00  0.00    +0.000 A 
ATOM     13  C   UNL     1       5.298   3.738  14.202  0.00  0.00    +0.000 A 
ATOM     14  C   UNL     1       5.889   3.622  12.936  0.00  0.00    +0.000 A 
ATOM     15  C   UNL     1       7.067   4.302  12.642  0.00  0.00    +0.000 A 
ATOM     16  C   UNL     1       7.659   5.093  13.621  0.00  0.00    +0.000 A 
ATOM     17  C   UNL     1       7.071   5.207  14.886  0.00  0.00    +0.000 A 
ENDBRANCH   7  12
BRANCH   1  18
ATOM     18  C   UNL     1       1.415   7.479  21.181  0.00  0.00    +0.000 C 
BRANCH  18  19
ATOM     19  C   UNL     1       1.203   8.980  21.390  0.00  0.00    +0.000 C 
BRANCH  19  20
ATOM     20  C   UNL     1      -0.224   9.415  21.067  0.00  0.00    +0.000 C 
BRANCH  20  21
ATOM     21  N   UNL     1      -0.302   9.929  19.690  0.00  0.00    +0.000 NA
ATOM     22  H   UNL     1       0.475   9.712  19.065  0.00  0.00    +0.000 HD
BRANCH  21  23
ATOM     23  S   UNL     1      -0.828  11.528  19.486  0.00  0.00    +0.000 S 
ATOM     24  O   UNL     1       0.201  12.261  18.778  0.00  0.00    +0.000 OA
ATOM     25  O   UNL     1      -1.332  11.961  20.771  0.00  0.00    +0.000 OA
BRANCH  23  31
ATOM     26  C   UNL     1      -2.964  10.187  14.856  0.00  0.00    +0.000 C 
ATOM     27  C   UNL     1      -3.148  10.738  16.240  0.00  0.00    +0.000 A 
ATOM     28  C   UNL     1      -4.405  11.180  16.672  0.00  0.00    +0.000 A 
ATOM     29  C   UNL     1      -4.572  11.709  17.952  0.00  0.00    +0.000 A 
ATOM     30  C   UNL     1      -3.484  11.794  18.821  0.00  0.00    +0.000 A 
ATOM     31  C   UNL     1      -2.228  11.345  18.400  0.00  0.00    +0.000 A 
ATOM     32  C   UNL     1      -2.052  10.836  17.108  0.00  0.00    +0.000 A 
ENDBRANCH  23  31
ENDBRANCH  21  23
ENDBRANCH  20  21
ENDBRANCH  19  20
ENDBRANCH  18  19
ENDBRANCH   1  18
TORSDOF 7
ENDMDL
MODEL 4
REMARK VINA RESULT:      -8.0      0.715      1.108
REMARK  Name = 
REMARK  8 active torsions:
REMARK  status: ('A' for Active; 'I' for Inactive)
REMARK    1  A    between atoms: C_1  and  C_2
REMARK    2  A    between atoms: C_6  and  S_7
REMARK    3  A    between atoms: S_7  and  N_10
REMARK    4  A    between atoms: N_10  and  C_11
REMARK    5  A    between atoms: C_11  and  C_12
REMARK    6  A    between atoms: C_12  and  C_13
REMARK    7  A    between atoms: C_13  and  N_14
REMARK    8  A    between atoms: C_20  and  C_21
REMARK                            x       y       z     vdW  Elec       q    Type
REMARK                         _______ _______ _______ _____ _____    ______ ____
ROOT
ATOM      1  N   UNL     1       1.580   8.734  19.027  0.00  0.00    +0.000 N 
ATOM      2  C   UNL     1       1.176  10.011  18.741  0.00  0.00    +0.000 C 
ATOM      3  N   UNL     1       1.730  10.741  17.825  0.00  0.00    +0.000 NA
ATOM      4  N   UNL     1       0.094  10.507  19.438  0.00  0.00    +0.000 N 
ATOM      5  C   UNL     1      -0.493  11.767  18.942  0.00  0.00    +0.000 C 
ATOM      6  C   UNL     1      -1.773  12.119  19.688  0.00  0.00    +0.000 C 
ATOM      7  C   UNL     1      -1.420  12.473  21.140  0.00  0.00    +0.000 C 
ATOM      8  C   UNL     1      -0.409  11.439  21.703  0.00  0.00    +0.000 C 
ATOM      9  C   UNL     1      -0.229  10.176  20.834  0.00  0.00    +0.000 C 
ATOM     10  H   UNL     1       0.811   8.151  19.338  0.00  0.00    +0.000 HD
ATOM     11  H   UNL     1       2.503  10.248  17.391  0.00  0.00    +0.000 HD
ENDROOT
BRANCH   7  12
ATOM     12  C   UNL     1      -2.603  12.801  22.053  0.00  0.00    +0.000 A 
ATOM     13  C   UNL     1      -3.496  13.857  21.809  0.00  0.00    +0.000 A 
ATOM     14  C   UNL     1      -4.507  14.178  22.725  0.00  0.00    +0.000 A 
ATOM     15  C   UNL     1      -4.648  13.452  23.904  0.00  0.00    +0.000 A 
ATOM     16  C   UNL     1      -3.768  12.410  24.171  0.00  0.00    +0.000 A 
ATOM     17  C   UNL     1      -2.755  12.091  23.260  0.00  0.00    +0.000 A 
ENDBRANCH   7  12
BRANCH   1  18
ATOM     18  C   UNL     1       2.606   8.053  18.235  0.00  0.00    +0.000 C 
BRANCH  18  19
ATOM     19  C   UNL     1       2.494   6.528  18.191  0.00  0.00    +0.000 C 
BRANCH  19  20
ATOM     20  C   UNL     1       2.523   5.903  19.583  0.00  0.00    +0.000 C 
BRANCH  20  21
ATOM     21  N   UNL     1       3.828   5.268  19.830  0.00  0.00    +0.000 NA
ATOM     22  H   UNL     1       4.654   5.868  19.797  0.00  0.00    +0.000 HD
BRANCH  21  23
ATOM     23  S   UNL     1       4.121   3.776  19.079  0.00  0.00    +0.000 S 
ATOM     24  O   UNL     1       2.894   3.332  18.450  0.00  0.00    +0.000 OA
ATOM     25  O   UNL     1       4.826   2.962  20.044  0.00  0.00    +0.000 OA
BRANCH  23  31
ATOM     26  C   UNL     1       5.523   4.081  14.006  0.00  0.00    +0.000 C 
ATOM     27  C   UNL     1       5.879   4.293  15.448  0.00  0.00    +0.000 A 
ATOM     28  C   UNL     1       7.150   4.762  15.809  0.00  0.00    +0.000 A 
ATOM     29  C   UNL     1       7.487   4.942  17.151  0.00  0.00    +0.000 A 
ATOM     30  C   UNL     1       6.554   4.663  18.149  0.00  0.00    +0.000 A 
ATOM     31  C   UNL     1       5.281   4.204  17.797  0.00  0.00    +0.000 A 
ATOM     32  C   UNL     1       4.947   4.000  16.453  0.00  0.00    +0.000 A 
ENDBRANCH  23  31
ENDBRANCH  21  23
ENDBRANCH  20  21
ENDBRANCH  19  20
ENDBRANCH  18  19
ENDBRANCH   1  18
TORSDOF 7
ENDMDL
MODEL 5
REMARK VINA RESULT:      -7.9      1.008      1.044
REMARK  Name = 
REMARK  8 active torsions:
REMARK  status: ('A' for Active; 'I' for Inactive)
REMARK    1  A    between atoms: C_1  and  C_2
REMARK    2  A    between atoms: C_6  and  S_7
REMARK    3  A    between atoms: S_7  and  N_10
REMARK    4  A    between atoms: N_10  and  C_11
REMARK    5  A    between atoms: C_11  and  C_12
REMARK    6  A    between atoms: C_12  and  C_13
REMARK    7  A    between atoms: C_13  and  N_14
REMARK    8  A    between atoms: C_20  and  C_21
REMARK                            x       y       z     vdW  Elec       q    Type
REMARK                         _______ _______ _______ _____ _____    ______ ____
ROOT
ATOM      1  N   UNL     1       1.388   9.013  18.506  0.00  0.00    +0.000 N 
ATOM      2  C   UNL     1       1.199  10.369  18.519  0.00  0.00    +0.000 C 
ATOM      3  N   UNL     1       1.925  11.192  17.830  0.00  0.00    +0.000 NA
ATOM      4  N   UNL     1       0.149  10.857  19.268  0.00  0.00    +0.000 N 
ATOM      5  C   UNL     1      -0.205  12.276  19.067  0.00  0.00    +0.000 C 
ATOM      6  C   UNL     1      -1.476  12.646  19.820  0.00  0.00    +0.000 C 
ATOM      7  C   UNL     1      -1.193  12.593  21.327  0.00  0.00    +0.000 C 
ATOM      8  C   UNL     1      -0.391  11.307  21.668  0.00  0.00    +0.000 C 
ATOM      9  C   UNL     1      -0.329  10.268  20.527  0.00  0.00    +0.000 C 
ATOM     10  H   UNL     1       0.519   8.505  18.633  0.00  0.00    +0.000 HD
ATOM     11  H   UNL     1       2.650  10.695  17.324  0.00  0.00    +0.000 HD
ENDROOT
BRANCH   7  12
ATOM     12  C   UNL     1      -2.383  12.886  22.241  0.00  0.00    +0.000 A 
ATOM     13  C   UNL     1      -2.711  12.100  23.358  0.00  0.00    +0.000 A 
ATOM     14  C   UNL     1      -3.867  12.352  24.109  0.00  0.00    +0.000 A 
ATOM     15  C   UNL     1      -4.722  13.394  23.761  0.00  0.00    +0.000 A 
ATOM     16  C   UNL     1      -4.423  14.178  22.652  0.00  0.00    +0.000 A 
ATOM     17  C   UNL     1      -3.272  13.925  21.899  0.00  0.00    +0.000 A 
ENDBRANCH   7  12
BRANCH   1  18
ATOM     18  C   UNL     1       2.364   8.377  17.616  0.00  0.00    +0.000 C 
BRANCH  18  19
ATOM     19  C   UNL     1       3.333   7.406  18.294  0.00  0.00    +0.000 C 
BRANCH  19  20
ATOM     20  C   UNL     1       2.658   6.579  19.385  0.00  0.00    +0.000 C 
BRANCH  20  21
ATOM     21  N   UNL     1       3.562   5.516  19.853  0.00  0.00    +0.000 NA
ATOM     22  H   UNL     1       4.502   5.793  20.138  0.00  0.00    +0.000 HD
BRANCH  21  23
ATOM     23  S   UNL     1       3.590   4.073  18.963  0.00  0.00    +0.000 S 
ATOM     24  O   UNL     1       2.379   3.999  18.171  0.00  0.00    +0.000 OA
ATOM     25  O   UNL     1       3.966   3.027  19.888  0.00  0.00    +0.000 OA
BRANCH  23  31
ATOM     26  C   UNL     1       5.710   4.115  14.136  0.00  0.00    +0.000 C 
ATOM     27  C   UNL     1       5.889   4.296  15.614  0.00  0.00    +0.000 A 
ATOM     28  C   UNL     1       7.149   4.593  16.151  0.00  0.00    +0.000 A 
ATOM     29  C   UNL     1       7.318   4.743  17.528  0.00  0.00    +0.000 A 
ATOM     30  C   UNL     1       6.226   4.608  18.385  0.00  0.00    +0.000 A 
ATOM     31  C   UNL     1       4.964   4.321  17.857  0.00  0.00    +0.000 A 
ATOM     32  C   UNL     1       4.795   4.146  16.478  0.00  0.00    +0.000 A 
ENDBRANCH  23  31
ENDBRANCH  21  23
ENDBRANCH  20  21
ENDBRANCH  19  20
ENDBRANCH  18  19
ENDBRANCH   1  18
TORSDOF 7
ENDMDL
MODEL 6
REMARK VINA RESULT:      -7.9      1.270      1.920
REMARK  Name = 
REMARK  8 active torsions:
REMARK  status: ('A' for Active; 'I' for Inactive)
REMARK    1  A    between atoms: C_1  and  C_2
REMARK    2  A    between atoms: C_6  and  S_7
REMARK    3  A    between atoms: S_7  and  N_10
REMARK    4  A    between atoms: N_10  and  C_11
REMARK    5  A    between atoms: C_11  and  C_12
REMARK    6  A    between atoms: C_12  and  C_13
REMARK    7  A    between atoms: C_13  and  N_14
REMARK    8  A    between atoms: C_20  and  C_21
REMARK                            x       y       z     vdW  Elec       q    Type
REMARK                         _______ _______ _______ _____ _____    ______ ____
ROOT
ATOM      1  N   UNL     1       1.306   9.273  18.800  0.00  0.00    +0.000 N 
ATOM      2  C   UNL     1       0.953  10.596  18.797  0.00  0.00    +0.000 C 
ATOM      3  N   UNL     1       1.595  11.499  18.124  0.00  0.00    +0.000 NA
ATOM      4  N   UNL     1      -0.171  10.957  19.511  0.00  0.00    +0.000 N 
ATOM      5  C   UNL     1      -0.687  12.321  19.288  0.00  0.00    +0.000 C 
ATOM      6  C   UNL     1      -2.016  12.538  20.001  0.00  0.00    +0.000 C 
ATOM      7  C   UNL     1      -1.774  12.525  21.516  0.00  0.00    +0.000 C 
ATOM      8  C   UNL     1      -0.834  11.347  21.890  0.00  0.00    +0.000 C 
ATOM      9  C   UNL     1      -0.612  10.319  20.760  0.00  0.00    +0.000 C 
ATOM     10  H   UNL     1       0.501   8.664  18.905  0.00  0.00    +0.000 HD
ATOM     11  H   UNL     1       2.390  11.091  17.644  0.00  0.00    +0.000 HD
ENDROOT
BRANCH   7  12
ATOM     12  C   UNL     1      -3.019  12.676  22.392  0.00  0.00    +0.000 A 
ATOM     13  C   UNL     1      -3.044  12.356  23.760  0.00  0.00    +0.000 A 
ATOM     14  C   UNL     1      -4.233  12.420  24.499  0.00  0.00    +0.000 A 
ATOM     15  C   UNL     1      -5.423  12.803  23.888  0.00  0.00    +0.000 A 
ATOM     16  C   UNL     1      -5.425  13.113  22.532  0.00  0.00    +0.000 A 
ATOM     17  C   UNL     1      -4.239  13.046  21.793  0.00  0.00    +0.000 A 
ENDBRANCH   7  12
BRANCH   1  18
ATOM     18  C   UNL     1       2.377   8.757  17.945  0.00  0.00    +0.000 C 
BRANCH  18  19
ATOM     19  C   UNL     1       2.882   7.357  18.301  0.00  0.00    +0.000 C 
BRANCH  19  20
ATOM     20  C   UNL     1       2.199   6.792  19.543  0.00  0.00    +0.000 C 
BRANCH  20  21
ATOM     21  N   UNL     1       3.024   5.728  20.140  0.00  0.00    +0.000 NA
ATOM     22  H   UNL     1       3.927   6.000  20.530  0.00  0.00    +0.000 HD
BRANCH  21  23
ATOM     23  S   UNL     1       3.135   4.264  19.293  0.00  0.00    +0.000 S 
ATOM     24  O   UNL     1       2.081   4.228  18.300  0.00  0.00    +0.000 OA
ATOM     25  O   UNL     1       3.288   3.225  20.286  0.00  0.00    +0.000 OA
BRANCH  23  31
ATOM     26  C   UNL     1       8.118   5.967  19.016  0.00  0.00    +0.000 C 
ATOM     27  C   UNL     1       6.970   5.254  18.363  0.00  0.00    +0.000 A 
ATOM     28  C   UNL     1       7.083   4.763  17.055  0.00  0.00    +0.000 A 
ATOM     29  C   UNL     1       6.010   4.116  16.443  0.00  0.00    +0.000 A 
ATOM     30  C   UNL     1       4.811   3.943  17.135  0.00  0.00    +0.000 A 
ATOM     31  C   UNL     1       4.694   4.420  18.444  0.00  0.00    +0.000 A 
ATOM     32  C   UNL     1       5.760   5.091  19.053  0.00  0.00    +0.000 A 
ENDBRANCH  23  31
ENDBRANCH  21  23
ENDBRANCH  20  21
ENDBRANCH  19  20
ENDBRANCH  18  19
ENDBRANCH   1  18
TORSDOF 7
ENDMDL
MODEL 7
REMARK VINA RESULT:      -7.9      2.272      3.467
REMARK  Name = 
REMARK  8 active torsions:
REMARK  status: ('A' for Active; 'I' for Inactive)
REMARK    1  A    between atoms: C_1  and  C_2
REMARK    2  A    between atoms: C_6  and  S_7
REMARK    3  A    between atoms: S_7  and  N_10
REMARK    4  A    between atoms: N_10  and  C_11
REMARK    5  A    between atoms: C_11  and  C_12
REMARK    6  A    between atoms: C_12  and  C_13
REMARK    7  A    between atoms: C_13  and  N_14
REMARK    8  A    between atoms: C_20  and  C_21
REMARK                            x       y       z     vdW  Elec       q    Type
REMARK                         _______ _______ _______ _____ _____    ______ ____
ROOT
ATOM      1  N   UNL     1       1.343   9.240  18.703  0.00  0.00    +0.000 N 
ATOM      2  C   UNL     1       0.992  10.563  18.750  0.00  0.00    +0.000 C 
ATOM      3  N   UNL     1       1.659  11.495  18.145  0.00  0.00    +0.000 NA
ATOM      4  N   UNL     1      -0.157  10.892  19.438  0.00  0.00    +0.000 N 
ATOM      5  C   UNL     1      -0.664  12.267  19.262  0.00  0.00    +0.000 C 
ATOM      6  C   UNL     1      -2.018  12.453  19.934  0.00  0.00    +0.000 C 
ATOM      7  C   UNL     1      -1.833  12.368  21.455  0.00  0.00    +0.000 C 
ATOM      8  C   UNL     1      -0.908  11.171  21.807  0.00  0.00    +0.000 C 
ATOM      9  C   UNL     1      -0.645  10.197  20.638  0.00  0.00    +0.000 C 
ATOM     10  H   UNL     1       0.534   8.629  18.749  0.00  0.00    +0.000 HD
ATOM     11  H   UNL     1       2.471  11.108  17.676  0.00  0.00    +0.000 HD
ENDROOT
BRANCH   7  12
ATOM     12  C   UNL     1      -3.109  12.480  22.290  0.00  0.00    +0.000 A 
ATOM     13  C   UNL     1      -4.370  12.761  21.739  0.00  0.00    +0.000 A 
ATOM     14  C   UNL     1      -5.494  12.949  22.555  0.00  0.00    +0.000 A 
ATOM     15  C   UNL     1      -5.382  12.861  23.940  0.00  0.00    +0.000 A 
ATOM     16  C   UNL     1      -4.142  12.595  24.508  0.00  0.00    +0.000 A 
ATOM     17  C   UNL     1      -3.018  12.412  23.695  0.00  0.00    +0.000 A 
ENDBRANCH   7  12
BRANCH   1  18
ATOM     18  C   UNL     1       2.445   8.762  17.865  0.00  0.00    +0.000 C 
BRANCH  18  19
ATOM     19  C   UNL     1       2.543   7.243  17.716  0.00  0.00    +0.000 C 
BRANCH  19  20
ATOM     20  C   UNL     1       3.582   6.633  18.653  0.00  0.00    +0.000 C 
BRANCH  20  21
ATOM     21  N   UNL     1       4.690   6.053  17.877  0.00  0.00    +0.000 NA
ATOM     22  H   UNL     1       4.821   6.391  16.923  0.00  0.00    +0.000 HD
BRANCH  21  23
ATOM     23  S   UNL     1       4.907   4.374  17.969  0.00  0.00    +0.000 S 
ATOM     24  O   UNL     1       5.923   4.097  18.965  0.00  0.00    +0.000 OA
ATOM     25  O   UNL     1       5.019   3.898  16.608  0.00  0.00    +0.000 OA
BRANCH  23  31
ATOM     26  C   UNL     1       1.840   2.643  21.893  0.00  0.00    +0.000 C 
ATOM     27  C   UNL     1       1.987   2.992  20.442  0.00  0.00    +0.000 A 
ATOM     28  C   UNL     1       0.919   2.814  19.552  0.00  0.00    +0.000 A 
ATOM     29  C   UNL     1       1.062   3.121  18.198  0.00  0.00    +0.000 A 
ATOM     30  C   UNL     1       2.273   3.620  17.719  0.00  0.00    +0.000 A 
ATOM     31  C   UNL     1       3.340   3.810  18.602  0.00  0.00    +0.000 A 
ATOM     32  C   UNL     1       3.208   3.480  19.956  0.00  0.00    +0.000 A 
ENDBRANCH  23  31
ENDBRANCH  21  23
ENDBRANCH  20  21
ENDBRANCH  19  20
ENDBRANCH  18  19
ENDBRANCH   1  18
TORSDOF 7
ENDMDL
MODEL 8
REMARK VINA RESULT:      -7.8      4.568     10.523
REMARK  Name = 
REMARK  8 active torsions:
REMARK  status: ('A' for Active; 'I' for Inactive)
REMARK    1  A    between atoms: C_1  and  C_2
REMARK    2  A    between atoms: C_6  and  S_7
REMARK    3  A    between atoms: S_7  and  N_10
REMARK    4  A    between atoms: N_10  and  C_11
REMARK    5  A    between atoms: C_11  and  C_12
REMARK    6  A    between atoms: C_12  and  C_13
REMARK    7  A    between atoms: C_13  and  N_14
REMARK    8  A    between atoms: C_20  and  C_21
REMARK                            x       y       z     vdW  Elec       q    Type
REMARK                         _______ _______ _______ _____ _____    ______ ____
ROOT
ATOM      1  N   UNL     1       0.696  11.026  19.221  0.00  0.00    +0.000 N 
ATOM      2  C   UNL     1       1.100  10.157  20.199  0.00  0.00    +0.000 C 
ATOM      3  N   UNL     1       1.266  10.510  21.435  0.00  0.00    +0.000 NA
ATOM      4  N   UNL     1       1.285   8.838  19.842  0.00  0.00    +0.000 N 
ATOM      5  C   UNL     1       1.459   7.871  20.943  0.00  0.00    +0.000 C 
ATOM      6  C   UNL     1       1.486   6.438  20.428  0.00  0.00    +0.000 C 
ATOM      7  C   UNL     1       2.766   6.229  19.607  0.00  0.00    +0.000 C 
ATOM      8  C   UNL     1       2.985   7.438  18.657  0.00  0.00    +0.000 C 
ATOM      9  C   UNL     1       1.771   8.384  18.530  0.00  0.00    +0.000 C 
ATOM     10  H   UNL     1       0.141  10.566  18.507  0.00  0.00    +0.000 HD
ATOM     11  H   UNL     1       1.088  11.501  21.553  0.00  0.00    +0.000 HD
ENDROOT
BRANCH   7  12
ATOM     12  C   UNL     1       2.929   4.851  18.965  0.00  0.00    +0.000 A 
ATOM     13  C   UNL     1       2.216   4.441  17.827  0.00  0.00    +0.000 A 
ATOM     14  C   UNL     1       2.329   3.134  17.331  0.00  0.00    +0.000 A 
ATOM     15  C   UNL     1       3.155   2.209  17.962  0.00  0.00    +0.000 A 
ATOM     16  C   UNL     1       3.862   2.590  19.098  0.00  0.00    +0.000 A 
ATOM     17  C   UNL     1       3.747   3.893  19.595  0.00  0.00    +0.000 A 
ENDBRANCH   7  12
BRANCH   1  18
ATOM     18  C   UNL     1       0.311  12.406  19.524  0.00  0.00    +0.000 C 
BRANCH  18  19
ATOM     19  C   UNL     1      -0.803  12.983  18.647  0.00  0.00    +0.000 C 
BRANCH  19  20
ATOM     20  C   UNL     1      -1.946  11.995  18.436  0.00  0.00    +0.000 C 
BRANCH  20  21
ATOM     21  N   UNL     1      -2.274  11.891  17.005  0.00  0.00    +0.000 NA
ATOM     22  H   UNL     1      -2.405  12.763  16.491  0.00  0.00    +0.000 HD
BRANCH  21  23
ATOM     23  S   UNL     1      -3.426  10.732  16.554  0.00  0.00    +0.000 S 
ATOM     24  O   UNL     1      -3.079   9.472  17.181  0.00  0.00    +0.000 OA
ATOM     25  O   UNL     1      -3.595  10.855  15.123  0.00  0.00    +0.000 OA
BRANCH  23  31
ATOM     26  C   UNL     1      -7.259  10.403  20.160  0.00  0.00    +0.000 C 
ATOM     27  C   UNL     1      -6.666  11.120  18.983  0.00  0.00    +0.000 A 
ATOM     28  C   UNL     1      -7.310  12.234  18.426  0.00  0.00    +0.000 A 
ATOM     29  C   UNL     1      -6.767  12.890  17.320  0.00  0.00    +0.000 A 
ATOM     30  C   UNL     1      -5.568  12.445  16.763  0.00  0.00    +0.000 A 
ATOM     31  C   UNL     1      -4.915  11.341  17.319  0.00  0.00    +0.000 A 
ATOM     32  C   UNL     1      -5.468  10.666  18.413  0.00  0.00    +0.000 A 
ENDBRANCH  23  31
ENDBRANCH  21  23
ENDBRANCH  20  21
ENDBRANCH  19  20
ENDBRANCH  18  19
ENDBRANCH   1  18
TORSDOF 7
ENDMDL
MODEL 9
REMARK VINA RESULT:      -7.7      1.839      3.012
REMARK  Name = 
REMARK  8 active torsions:
REMARK  status: ('A' for Active; 'I' for Inactive)
REMARK    1  A    between atoms: C_1  and  C_2
REMARK    2  A    between atoms: C_6  and  S_7
REMARK    3  A    between atoms: S_7  and  N_10
REMARK    4  A    between atoms: N_10  and  C_11
REMARK    5  A    between atoms: C_11  and  C_12
REMARK    6  A    between atoms: C_12  and  C_13
REMARK    7  A    between atoms: C_13  and  N_14
REMARK    8  A    between atoms: C_20  and  C_21
REMARK                            x       y       z     vdW  Elec       q    Type
REMARK                         _______ _______ _______ _____ _____    ______ ____
ROOT
ATOM      1  N   UNL     1       1.582   5.788  21.163  0.00  0.00    +0.000 N 
ATOM      2  C   UNL     1       2.068   6.743  20.310  0.00  0.00    +0.000 C 
ATOM      3  N   UNL     1       3.136   6.576  19.595  0.00  0.00    +0.000 NA
ATOM      4  N   UNL     1       1.346   7.910  20.184  0.00  0.00    +0.000 N 
ATOM      5  C   UNL     1       1.729   8.811  19.079  0.00  0.00    +0.000 C 
ATOM      6  C   UNL     1       0.756   9.975  18.945  0.00  0.00    +0.000 C 
ATOM      7  C   UNL     1       0.900  10.886  20.171  0.00  0.00    +0.000 C 
ATOM      8  C   UNL     1       0.965  10.026  21.462  0.00  0.00    +0.000 C 
ATOM      9  C   UNL     1       0.578   8.544  21.267  0.00  0.00    +0.000 C 
ATOM     10  H   UNL     1       0.570   5.820  21.235  0.00  0.00    +0.000 HD
ATOM     11  H   UNL     1       3.557   5.672  19.784  0.00  0.00    +0.000 HD
ENDROOT
BRANCH   7  12
ATOM     12  C   UNL     1      -0.048  12.085  20.227  0.00  0.00    +0.000 A 
ATOM     13  C   UNL     1       0.062  13.196  19.375  0.00  0.00    +0.000 A 
ATOM     14  C   UNL     1      -0.771  14.313  19.527  0.00  0.00    +0.000 A 
ATOM     15  C   UNL     1      -1.731  14.345  20.535  0.00  0.00    +0.000 A 
ATOM     16  C   UNL     1      -1.850  13.261  21.397  0.00  0.00    +0.000 A 
ATOM     17  C   UNL     1      -1.016  12.147  21.248  0.00  0.00    +0.000 A 
ENDBRANCH   7  12
BRANCH   1  18
ATOM     18  C   UNL     1       2.176   4.451  21.246  0.00  0.00    +0.000 C 
BRANCH  18  19
ATOM     19  C   UNL     1       1.228   3.293  20.929  0.00  0.00    +0.000 C 
BRANCH  19  20
ATOM     20  C   UNL     1       1.389   2.785  19.499  0.00  0.00    +0.000 C 
BRANCH  20  21
ATOM     21  N   UNL     1       2.434   3.551  18.800  0.00  0.00    +0.000 NA
ATOM     22  H   UNL     1       2.150   4.090  17.981  0.00  0.00    +0.000 HD
BRANCH  21  23
ATOM     23  S   UNL     1       3.922   2.780  18.543  0.00  0.00    +0.000 S 
ATOM     24  O   UNL     1       3.736   1.747  17.545  0.00  0.00    +0.000 OA
ATOM     25  O   UNL     1       4.467   2.492  19.851  0.00  0.00    +0.000 OA
BRANCH  23  31
ATOM     26  C   UNL     1       7.876   6.260  18.773  0.00  0.00    +0.000 C 
ATOM     27  C   UNL     1       6.730   5.673  18.002  0.00  0.00    +0.000 A 
ATOM     28  C   UNL     1       6.381   6.178  16.743  0.00  0.00    +0.000 A 
ATOM     29  C   UNL     1       5.304   5.644  16.034  0.00  0.00    +0.000 A 
ATOM     30  C   UNL     1       4.567   4.590  16.574  0.00  0.00    +0.000 A 
ATOM     31  C   UNL     1       4.915   4.073  17.826  0.00  0.00    +0.000 A 
ATOM     32  C   UNL     1       5.980   4.623  18.550  0.00  0.00    +0.000 A 
ENDBRANCH  23  31
ENDBRANCH  21  23
ENDBRANCH  20  21
ENDBRANCH  19  20
ENDBRANCH  18  19
ENDBRANCH   1  18
TORSDOF 7
ENDMDL
