MODEL 1
REMARK VINA RESULT:      -8.5      0.000      0.000
REMARK  Name = 
REMARK  7 active torsions:
REMARK  status: ('A' for Active; 'I' for Inactive)
REMARK    1  A    between atoms: C_1  and  C_2
REMARK    2  A    between atoms: C_2  and  C_3
REMARK    3  A    between atoms: C_3  and  C_5
REMARK    4  A    between atoms: C_6  and  O_7
REMARK    5  A    between atoms: C_6  and  C_8
REMARK    6  A    between atoms: N_17  and  C_18
REMARK    7  A    between atoms: C_18  and  C_19
REMARK                            x       y       z     vdW  Elec       q    Type
REMARK                         _______ _______ _______ _____ _____    ______ ____
ROOT
ATOM      1  C   UNL     1       5.722   4.309  15.128  0.00  0.00    +0.000 C 
ATOM      2  C   UNL     1       5.682   5.175  16.401  0.00  0.00    +0.000 C 
ATOM      3  C   UNL     1       5.067   4.323  17.538  0.00  0.00    +0.000 C 
ATOM      4  C   UNL     1       4.683   5.155  18.767  0.00  0.00    +0.000 C 
ATOM      5  N   UNL     1       3.820   6.303  18.447  0.00  0.00    +0.000 NA
ATOM      6  C   UNL     1       4.482   7.165  17.463  0.00  0.00    +0.000 C 
ATOM      7  C   UNL     1       4.824   6.436  16.157  0.00  0.00    +0.000 C 
ENDROOT
BRANCH   2   8
ATOM      8  C   UNL     1       7.126   5.577  16.770  0.00  0.00    +0.000 C 
ATOM      9  O   UNL     1       8.040   4.758  16.888  0.00  0.00    +0.000 OA
BRANCH   8  10
ATOM     10  C   UNL     1       7.428   7.022  16.979  0.00  0.00    +0.000 C 
ATOM     11  C   UNL     1       7.959   7.486  18.124  0.00  0.00    +0.000 C 
BRANCH  11  12
ATOM     12  C   UNL     1       8.338   8.905  18.287  0.00  0.00    +0.000 A 
ATOM     13  C   UNL     1       7.912   9.907  17.399  0.00  0.00    +0.000 A 
ATOM     14  C   UNL     1       8.352  11.228  17.542  0.00  0.00    +0.000 A 
ATOM     15  C   UNL     1       9.207  11.562  18.588  0.00  0.00    +0.000 A 
ATOM     16 CL   UNL     1       9.769  13.180  18.748  0.00  0.00    +0.000 Cl
ATOM     17  C   UNL     1       9.612  10.594  19.501  0.00  0.00    +0.000 A 
ATOM     18  C   UNL     1       9.178   9.275  19.351  0.00  0.00    +0.000 A 
ENDBRANCH  11  12
BRANCH  11  19
ATOM     19  O   UNL     1       8.264   6.677  19.200  0.00  0.00    +0.000 OA
ATOM     20  H   UNL     1       9.028   6.111  18.949  0.00  0.00    +0.000 HD
ENDBRANCH  11  19
ENDBRANCH   8  10
ENDBRANCH   2   8
BRANCH   5  21
ATOM     21  C   UNL     1       2.464   5.923  18.014  0.00  0.00    +0.000 C 
BRANCH  21  22
ATOM     22  C   UNL     1       1.886   4.738  18.755  0.00  0.00    +0.000 A 
ATOM     23  C   UNL     1       1.508   3.579  18.065  0.00  0.00    +0.000 A 
ATOM     24  C   UNL     1       0.983   2.486  18.756  0.00  0.00    +0.000 A 
ATOM     25  C   UNL     1       0.832   2.541  20.140  0.00  0.00    +0.000 A 
ATOM     26  C   UNL     1       1.202   3.689  20.837  0.00  0.00    +0.000 A 
ATOM     27  C   UNL     1       1.727   4.784  20.150  0.00  0.00    +0.000 A 
ENDBRANCH  21  22
ENDBRANCH   5  21
TORSDOF 6
ENDMDL
MODEL 2
REMARK VINA RESULT:      -8.4      0.272      1.362
REMARK  Name = 
REMARK  7 active torsions:
REMARK  status: ('A' for Active; 'I' for Inactive)
REMARK    1  A    between atoms: C_1  and  C_2
REMARK    2  A    between atoms: C_2  and  C_3
REMARK    3  A    between atoms: C_3  and  C_5
REMARK    4  A    between atoms: C_6  and  O_7
REMARK    5  A    between atoms: C_6  and  C_8
REMARK    6  A    between atoms: N_17  and  C_18
REMARK    7  A    between atoms: C_18  and  C_19
REMARK                            x       y       z     vdW  Elec       q    Type
REMARK                         _______ _______ _______ _____ _____    ______ ____
ROOT
ATOM      1  C   UNL     1       5.907   3.937  15.487  0.00  0.00    +0.000 C 
ATOM      2  C   UNL     1       5.795   4.937  16.653  0.00  0.00    +0.000 C 
ATOM      3  C   UNL     1       5.108   4.213  17.837  0.00  0.00    +0.000 C 
ATOM      4  C   UNL     1       4.654   5.174  18.942  0.00  0.00    +0.000 C 
ATOM      5  N   UNL     1       3.819   6.279  18.447  0.00  0.00    +0.000 NA
ATOM      6  C   UNL     1       4.544   7.029  17.416  0.00  0.00    +0.000 C 
ATOM      7  C   UNL     1       4.961   6.163  16.221  0.00  0.00    +0.000 C 
ENDROOT
BRANCH   2   8
ATOM      8  C   UNL     1       7.217   5.379  17.063  0.00  0.00    +0.000 C 
ATOM      9  O   UNL     1       8.126   4.579  17.293  0.00  0.00    +0.000 OA
BRANCH   8  10
ATOM     10  C   UNL     1       7.501   6.838  17.173  0.00  0.00    +0.000 C 
ATOM     11  C   UNL     1       8.045   7.382  18.275  0.00  0.00    +0.000 C 
BRANCH  11  12
ATOM     12  C   UNL     1       8.407   8.814  18.339  0.00  0.00    +0.000 A 
ATOM     13  C   UNL     1       9.279   9.329  19.313  0.00  0.00    +0.000 A 
ATOM     14  C   UNL     1       9.539  10.702  19.389  0.00  0.00    +0.000 A 
ATOM     15  C   UNL     1       8.946  11.570  18.476  0.00  0.00    +0.000 A 
ATOM     16 CL   UNL     1       9.246  13.260  18.586  0.00  0.00    +0.000 Cl
ATOM     17  C   UNL     1       8.109  11.077  17.480  0.00  0.00    +0.000 A 
ATOM     18  C   UNL     1       7.844   9.707  17.412  0.00  0.00    +0.000 A 
ENDBRANCH  11  12
BRANCH  11  19
ATOM     19  O   UNL     1       8.380   6.649  19.397  0.00  0.00    +0.000 OA
ATOM     20  H   UNL     1       8.017   5.742  19.287  0.00  0.00    +0.000 HD
ENDBRANCH  11  19
ENDBRANCH   8  10
ENDBRANCH   2   8
BRANCH   5  21
ATOM     21  C   UNL     1       2.490   5.853  17.976  0.00  0.00    +0.000 C 
BRANCH  21  22
ATOM     22  C   UNL     1       1.927   4.657  18.711  0.00  0.00    +0.000 A 
ATOM     23  C   UNL     1       1.660   4.724  20.084  0.00  0.00    +0.000 A 
ATOM     24  C   UNL     1       1.133   3.620  20.756  0.00  0.00    +0.000 A 
ATOM     25  C   UNL     1       0.869   2.441  20.061  0.00  0.00    +0.000 A 
ATOM     26  C   UNL     1       1.134   2.360  18.696  0.00  0.00    +0.000 A 
ATOM     27  C   UNL     1       1.660   3.462  18.022  0.00  0.00    +0.000 A 
ENDBRANCH  21  22
ENDBRANCH   5  21
TORSDOF 6
ENDMDL
MODEL 3
REMARK VINA RESULT:      -8.3      1.234      1.832
REMARK  Name = 
REMARK  7 active torsions:
REMARK  status: ('A' for Active; 'I' for Inactive)
REMARK    1  A    between atoms: C_1  and  C_2
REMARK    2  A    between atoms: C_2  and  C_3
REMARK    3  A    between atoms: C_3  and  C_5
REMARK    4  A    between atoms: C_6  and  O_7
REMARK    5  A    between atoms: C_6  and  C_8
REMARK    6  A    between atoms: N_17  and  C_18
REMARK    7  A    between atoms: C_18  and  C_19
REMARK                            x       y       z     vdW  Elec       q    Type
REMARK                         _______ _______ _______ _____ _____    ______ ____
ROOT
ATOM      1  C   UNL     1       4.725   7.369  16.033  0.00  0.00    +0.000 C 
ATOM      2  C   UNL     1       5.416   6.180  16.728  0.00  0.00    +0.000 C 
ATOM      3  C   UNL     1       5.235   4.932  15.829  0.00  0.00    +0.000 C 
ATOM      4  C   UNL     1       5.597   3.625  16.544  0.00  0.00    +0.000 C 
ATOM      5  N   UNL     1       4.904   3.451  17.829  0.00  0.00    +0.000 NA
ATOM      6  C   UNL     1       5.196   4.585  18.711  0.00  0.00    +0.000 C 
ATOM      7  C   UNL     1       4.781   5.935  18.114  0.00  0.00    +0.000 C 
ENDROOT
BRANCH   2   8
ATOM      8  C   UNL     1       6.918   6.502  16.880  0.00  0.00    +0.000 C 
ATOM      9  O   UNL     1       7.801   5.650  16.761  0.00  0.00    +0.000 OA
BRANCH   8  10
ATOM     10  C   UNL     1       7.315   7.909  17.172  0.00  0.00    +0.000 C 
ATOM     11  C   UNL     1       8.113   8.231  18.203  0.00  0.00    +0.000 C 
BRANCH  11  12
ATOM     12  C   UNL     1       8.574   9.618  18.429  0.00  0.00    +0.000 A 
ATOM     13  C   UNL     1       8.228  10.676  17.573  0.00  0.00    +0.000 A 
ATOM     14  C   UNL     1       8.744  11.961  17.775  0.00  0.00    +0.000 A 
ATOM     15  C   UNL     1       9.595  12.204  18.850  0.00  0.00    +0.000 A 
ATOM     16 CL   UNL     1      10.250  13.776  19.083  0.00  0.00    +0.000 Cl
ATOM     17  C   UNL     1       9.921  11.178  19.732  0.00  0.00    +0.000 A 
ATOM     18  C   UNL     1       9.411   9.895  19.523  0.00  0.00    +0.000 A 
ENDBRANCH  11  12
BRANCH  11  19
ATOM     19  O   UNL     1       8.628   7.299  19.083  0.00  0.00    +0.000 OA
ATOM     20  H   UNL     1       9.164   6.656  18.566  0.00  0.00    +0.000 HD
ENDBRANCH  11  19
ENDBRANCH   8  10
ENDBRANCH   2   8
BRANCH   5  21
ATOM     21  C   UNL     1       3.454   3.225  17.695  0.00  0.00    +0.000 C 
BRANCH  21  22
ATOM     22  C   UNL     1       2.705   3.218  19.009  0.00  0.00    +0.000 A 
ATOM     23  C   UNL     1       3.181   2.476  20.097  0.00  0.00    +0.000 A 
ATOM     24  C   UNL     1       2.491   2.480  21.310  0.00  0.00    +0.000 A 
ATOM     25  C   UNL     1       1.319   3.223  21.444  0.00  0.00    +0.000 A 
ATOM     26  C   UNL     1       0.834   3.962  20.368  0.00  0.00    +0.000 A 
ATOM     27  C   UNL     1       1.522   3.961  19.155  0.00  0.00    +0.000 A 
ENDBRANCH  21  22
ENDBRANCH   5  21
TORSDOF 6
ENDMDL
MODEL 4
REMARK VINA RESULT:      -8.2      1.253      2.126
REMARK  Name = 
REMARK  7 active torsions:
REMARK  status: ('A' for Active; 'I' for Inactive)
REMARK    1  A    between atoms: C_1  and  C_2
REMARK    2  A    between atoms: C_2  and  C_3
REMARK    3  A    between atoms: C_3  and  C_5
REMARK    4  A    between atoms: C_6  and  O_7
REMARK    5  A    between atoms: C_6  and  C_8
REMARK    6  A    between atoms: N_17  and  C_18
REMARK    7  A    between atoms: C_18  and  C_19
REMARK                            x       y       z     vdW  Elec       q    Type
REMARK                         _______ _______ _______ _____ _____    ______ ____
ROOT
ATOM      1  C   UNL     1       4.572   7.635  16.630  0.00  0.00    +0.000 C 
ATOM      2  C   UNL     1       5.288   6.327  17.015  0.00  0.00    +0.000 C 
ATOM      3  C   UNL     1       4.989   5.278  15.915  0.00  0.00    +0.000 C 
ATOM      4  C   UNL     1       5.378   3.854  16.327  0.00  0.00    +0.000 C 
ATOM      5  N   UNL     1       4.801   3.442  17.615  0.00  0.00    +0.000 NA
ATOM      6  C   UNL     1       5.205   4.380  18.667  0.00  0.00    +0.000 C 
ATOM      7  C   UNL     1       4.776   5.825  18.383  0.00  0.00    +0.000 C 
ENDROOT
BRANCH   2   8
ATOM      8  C   UNL     1       6.807   6.597  17.082  0.00  0.00    +0.000 C 
ATOM      9  O   UNL     1       7.652   5.716  16.910  0.00  0.00    +0.000 OA
BRANCH   8  10
ATOM     10  C   UNL     1       7.267   7.989  17.354  0.00  0.00    +0.000 C 
ATOM     11  C   UNL     1       8.153   8.275  18.324  0.00  0.00    +0.000 C 
BRANCH  11  12
ATOM     12  C   UNL     1       8.672   9.644  18.525  0.00  0.00    +0.000 A 
ATOM     13  C   UNL     1       9.450  10.000  19.639  0.00  0.00    +0.000 A 
ATOM     14  C   UNL     1       9.861  11.323  19.836  0.00  0.00    +0.000 A 
ATOM     15  C   UNL     1       9.515  12.300  18.905  0.00  0.00    +0.000 A 
ATOM     16 CL   UNL     1       9.997  13.931  19.160  0.00  0.00    +0.000 Cl
ATOM     17  C   UNL     1       8.776  11.963  17.776  0.00  0.00    +0.000 A 
ATOM     18  C   UNL     1       8.361  10.642  17.587  0.00  0.00    +0.000 A 
ENDBRANCH  11  12
BRANCH  11  19
ATOM     19  O   UNL     1       8.707   7.317  19.151  0.00  0.00    +0.000 OA
ATOM     20  H   UNL     1       8.390   7.486  20.067  0.00  0.00    +0.000 HD
ENDBRANCH  11  19
ENDBRANCH   8  10
ENDBRANCH   2   8
BRANCH   5  21
ATOM     21  C   UNL     1       3.338   3.263  17.580  0.00  0.00    +0.000 C 
BRANCH  21  22
ATOM     22  C   UNL     1       2.681   3.268  18.942  0.00  0.00    +0.000 A 
ATOM     23  C   UNL     1       1.550   4.057  19.186  0.00  0.00    +0.000 A 
ATOM     24  C   UNL     1       0.943   4.052  20.443  0.00  0.00    +0.000 A 
ATOM     25  C   UNL     1       1.461   3.258  21.465  0.00  0.00    +0.000 A 
ATOM     26  C   UNL     1       2.587   2.471  21.236  0.00  0.00    +0.000 A 
ATOM     27  C   UNL     1       3.196   2.475  19.981  0.00  0.00    +0.000 A 
ENDBRANCH  21  22
ENDBRANCH   5  21
TORSDOF 6
ENDMDL
MODEL 5
REMARK VINA RESULT:      -8.1      1.701      2.574
REMARK  Name = 
REMARK  7 active torsions:
REMARK  status: ('A' for Active; 'I' for Inactive)
REMARK    1  A    between atoms: C_1  and  C_2
REMARK    2  A    between atoms: C_2  and  C_3
REMARK    3  A    between atoms: C_3  and  C_5
REMARK    4  A    between atoms: C_6  and  O_7
REMARK    5  A    between atoms: C_6  and  C_8
REMARK    6  A    between atoms: N_17  and  C_18
REMARK    7  A    between atoms: C_18  and  C_19
REMARK                            x       y       z     vdW  Elec       q    Type
REMARK                         _______ _______ _______ _____ _____    ______ ____
ROOT
ATOM      1  C   UNL     1       8.203   5.568  19.584  0.00  0.00    +0.000 C 
ATOM      2  C   UNL     1       7.128   5.676  18.485  0.00  0.00    +0.000 C 
ATOM      3  C   UNL     1       5.745   5.766  19.178  0.00  0.00    +0.000 C 
ATOM      4  C   UNL     1       4.577   5.561  18.206  0.00  0.00    +0.000 C 
ATOM      5  N   UNL     1       4.687   4.328  17.413  0.00  0.00    +0.000 NA
ATOM      6  C   UNL     1       5.948   4.326  16.665  0.00  0.00    +0.000 C 
ATOM      7  C   UNL     1       7.184   4.435  17.567  0.00  0.00    +0.000 C 
ENDROOT
BRANCH   2   8
ATOM      8  C   UNL     1       7.387   6.957  17.665  0.00  0.00    +0.000 C 
ATOM      9  O   UNL     1       6.883   7.157  16.558  0.00  0.00    +0.000 OA
BRANCH   8  10
ATOM     10  C   UNL     1       8.277   8.003  18.246  0.00  0.00    +0.000 C 
ATOM     11  C   UNL     1       8.155   9.304  17.934  0.00  0.00    +0.000 C 
BRANCH  11  12
ATOM     12  C   UNL     1       8.982  10.342  18.585  0.00  0.00    +0.000 A 
ATOM     13  C   UNL     1       9.261  10.331  19.962  0.00  0.00    +0.000 A 
ATOM     14  C   UNL     1       9.985  11.370  20.556  0.00  0.00    +0.000 A 
ATOM     15  C   UNL     1      10.455  12.421  19.774  0.00  0.00    +0.000 A 
ATOM     16 CL   UNL     1      11.321  13.713  20.509  0.00  0.00    +0.000 Cl
ATOM     17  C   UNL     1      10.222  12.434  18.402  0.00  0.00    +0.000 A 
ATOM     18  C   UNL     1       9.492  11.399  17.813  0.00  0.00    +0.000 A 
ENDBRANCH  11  12
BRANCH  11  19
ATOM     19  O   UNL     1       7.209   9.786  17.051  0.00  0.00    +0.000 OA
ATOM     20  H   UNL     1       6.352   9.348  17.253  0.00  0.00    +0.000 HD
ENDBRANCH  11  19
ENDBRANCH   8  10
ENDBRANCH   2   8
BRANCH   5  21
ATOM     21  C   UNL     1       4.523   3.096  18.206  0.00  0.00    +0.000 C 
BRANCH  21  22
ATOM     22  C   UNL     1       3.298   3.090  19.092  0.00  0.00    +0.000 A 
ATOM     23  C   UNL     1       2.018   3.226  18.540  0.00  0.00    +0.000 A 
ATOM     24  C   UNL     1       0.889   3.211  19.362  0.00  0.00    +0.000 A 
ATOM     25  C   UNL     1       1.031   3.059  20.740  0.00  0.00    +0.000 A 
ATOM     26  C   UNL     1       2.299   2.926  21.301  0.00  0.00    +0.000 A 
ATOM     27  C   UNL     1       3.429   2.940  20.482  0.00  0.00    +0.000 A 
ENDBRANCH  21  22
ENDBRANCH   5  21
TORSDOF 6
ENDMDL
MODEL 6
REMARK VINA RESULT:      -7.8      1.714      2.578
REMARK  Name = 
REMARK  7 active torsions:
REMARK  status: ('A' for Active; 'I' for Inactive)
REMARK    1  A    between atoms: C_1  and  C_2
REMARK    2  A    between atoms: C_2  and  C_3
REMARK    3  A    between atoms: C_3  and  C_5
REMARK    4  A    between atoms: C_6  and  O_7
REMARK    5  A    between atoms: C_6  and  C_8
REMARK    6  A    between atoms: N_17  and  C_18
REMARK    7  A    between atoms: C_18  and  C_19
REMARK                            x       y       z     vdW  Elec       q    Type
REMARK                         _______ _______ _______ _____ _____    ______ ____
ROOT
ATOM      1  C   UNL     1       8.210   5.688  19.655  0.00  0.00    +0.000 C 
ATOM      2  C   UNL     1       7.151   5.724  18.538  0.00  0.00    +0.000 C 
ATOM      3  C   UNL     1       5.755   5.803  19.206  0.00  0.00    +0.000 C 
ATOM      4  C   UNL     1       4.608   5.530  18.227  0.00  0.00    +0.000 C 
ATOM      5  N   UNL     1       4.763   4.271  17.483  0.00  0.00    +0.000 NA
ATOM      6  C   UNL     1       6.035   4.275  16.754  0.00  0.00    +0.000 C 
ATOM      7  C   UNL     1       7.254   4.452  17.668  0.00  0.00    +0.000 C 
ENDROOT
BRANCH   2   8
ATOM      8  C   UNL     1       7.388   6.981  17.673  0.00  0.00    +0.000 C 
ATOM      9  O   UNL     1       6.908   7.118  16.546  0.00  0.00    +0.000 OA
BRANCH   8  10
ATOM     10  C   UNL     1       8.226   8.079  18.233  0.00  0.00    +0.000 C 
ATOM     11  C   UNL     1       8.061   9.363  17.873  0.00  0.00    +0.000 C 
BRANCH  11  12
ATOM     12  C   UNL     1       8.835  10.454  18.502  0.00  0.00    +0.000 A 
ATOM     13  C   UNL     1       8.982  11.717  17.904  0.00  0.00    +0.000 A 
ATOM     14  C   UNL     1       9.784  12.701  18.493  0.00  0.00    +0.000 A 
ATOM     15  C   UNL     1      10.429  12.437  19.699  0.00  0.00    +0.000 A 
ATOM     16 CL   UNL     1      11.436  13.637  20.409  0.00  0.00    +0.000 Cl
ATOM     17  C   UNL     1      10.268  11.207  20.327  0.00  0.00    +0.000 A 
ATOM     18  C   UNL     1       9.473  10.223  19.732  0.00  0.00    +0.000 A 
ENDBRANCH  11  12
BRANCH  11  19
ATOM     19  O   UNL     1       7.115   9.778  16.955  0.00  0.00    +0.000 OA
ATOM     20  H   UNL     1       7.096  10.761  16.961  0.00  0.00    +0.000 HD
ENDBRANCH  11  19
ENDBRANCH   8  10
ENDBRANCH   2   8
BRANCH   5  21
ATOM     21  C   UNL     1       4.620   3.066  18.320  0.00  0.00    +0.000 C 
BRANCH  21  22
ATOM     22  C   UNL     1       3.363   3.043  19.161  0.00  0.00    +0.000 A 
ATOM     23  C   UNL     1       3.431   2.808  20.540  0.00  0.00    +0.000 A 
ATOM     24  C   UNL     1       2.268   2.796  21.312  0.00  0.00    +0.000 A 
ATOM     25  C   UNL     1       1.029   3.017  20.712  0.00  0.00    +0.000 A 
ATOM     26  C   UNL     1       0.949   3.247  19.341  0.00  0.00    +0.000 A 
ATOM     27  C   UNL     1       2.109   3.261  18.567  0.00  0.00    +0.000 A 
ENDBRANCH  21  22
ENDBRANCH   5  21
TORSDOF 6
ENDMDL
MODEL 7
REMARK VINA RESULT:      -7.7      3.951      6.053
REMARK  Name = 
REMARK  7 active torsions:
REMARK  status: ('A' for Active; 'I' for Inactive)
REMARK    1  A    between atoms: C_1  and  C_2
REMARK    2  A    between atoms: C_2  and  C_3
REMARK    3  A    between atoms: C_3  and  C_5
REMARK    4  A    between atoms: C_6  and  O_7
REMARK    5  A    between atoms: C_6  and  C_8
REMARK    6  A    between atoms: N_17  and  C_18
REMARK    7  A    between atoms: C_18  and  C_19
REMARK                            x       y       z     vdW  Elec       q    Type
REMARK                         _______ _______ _______ _____ _____    ______ ____
ROOT
ATOM      1  C   UNL     1       0.711   2.477  18.793  0.00  0.00    +0.000 C 
ATOM      2  C   UNL     1       1.779   3.503  19.216  0.00  0.00    +0.000 C 
ATOM      3  C   UNL     1       1.629   3.748  20.738  0.00  0.00    +0.000 C 
ATOM      4  C   UNL     1       2.415   4.970  21.226  0.00  0.00    +0.000 C 
ATOM      5  N   UNL     1       2.121   6.194  20.467  0.00  0.00    +0.000 NA
ATOM      6  C   UNL     1       2.395   5.977  19.043  0.00  0.00    +0.000 C 
ATOM      7  C   UNL     1       1.580   4.825  18.441  0.00  0.00    +0.000 C 
ENDROOT
BRANCH   2   8
ATOM      8  C   UNL     1       3.175   2.916  18.915  0.00  0.00    +0.000 C 
ATOM      9  O   UNL     1       3.733   2.104  19.656  0.00  0.00    +0.000 OA
BRANCH   8  10
ATOM     10  C   UNL     1       3.869   3.342  17.667  0.00  0.00    +0.000 C 
ATOM     11  C   UNL     1       5.136   3.789  17.667  0.00  0.00    +0.000 C 
BRANCH  11  12
ATOM     12  C   UNL     1       5.845   4.123  16.413  0.00  0.00    +0.000 A 
ATOM     13  C   UNL     1       7.060   4.827  16.397  0.00  0.00    +0.000 A 
ATOM     14  C   UNL     1       7.664   5.191  15.189  0.00  0.00    +0.000 A 
ATOM     15  C   UNL     1       7.067   4.833  13.982  0.00  0.00    +0.000 A 
ATOM     16 CL   UNL     1       7.795   5.302  12.497  0.00  0.00    +0.000 Cl
ATOM     17  C   UNL     1       5.883   4.103  13.974  0.00  0.00    +0.000 A 
ATOM     18  C   UNL     1       5.279   3.749  15.183  0.00  0.00    +0.000 A 
ENDBRANCH  11  12
BRANCH  11  19
ATOM     19  O   UNL     1       5.901   3.900  18.812  0.00  0.00    +0.000 OA
ATOM     20  H   UNL     1       5.527   3.291  19.488  0.00  0.00    +0.000 HD
ENDBRANCH  11  19
ENDBRANCH   8  10
ENDBRANCH   2   8
BRANCH   5  21
ATOM     21  C   UNL     1       0.760   6.715  20.685  0.00  0.00    +0.000 C 
BRANCH  21  22
ATOM     22  C   UNL     1       0.696   8.212  20.892  0.00  0.00    +0.000 A 
ATOM     23  C   UNL     1       1.040   9.090  19.857  0.00  0.00    +0.000 A 
ATOM     24  C   UNL     1       0.971  10.471  20.051  0.00  0.00    +0.000 A 
ATOM     25  C   UNL     1       0.559  10.984  21.280  0.00  0.00    +0.000 A 
ATOM     26  C   UNL     1       0.218  10.120  22.318  0.00  0.00    +0.000 A 
ATOM     27  C   UNL     1       0.285   8.740  22.127  0.00  0.00    +0.000 A 
ENDBRANCH  21  22
ENDBRANCH   5  21
TORSDOF 6
ENDMDL
MODEL 8
REMARK VINA RESULT:      -7.6      4.246      6.597
REMARK  Name = 
REMARK  7 active torsions:
REMARK  status: ('A' for Active; 'I' for Inactive)
REMARK    1  A    between atoms: C_1  and  C_2
REMARK    2  A    between atoms: C_2  and  C_3
REMARK    3  A    between atoms: C_3  and  C_5
REMARK    4  A    between atoms: C_6  and  O_7
REMARK    5  A    between atoms: C_6  and  C_8
REMARK    6  A    between atoms: N_17  and  C_18
REMARK    7  A    between atoms: C_18  and  C_19
REMARK                            x       y       z     vdW  Elec       q    Type
REMARK                         _______ _______ _______ _____ _____    ______ ____
ROOT
ATOM      1  C   UNL     1       4.482   2.520  20.022  0.00  0.00    +0.000 C 
ATOM      2  C   UNL     1       4.045   3.570  18.984  0.00  0.00    +0.000 C 
ATOM      3  C   UNL     1       3.948   2.867  17.607  0.00  0.00    +0.000 C 
ATOM      4  C   UNL     1       3.830   3.855  16.440  0.00  0.00    +0.000 C 
ATOM      5  N   UNL     1       4.885   4.878  16.433  0.00  0.00    +0.000 NA
ATOM      6  C   UNL     1       4.872   5.618  17.699  0.00  0.00    +0.000 C 
ATOM      7  C   UNL     1       5.077   4.718  18.925  0.00  0.00    +0.000 C 
ENDROOT
BRANCH   2   8
ATOM      8  C   UNL     1       2.660   4.119  19.390  0.00  0.00    +0.000 C 
ATOM      9  O   UNL     1       1.840   3.459  20.031  0.00  0.00    +0.000 OA
BRANCH   8  10
ATOM     10  C   UNL     1       2.309   5.513  18.997  0.00  0.00    +0.000 C 
ATOM     11  C   UNL     1       2.027   6.465  19.903  0.00  0.00    +0.000 C 
BRANCH  11  12
ATOM     12  C   UNL     1       1.770   7.866  19.507  0.00  0.00    +0.000 A 
ATOM     13  C   UNL     1       2.157   8.380  18.258  0.00  0.00    +0.000 A 
ATOM     14  C   UNL     1       1.964   9.731  17.946  0.00  0.00    +0.000 A 
ATOM     15  C   UNL     1       1.360  10.575  18.874  0.00  0.00    +0.000 A 
ATOM     16 CL   UNL     1       1.147  12.241  18.502  0.00  0.00    +0.000 Cl
ATOM     17  C   UNL     1       0.935  10.079  20.102  0.00  0.00    +0.000 A 
ATOM     18  C   UNL     1       1.137   8.732  20.414  0.00  0.00    +0.000 A 
ENDBRANCH  11  12
BRANCH  11  19
ATOM     19  O   UNL     1       2.032   6.240  21.266  0.00  0.00    +0.000 OA
ATOM     20  H   UNL     1       1.550   6.980  21.698  0.00  0.00    +0.000 HD
ENDBRANCH  11  19
ENDBRANCH   8  10
ENDBRANCH   2   8
BRANCH   5  21
ATOM     21  C   UNL     1       6.225   4.347  16.128  0.00  0.00    +0.000 C 
BRANCH  21  22
ATOM     22  C   UNL     1       6.581   4.371  14.658  0.00  0.00    +0.000 A 
ATOM     23  C   UNL     1       5.974   3.482  13.762  0.00  0.00    +0.000 A 
ATOM     24  C   UNL     1       6.299   3.515  12.405  0.00  0.00    +0.000 A 
ATOM     25  C   UNL     1       7.233   4.436  11.933  0.00  0.00    +0.000 A 
ATOM     26  C   UNL     1       7.846   5.323  12.815  0.00  0.00    +0.000 A 
ATOM     27  C   UNL     1       7.522   5.293  14.171  0.00  0.00    +0.000 A 
ENDBRANCH  21  22
ENDBRANCH   5  21
TORSDOF 6
ENDMDL
MODEL 9
REMARK VINA RESULT:      -7.2      4.137      6.663
REMARK  Name = 
REMARK  7 active torsions:
REMARK  status: ('A' for Active; 'I' for Inactive)
REMARK    1  A    between atoms: C_1  and  C_2
REMARK    2  A    between atoms: C_2  and  C_3
REMARK    3  A    between atoms: C_3  and  C_5
REMARK    4  A    between atoms: C_6  and  O_7
REMARK    5  A    between atoms: C_6  and  C_8
REMARK    6  A    between atoms: N_17  and  C_18
REMARK    7  A    between atoms: C_18  and  C_19
REMARK                            x       y       z     vdW  Elec       q    Type
REMARK                         _______ _______ _______ _____ _____    ______ ____
ROOT
ATOM      1  C   UNL     1       4.859   2.865  20.088  0.00  0.00    +0.000 C 
ATOM      2  C   UNL     1       4.389   3.912  19.061  0.00  0.00    +0.000 C 
ATOM      3  C   UNL     1       4.207   3.197  17.700  0.00  0.00    +0.000 C 
ATOM      4  C   UNL     1       4.047   4.174  16.529  0.00  0.00    +0.000 C 
ATOM      5  N   UNL     1       5.121   5.176  16.455  0.00  0.00    +0.000 NA
ATOM      6  C   UNL     1       5.188   5.929  17.712  0.00  0.00    +0.000 C 
ATOM      7  C   UNL     1       5.438   5.039  18.936  0.00  0.00    +0.000 C 
ENDROOT
BRANCH   2   8
ATOM      8  C   UNL     1       3.038   4.494  19.532  0.00  0.00    +0.000 C 
ATOM      9  O   UNL     1       2.230   3.850  20.204  0.00  0.00    +0.000 OA
BRANCH   8  10
ATOM     10  C   UNL     1       2.706   5.900  19.165  0.00  0.00    +0.000 C 
ATOM     11  C   UNL     1       2.008   6.709  19.981  0.00  0.00    +0.000 C 
BRANCH  11  12
ATOM     12  C   UNL     1       1.763   8.128  19.647  0.00  0.00    +0.000 A 
ATOM     13  C   UNL     1       1.149   9.019  20.543  0.00  0.00    +0.000 A 
ATOM     14  C   UNL     1       0.865  10.336  20.165  0.00  0.00    +0.000 A 
ATOM     15  C   UNL     1       1.214  10.780  18.893  0.00  0.00    +0.000 A 
ATOM     16 CL   UNL     1       0.842  12.391  18.419  0.00  0.00    +0.000 Cl
ATOM     17  C   UNL     1       1.857   9.926  18.002  0.00  0.00    +0.000 A 
ATOM     18  C   UNL     1       2.131   8.609  18.380  0.00  0.00    +0.000 A 
ENDBRANCH  11  12
BRANCH  11  19
ATOM     19  O   UNL     1       1.533   6.313  21.216  0.00  0.00    +0.000 OA
ATOM     20  H   UNL     1       2.233   5.780  21.655  0.00  0.00    +0.000 HD
ENDBRANCH  11  19
ENDBRANCH   8  10
ENDBRANCH   2   8
BRANCH   5  21
ATOM     21  C   UNL     1       6.432   4.614  16.087  0.00  0.00    +0.000 C 
BRANCH  21  22
ATOM     22  C   UNL     1       6.663   4.506  14.596  0.00  0.00    +0.000 A 
ATOM     23  C   UNL     1       7.552   5.371  13.947  0.00  0.00    +0.000 A 
ATOM     24  C   UNL     1       7.767   5.261  12.572  0.00  0.00    +0.000 A 
ATOM     25  C   UNL     1       7.095   4.286  11.836  0.00  0.00    +0.000 A 
ATOM     26  C   UNL     1       6.206   3.422  12.471  0.00  0.00    +0.000 A 
ATOM     27  C   UNL     1       5.989   3.529  13.844  0.00  0.00    +0.000 A 
ENDBRANCH  21  22
ENDBRANCH   5  21
TORSDOF 6
ENDMDL
