MODEL 1
REMARK VINA RESULT:      -7.7      0.000      0.000
REMARK  Name = 
REMARK  4 active torsions:
REMARK  status: ('A' for Active; 'I' for Inactive)
REMARK    1  A    between atoms: C_1  and  C_2
REMARK    2  A    between atoms: C_4  and  C_5
REMARK    3  A    between atoms: C_6  and  C_7
REMARK    4  A    between atoms: C_18  and  C_19
REMARK                            x       y       z     vdW  Elec       q    Type
REMARK                         _______ _______ _______ _____ _____    ______ ____
ROOT
ATOM      1  C   UNL     1       3.706   4.634  18.839  0.00  0.00    +0.000 C 
ATOM      2  C   UNL     1       3.024   3.546  18.405  0.00  0.00    +0.000 C 
ATOM      3  S   UNL     1       3.562   3.008  16.824  0.00  0.00    +0.000 S 
ATOM      4  C   UNL     1       4.761   4.299  16.774  0.00  0.00    +0.000 C 
ATOM      5  N   UNL     1       5.478   4.509  15.736  0.00  0.00    +0.000 NA
ATOM      6  S   UNL     1       6.723   5.501  15.990  0.00  0.00    +0.000 S 
ATOM      7  O   UNL     1       6.289   6.841  16.352  0.00  0.00    +0.000 OA
ATOM      8  O   UNL     1       7.708   5.307  14.962  0.00  0.00    +0.000 OA
ATOM      9  C   UNL     1       7.354   4.712  17.460  0.00  0.00    +0.000 C 
ATOM     10  C   UNL     1       6.264   4.611  18.544  0.00  0.00    +0.000 C 
ATOM     11  N   UNL     1       4.879   4.887  18.037  0.00  0.00    +0.000 N 
ENDROOT
BRANCH   1  17
ATOM     12  C   UNL     1       0.926   9.084  21.457  0.00  0.00    +0.000 C 
ATOM     13  C   UNL     1       1.429   7.935  20.634  0.00  0.00    +0.000 A 
ATOM     14  C   UNL     1       2.032   8.105  19.392  0.00  0.00    +0.000 A 
ATOM     15  C   UNL     1       2.649   7.026  18.690  0.00  0.00    +0.000 A 
ATOM     16  C   UNL     1       3.324   7.420  17.400  0.00  0.00    +0.000 C 
ATOM     17  C   UNL     1       2.664   5.701  19.240  0.00  0.00    +0.000 A 
ATOM     18  C   UNL     1       1.937   5.535  20.462  0.00  0.00    +0.000 A 
ATOM     19  C   UNL     1       1.856   4.253  21.247  0.00  0.00    +0.000 C 
ATOM     20  C   UNL     1       1.361   6.644  21.135  0.00  0.00    +0.000 A 
ENDBRANCH   1  17
TORSDOF 1
ENDMDL
MODEL 2
REMARK VINA RESULT:      -7.0      3.433      5.424
REMARK  Name = 
REMARK  4 active torsions:
REMARK  status: ('A' for Active; 'I' for Inactive)
REMARK    1  A    between atoms: C_1  and  C_2
REMARK    2  A    between atoms: C_4  and  C_5
REMARK    3  A    between atoms: C_6  and  C_7
REMARK    4  A    between atoms: C_18  and  C_19
REMARK                            x       y       z     vdW  Elec       q    Type
REMARK                         _______ _______ _______ _____ _____    ______ ____
ROOT
ATOM      1  C   UNL     1       3.382   3.936  17.303  0.00  0.00    +0.000 C 
ATOM      2  C   UNL     1       3.965   2.778  16.908  0.00  0.00    +0.000 C 
ATOM      3  S   UNL     1       4.002   1.578  18.187  0.00  0.00    +0.000 S 
ATOM      4  C   UNL     1       3.180   2.692  19.278  0.00  0.00    +0.000 C 
ATOM      5  N   UNL     1       2.981   2.402  20.508  0.00  0.00    +0.000 NA
ATOM      6  S   UNL     1       1.943   3.386  21.252  0.00  0.00    +0.000 S 
ATOM      7  O   UNL     1       2.440   4.750  21.325  0.00  0.00    +0.000 OA
ATOM      8  O   UNL     1       1.423   2.736  22.424  0.00  0.00    +0.000 OA
ATOM      9  C   UNL     1       0.652   3.337  20.023  0.00  0.00    +0.000 C 
ATOM     10  C   UNL     1       1.190   3.750  18.640  0.00  0.00    +0.000 C 
ATOM     11  N   UNL     1       2.688   3.785  18.558  0.00  0.00    +0.000 N 
ENDROOT
BRANCH   1  17
ATOM     12  C   UNL     1       7.699   7.898  17.525  0.00  0.00    +0.000 C 
ATOM     13  C   UNL     1       6.550   6.978  17.231  0.00  0.00    +0.000 A 
ATOM     14  C   UNL     1       6.691   5.816  16.480  0.00  0.00    +0.000 A 
ATOM     15  C   UNL     1       5.632   4.868  16.340  0.00  0.00    +0.000 A 
ATOM     16  C   UNL     1       5.998   3.630  15.558  0.00  0.00    +0.000 C 
ATOM     17  C   UNL     1       4.361   5.083  16.968  0.00  0.00    +0.000 A 
ATOM     18  C   UNL     1       4.212   6.339  17.637  0.00  0.00    +0.000 A 
ATOM     19  C   UNL     1       2.990   6.763  18.408  0.00  0.00    +0.000 C 
ATOM     20  C   UNL     1       5.301   7.239  17.771  0.00  0.00    +0.000 A 
ENDBRANCH   1  17
TORSDOF 1
ENDMDL
MODEL 3
REMARK VINA RESULT:      -6.8      6.862      8.959
REMARK  Name = 
REMARK  4 active torsions:
REMARK  status: ('A' for Active; 'I' for Inactive)
REMARK    1  A    between atoms: C_1  and  C_2
REMARK    2  A    between atoms: C_4  and  C_5
REMARK    3  A    between atoms: C_6  and  C_7
REMARK    4  A    between atoms: C_18  and  C_19
REMARK                            x       y       z     vdW  Elec       q    Type
REMARK                         _______ _______ _______ _____ _____    ______ ____
ROOT
ATOM      1  C   UNL     1      -1.057  11.698  18.432  0.00  0.00    +0.000 C 
ATOM      2  C   UNL     1      -0.469  12.911  18.288  0.00  0.00    +0.000 C 
ATOM      3  S   UNL     1       0.666  13.261  19.579  0.00  0.00    +0.000 S 
ATOM      4  C   UNL     1       0.334  11.695  20.318  0.00  0.00    +0.000 C 
ATOM      5  N   UNL     1       0.841  11.364  21.445  0.00  0.00    +0.000 NA
ATOM      6  S   UNL     1       0.690   9.797  21.795  0.00  0.00    +0.000 S 
ATOM      7  O   UNL     1      -0.701   9.402  21.943  0.00  0.00    +0.000 OA
ATOM      8  O   UNL     1       1.662   9.434  22.789  0.00  0.00    +0.000 OA
ATOM      9  C   UNL     1       1.281   9.153  20.240  0.00  0.00    +0.000 C 
ATOM     10  C   UNL     1       0.469   9.722  19.061  0.00  0.00    +0.000 C 
ATOM     11  N   UNL     1      -0.391  10.895  19.429  0.00  0.00    +0.000 N 
ENDROOT
BRANCH   1  17
ATOM     12  C   UNL     1      -6.866  10.914  18.537  0.00  0.00    +0.000 C 
ATOM     13  C   UNL     1      -5.436  11.362  18.455  0.00  0.00    +0.000 A 
ATOM     14  C   UNL     1      -4.787  12.003  19.504  0.00  0.00    +0.000 A 
ATOM     15  C   UNL     1      -3.386  12.280  19.477  0.00  0.00    +0.000 A 
ATOM     16  C   UNL     1      -2.845  12.904  20.740  0.00  0.00    +0.000 C 
ATOM     17  C   UNL     1      -2.584  11.913  18.347  0.00  0.00    +0.000 A 
ATOM     18  C   UNL     1      -3.300  11.361  17.238  0.00  0.00    +0.000 A 
ATOM     19  C   UNL     1      -2.666  10.857  15.969  0.00  0.00    +0.000 C 
ATOM     20  C   UNL     1      -4.689  11.080  17.322  0.00  0.00    +0.000 A 
ENDBRANCH   1  17
TORSDOF 1
ENDMDL
MODEL 4
REMARK VINA RESULT:      -6.7      1.248      1.248
REMARK  Name = 
REMARK  4 active torsions:
REMARK  status: ('A' for Active; 'I' for Inactive)
REMARK    1  A    between atoms: C_1  and  C_2
REMARK    2  A    between atoms: C_4  and  C_5
REMARK    3  A    between atoms: C_6  and  C_7
REMARK    4  A    between atoms: C_18  and  C_19
REMARK                            x       y       z     vdW  Elec       q    Type
REMARK                         _______ _______ _______ _____ _____    ______ ____
ROOT
ATOM      1  C   UNL     1       3.792   5.249  18.895  0.00  0.00    +0.000 C 
ATOM      2  C   UNL     1       3.327   4.337  18.006  0.00  0.00    +0.000 C 
ATOM      3  S   UNL     1       4.233   4.348  16.504  0.00  0.00    +0.000 S 
ATOM      4  C   UNL     1       5.281   5.621  17.125  0.00  0.00    +0.000 C 
ATOM      5  N   UNL     1       6.174   6.171  16.393  0.00  0.00    +0.000 NA
ATOM      6  S   UNL     1       7.234   7.066  17.215  0.00  0.00    +0.000 S 
ATOM      7  O   UNL     1       6.603   8.207  17.858  0.00  0.00    +0.000 OA
ATOM      8  O   UNL     1       8.426   7.239  16.431  0.00  0.00    +0.000 OA
ATOM      9  C   UNL     1       7.621   5.868  18.478  0.00  0.00    +0.000 C 
ATOM     10  C   UNL     1       6.344   5.395  19.200  0.00  0.00    +0.000 C 
ATOM     11  N   UNL     1       5.074   5.778  18.499  0.00  0.00    +0.000 N 
ENDROOT
BRANCH   1  17
ATOM     12  C   UNL     1       0.309   8.981  21.779  0.00  0.00    +0.000 C 
ATOM     13  C   UNL     1       0.997   7.994  20.882  0.00  0.00    +0.000 A 
ATOM     14  C   UNL     1       1.576   8.354  19.671  0.00  0.00    +0.000 A 
ATOM     15  C   UNL     1       2.366   7.445  18.903  0.00  0.00    +0.000 A 
ATOM     16  C   UNL     1       2.980   8.041  17.661  0.00  0.00    +0.000 C 
ATOM     17  C   UNL     1       2.588   6.101  19.352  0.00  0.00    +0.000 A 
ATOM     18  C   UNL     1       1.886   5.727  20.542  0.00  0.00    +0.000 A 
ATOM     19  C   UNL     1       2.005   4.392  21.226  0.00  0.00    +0.000 C 
ATOM     20  C   UNL     1       1.133   6.674  21.284  0.00  0.00    +0.000 A 
ENDBRANCH   1  17
TORSDOF 1
ENDMDL
MODEL 5
REMARK VINA RESULT:      -6.7      2.679      3.960
REMARK  Name = 
REMARK  4 active torsions:
REMARK  status: ('A' for Active; 'I' for Inactive)
REMARK    1  A    between atoms: C_1  and  C_2
REMARK    2  A    between atoms: C_4  and  C_5
REMARK    3  A    between atoms: C_6  and  C_7
REMARK    4  A    between atoms: C_18  and  C_19
REMARK                            x       y       z     vdW  Elec       q    Type
REMARK                         _______ _______ _______ _____ _____    ______ ____
ROOT
ATOM      1  C   UNL     1       2.659   6.406  18.167  0.00  0.00    +0.000 C 
ATOM      2  C   UNL     1       3.775   6.937  17.608  0.00  0.00    +0.000 C 
ATOM      3  S   UNL     1       5.088   5.778  17.511  0.00  0.00    +0.000 S 
ATOM      4  C   UNL     1       4.069   4.536  18.238  0.00  0.00    +0.000 C 
ATOM      5  N   UNL     1       4.530   3.381  18.537  0.00  0.00    +0.000 NA
ATOM      6  S   UNL     1       3.391   2.292  18.881  0.00  0.00    +0.000 S 
ATOM      7  O   UNL     1       2.634   2.650  20.069  0.00  0.00    +0.000 OA
ATOM      8  O   UNL     1       3.934   0.970  18.733  0.00  0.00    +0.000 OA
ATOM      9  C   UNL     1       2.354   2.582  17.460  0.00  0.00    +0.000 C 
ATOM     10  C   UNL     1       1.946   4.065  17.367  0.00  0.00    +0.000 C 
ATOM     11  N   UNL     1       2.740   4.969  18.263  0.00  0.00    +0.000 N 
ENDROOT
BRANCH   1  17
ATOM     12  C   UNL     1      -0.482   9.671  21.888  0.00  0.00    +0.000 C 
ATOM     13  C   UNL     1       0.525   8.907  21.080  0.00  0.00    +0.000 A 
ATOM     14  C   UNL     1       1.004   7.658  21.460  0.00  0.00    +0.000 A 
ATOM     15  C   UNL     1       1.837   6.870  20.609  0.00  0.00    +0.000 A 
ATOM     16  C   UNL     1       2.186   5.509  21.159  0.00  0.00    +0.000 C 
ATOM     17  C   UNL     1       2.227   7.346  19.314  0.00  0.00    +0.000 A 
ATOM     18  C   UNL     1       1.814   8.679  18.999  0.00  0.00    +0.000 A 
ATOM     19  C   UNL     1       2.062   9.368  17.684  0.00  0.00    +0.000 C 
ATOM     20  C   UNL     1       0.965   9.414  19.867  0.00  0.00    +0.000 A 
ENDBRANCH   1  17
TORSDOF 1
ENDMDL
MODEL 6
REMARK VINA RESULT:      -6.6      1.245      1.621
REMARK  Name = 
REMARK  4 active torsions:
REMARK  status: ('A' for Active; 'I' for Inactive)
REMARK    1  A    between atoms: C_1  and  C_2
REMARK    2  A    between atoms: C_4  and  C_5
REMARK    3  A    between atoms: C_6  and  C_7
REMARK    4  A    between atoms: C_18  and  C_19
REMARK                            x       y       z     vdW  Elec       q    Type
REMARK                         _______ _______ _______ _____ _____    ______ ____
ROOT
ATOM      1  C   UNL     1       3.453   5.808  19.172  0.00  0.00    +0.000 C 
ATOM      2  C   UNL     1       2.686   4.690  19.134  0.00  0.00    +0.000 C 
ATOM      3  S   UNL     1       3.316   3.486  18.025  0.00  0.00    +0.000 S 
ATOM      4  C   UNL     1       4.671   4.540  17.623  0.00  0.00    +0.000 C 
ATOM      5  N   UNL     1       5.517   4.228  16.715  0.00  0.00    +0.000 NA
ATOM      6  S   UNL     1       6.845   5.142  16.718  0.00  0.00    +0.000 S 
ATOM      7  O   UNL     1       6.553   6.534  16.416  0.00  0.00    +0.000 OA
ATOM      8  O   UNL     1       7.901   4.453  16.029  0.00  0.00    +0.000 OA
ATOM      9  C   UNL     1       7.207   5.022  18.461  0.00  0.00    +0.000 C 
ATOM     10  C   UNL     1       6.003   5.477  19.307  0.00  0.00    +0.000 C 
ATOM     11  N   UNL     1       4.728   5.605  18.527  0.00  0.00    +0.000 N 
ENDROOT
BRANCH   1  17
ATOM     12  C   UNL     1       1.056  11.159  19.163  0.00  0.00    +0.000 C 
ATOM     13  C   UNL     1       1.472   9.725  19.010  0.00  0.00    +0.000 A 
ATOM     14  C   UNL     1       2.172   9.258  17.903  0.00  0.00    +0.000 A 
ATOM     15  C   UNL     1       2.701   7.933  17.840  0.00  0.00    +0.000 A 
ATOM     16  C   UNL     1       3.502   7.636  16.596  0.00  0.00    +0.000 C 
ATOM     17  C   UNL     1       2.522   7.015  18.926  0.00  0.00    +0.000 A 
ATOM     18  C   UNL     1       1.701   7.486  20.000  0.00  0.00    +0.000 A 
ATOM     19  C   UNL     1       1.415   6.720  21.264  0.00  0.00    +0.000 C 
ATOM     20  C   UNL     1       1.217   8.820  20.029  0.00  0.00    +0.000 A 
ENDBRANCH   1  17
TORSDOF 1
ENDMDL
MODEL 7
REMARK VINA RESULT:      -6.6      1.833      3.350
REMARK  Name = 
REMARK  4 active torsions:
REMARK  status: ('A' for Active; 'I' for Inactive)
REMARK    1  A    between atoms: C_1  and  C_2
REMARK    2  A    between atoms: C_4  and  C_5
REMARK    3  A    between atoms: C_6  and  C_7
REMARK    4  A    between atoms: C_18  and  C_19
REMARK                            x       y       z     vdW  Elec       q    Type
REMARK                         _______ _______ _______ _____ _____    ______ ____
ROOT
ATOM      1  C   UNL     1       4.481   5.671  18.379  0.00  0.00    +0.000 C 
ATOM      2  C   UNL     1       5.494   5.686  19.281  0.00  0.00    +0.000 C 
ATOM      3  S   UNL     1       7.007   5.124  18.594  0.00  0.00    +0.000 S 
ATOM      4  C   UNL     1       6.228   4.884  17.031  0.00  0.00    +0.000 C 
ATOM      5  N   UNL     1       6.850   4.356  16.046  0.00  0.00    +0.000 NA
ATOM      6  S   UNL     1       6.092   4.517  14.632  0.00  0.00    +0.000 S 
ATOM      7  O   UNL     1       4.817   3.819  14.613  0.00  0.00    +0.000 OA
ATOM      8  O   UNL     1       7.035   4.342  13.561  0.00  0.00    +0.000 OA
ATOM      9  C   UNL     1       5.761   6.265  14.742  0.00  0.00    +0.000 C 
ATOM     10  C   UNL     1       4.986   6.600  16.032  0.00  0.00    +0.000 C 
ATOM     11  N   UNL     1       4.965   5.483  17.033  0.00  0.00    +0.000 N 
ENDROOT
BRANCH   1  17
ATOM     12  C   UNL     1       1.173   2.409  21.955  0.00  0.00    +0.000 C 
ATOM     13  C   UNL     1       1.804   3.266  20.898  0.00  0.00    +0.000 A 
ATOM     14  C   UNL     1       1.673   4.651  20.874  0.00  0.00    +0.000 A 
ATOM     15  C   UNL     1       2.405   5.470  19.962  0.00  0.00    +0.000 A 
ATOM     16  C   UNL     1       2.195   6.953  20.143  0.00  0.00    +0.000 C 
ATOM     17  C   UNL     1       3.310   4.889  19.014  0.00  0.00    +0.000 A 
ATOM     18  C   UNL     1       3.337   3.459  18.986  0.00  0.00    +0.000 A 
ATOM     19  C   UNL     1       4.243   2.632  18.113  0.00  0.00    +0.000 C 
ATOM     20  C   UNL     1       2.610   2.687  19.930  0.00  0.00    +0.000 A 
ENDBRANCH   1  17
TORSDOF 1
ENDMDL
MODEL 8
REMARK VINA RESULT:      -6.4      6.985      8.893
REMARK  Name = 
REMARK  4 active torsions:
REMARK  status: ('A' for Active; 'I' for Inactive)
REMARK    1  A    between atoms: C_1  and  C_2
REMARK    2  A    between atoms: C_4  and  C_5
REMARK    3  A    between atoms: C_6  and  C_7
REMARK    4  A    between atoms: C_18  and  C_19
REMARK                            x       y       z     vdW  Elec       q    Type
REMARK                         _______ _______ _______ _____ _____    ______ ____
ROOT
ATOM      1  C   UNL     1      -1.202  11.328  18.406  0.00  0.00    +0.000 C 
ATOM      2  C   UNL     1      -0.824  12.626  18.308  0.00  0.00    +0.000 C 
ATOM      3  S   UNL     1       0.173  13.135  19.658  0.00  0.00    +0.000 S 
ATOM      4  C   UNL     1       0.078  11.520  20.358  0.00  0.00    +0.000 C 
ATOM      5  N   UNL     1       0.581  11.256  21.505  0.00  0.00    +0.000 NA
ATOM      6  S   UNL     1       0.683   9.679  21.826  0.00  0.00    +0.000 S 
ATOM      7  O   UNL     1      -0.625   9.050  21.899  0.00  0.00    +0.000 OA
ATOM      8  O   UNL     1       1.655   9.464  22.863  0.00  0.00    +0.000 OA
ATOM      9  C   UNL     1       1.449   9.178  20.294  0.00  0.00    +0.000 C 
ATOM     10  C   UNL     1       0.607   9.627  19.084  0.00  0.00    +0.000 C 
ATOM     11  N   UNL     1      -0.457  10.628  19.424  0.00  0.00    +0.000 N 
ENDROOT
BRANCH   1  17
ATOM     12  C   UNL     1      -6.793  12.715  17.309  0.00  0.00    +0.000 C 
ATOM     13  C   UNL     1      -5.455  12.124  17.646  0.00  0.00    +0.000 A 
ATOM     14  C   UNL     1      -4.724  11.354  16.748  0.00  0.00    +0.000 A 
ATOM     15  C   UNL     1      -3.387  10.932  17.018  0.00  0.00    +0.000 A 
ATOM     16  C   UNL     1      -2.728  10.177  15.890  0.00  0.00    +0.000 C 
ATOM     17  C   UNL     1      -2.738  11.282  18.247  0.00  0.00    +0.000 A 
ATOM     18  C   UNL     1      -3.553  11.975  19.197  0.00  0.00    +0.000 A 
ATOM     19  C   UNL     1      -3.076  12.487  20.530  0.00  0.00    +0.000 C 
ATOM     20  C   UNL     1      -4.870  12.395  18.873  0.00  0.00    +0.000 A 
ENDBRANCH   1  17
TORSDOF 1
ENDMDL
MODEL 9
REMARK VINA RESULT:      -6.4      2.803      3.362
REMARK  Name = 
REMARK  4 active torsions:
REMARK  status: ('A' for Active; 'I' for Inactive)
REMARK    1  A    between atoms: C_1  and  C_2
REMARK    2  A    between atoms: C_4  and  C_5
REMARK    3  A    between atoms: C_6  and  C_7
REMARK    4  A    between atoms: C_18  and  C_19
REMARK                            x       y       z     vdW  Elec       q    Type
REMARK                         _______ _______ _______ _____ _____    ______ ____
ROOT
ATOM      1  C   UNL     1       2.931   5.813  18.225  0.00  0.00    +0.000 C 
ATOM      2  C   UNL     1       3.999   6.536  17.809  0.00  0.00    +0.000 C 
ATOM      3  S   UNL     1       5.523   5.774  18.223  0.00  0.00    +0.000 S 
ATOM      4  C   UNL     1       4.666   4.425  18.967  0.00  0.00    +0.000 C 
ATOM      5  N   UNL     1       5.288   3.494  19.586  0.00  0.00    +0.000 NA
ATOM      6  S   UNL     1       4.379   2.202  19.908  0.00  0.00    +0.000 S 
ATOM      7  O   UNL     1       3.288   2.514  20.816  0.00  0.00    +0.000 OA
ATOM      8  O   UNL     1       5.229   1.068  20.150  0.00  0.00    +0.000 OA
ATOM      9  C   UNL     1       3.692   1.988  18.276  0.00  0.00    +0.000 C 
ATOM     10  C   UNL     1       2.993   3.275  17.798  0.00  0.00    +0.000 C 
ATOM     11  N   UNL     1       3.310   4.482  18.631  0.00  0.00    +0.000 N 
ENDROOT
BRANCH   1  17
ATOM     12  C   UNL     1       0.874   9.600  22.202  0.00  0.00    +0.000 C 
ATOM     13  C   UNL     1       1.164   8.647  21.079  0.00  0.00    +0.000 A 
ATOM     14  C   UNL     1       1.497   9.073  19.798  0.00  0.00    +0.000 A 
ATOM     15  C   UNL     1       1.926   8.167  18.781  0.00  0.00    +0.000 A 
ATOM     16  C   UNL     1       2.325   8.823  17.483  0.00  0.00    +0.000 C 
ATOM     17  C   UNL     1       2.023   6.760  19.041  0.00  0.00    +0.000 A 
ATOM     18  C   UNL     1       1.564   6.340  20.330  0.00  0.00    +0.000 A 
ATOM     19  C   UNL     1       1.618   4.926  20.843  0.00  0.00    +0.000 C 
ATOM     20  C   UNL     1       1.170   7.282  21.317  0.00  0.00    +0.000 A 
ENDBRANCH   1  17
TORSDOF 1
ENDMDL
