MODEL 1
REMARK VINA RESULT:      -7.5      0.000      0.000
REMARK  Name = 
REMARK  5 active torsions:
REMARK  status: ('A' for Active; 'I' for Inactive)
REMARK    1  A    between atoms: C_1  and  N_2
REMARK    2  A    between atoms: C_3  and  S_4
REMARK    3  A    between atoms: S_4  and  C_5
REMARK    4  A    between atoms: C_5  and  C_6
REMARK    5  A    between atoms: C_16  and  C_17
REMARK                            x       y       z     vdW  Elec       q    Type
REMARK                         _______ _______ _______ _____ _____    ______ ____
ROOT
ATOM      1  C   UNL     1       1.474   7.870  20.895  0.00  0.00    +0.000 C 
ATOM      2  N   UNL     1       1.601   8.411  19.566  0.00  0.00    +0.000 N 
ATOM      3  C   UNL     1       1.220   9.655  19.132  0.00  0.00    +0.000 A 
ATOM      4  N   UNL     1       1.658   9.846  17.912  0.00  0.00    +0.000 NA
ATOM      5  N   UNL     1       2.298   8.696  17.513  0.00  0.00    +0.000 NA
ATOM      6  C   UNL     1       2.214   7.800  18.482  0.00  0.00    +0.000 A 
ENDROOT
BRANCH   6   7
ATOM      7  C   UNL     1       2.722   6.418  18.394  0.00  0.00    +0.000 A 
ATOM      8  C   UNL     1       4.059   6.103  18.793  0.00  0.00    +0.000 A 
ATOM      9  C   UNL     1       4.631   4.814  18.722  0.00  0.00    +0.000 A 
ATOM     10  C   UNL     1       3.758   3.816  18.265  0.00  0.00    +0.000 A 
ATOM     11  N   UNL     1       3.982   2.508  18.095  0.00  0.00    +0.000 NA
ATOM     12  O   UNL     1       2.782   1.978  17.647  0.00  0.00    +0.000 OA
ATOM     13  N   UNL     1       1.803   2.951  17.524  0.00  0.00    +0.000 NA
ATOM     14  C   UNL     1       2.379   4.100  17.896  0.00  0.00    +0.000 A 
ATOM     15  C   UNL     1       1.837   5.402  17.957  0.00  0.00    +0.000 A 
ENDBRANCH   6   7
BRANCH   3  16
ATOM     16  S   UNL     1       0.288  10.779  20.069  0.00  0.00    +0.000 S 
BRANCH  16  17
ATOM     17  C   UNL     1      -0.496  11.757  18.746  0.00  0.00    +0.000 C 
BRANCH  17  18
ATOM     18  C   UNL     1      -2.012  11.687  18.773  0.00  0.00    +0.000 A 
ATOM     19  C   UNL     1      -2.772  12.469  19.664  0.00  0.00    +0.000 A 
ATOM     20 CL   UNL     1      -2.041  13.515  20.833  0.00  0.00    +0.000 Cl
ATOM     21  C   UNL     1      -4.173  12.444  19.644  0.00  0.00    +0.000 A 
ATOM     22  C   UNL     1      -4.854  11.626  18.745  0.00  0.00    +0.000 A 
ATOM     23  C   UNL     1      -4.126  10.825  17.872  0.00  0.00    +0.000 A 
ATOM     24  C   UNL     1      -2.723  10.850  17.888  0.00  0.00    +0.000 A 
ATOM     25 CL   UNL     1      -1.918   9.816  16.756  0.00  0.00    +0.000 Cl
ENDBRANCH  17  18
ENDBRANCH  16  17
ENDBRANCH   3  16
TORSDOF 4
ENDMDL
MODEL 2
REMARK VINA RESULT:      -7.3      1.383      1.758
REMARK  Name = 
REMARK  5 active torsions:
REMARK  status: ('A' for Active; 'I' for Inactive)
REMARK    1  A    between atoms: C_1  and  N_2
REMARK    2  A    between atoms: C_3  and  S_4
REMARK    3  A    between atoms: S_4  and  C_5
REMARK    4  A    between atoms: C_5  and  C_6
REMARK    5  A    between atoms: C_16  and  C_17
REMARK                            x       y       z     vdW  Elec       q    Type
REMARK                         _______ _______ _______ _____ _____    ______ ____
ROOT
ATOM      1  C   UNL     1       1.507   7.876  20.741  0.00  0.00    +0.000 C 
ATOM      2  N   UNL     1       1.512   8.651  19.527  0.00  0.00    +0.000 N 
ATOM      3  C   UNL     1       0.976   9.898  19.331  0.00  0.00    +0.000 A 
ATOM      4  N   UNL     1       1.334  10.348  18.154  0.00  0.00    +0.000 NA
ATOM      5  N   UNL     1       2.078   9.369  17.540  0.00  0.00    +0.000 NA
ATOM      6  C   UNL     1       2.139   8.314  18.336  0.00  0.00    +0.000 A 
ENDROOT
BRANCH   6   7
ATOM      7  C   UNL     1       2.793   7.037  17.991  0.00  0.00    +0.000 A 
ATOM      8  C   UNL     1       2.088   5.798  18.111  0.00  0.00    +0.000 A 
ATOM      9  C   UNL     1       2.644   4.533  17.822  0.00  0.00    +0.000 A 
ATOM     10  C   UNL     1       3.964   4.573  17.347  0.00  0.00    +0.000 A 
ATOM     11  N   UNL     1       4.761   3.564  16.978  0.00  0.00    +0.000 NA
ATOM     12  O   UNL     1       5.946   4.156  16.568  0.00  0.00    +0.000 OA
ATOM     13  N   UNL     1       5.902   5.535  16.689  0.00  0.00    +0.000 NA
ATOM     14  C   UNL     1       4.688   5.823  17.171  0.00  0.00    +0.000 A 
ATOM     15  C   UNL     1       4.116   7.074  17.487  0.00  0.00    +0.000 A 
ENDBRANCH   6   7
BRANCH   3  16
ATOM     16  S   UNL     1      -0.032  10.724  20.476  0.00  0.00    +0.000 S 
BRANCH  16  17
ATOM     17  C   UNL     1      -0.700  12.064  19.437  0.00  0.00    +0.000 C 
BRANCH  17  18
ATOM     18  C   UNL     1      -2.214  12.032  19.328  0.00  0.00    +0.000 A 
ATOM     19  C   UNL     1      -3.035  12.732  20.234  0.00  0.00    +0.000 A 
ATOM     20 CL   UNL     1      -2.390  13.622  21.570  0.00  0.00    +0.000 Cl
ATOM     21  C   UNL     1      -4.429  12.747  20.093  0.00  0.00    +0.000 A 
ATOM     22  C   UNL     1      -5.043  12.052  19.053  0.00  0.00    +0.000 A 
ATOM     23  C   UNL     1      -4.256  11.333  18.160  0.00  0.00    +0.000 A 
ATOM     24  C   UNL     1      -2.860  11.318  18.297  0.00  0.00    +0.000 A 
ATOM     25 CL   UNL     1      -1.978  10.394  17.129  0.00  0.00    +0.000 Cl
ENDBRANCH  17  18
ENDBRANCH  16  17
ENDBRANCH   3  16
TORSDOF 4
ENDMDL
MODEL 3
REMARK VINA RESULT:      -7.3      0.832      2.339
REMARK  Name = 
REMARK  5 active torsions:
REMARK  status: ('A' for Active; 'I' for Inactive)
REMARK    1  A    between atoms: C_1  and  N_2
REMARK    2  A    between atoms: C_3  and  S_4
REMARK    3  A    between atoms: S_4  and  C_5
REMARK    4  A    between atoms: C_5  and  C_6
REMARK    5  A    between atoms: C_16  and  C_17
REMARK                            x       y       z     vdW  Elec       q    Type
REMARK                         _______ _______ _______ _____ _____    ______ ____
ROOT
ATOM      1  C   UNL     1       1.305   8.078  20.953  0.00  0.00    +0.000 C 
ATOM      2  N   UNL     1       1.506   8.549  19.606  0.00  0.00    +0.000 N 
ATOM      3  C   UNL     1       1.200   9.788  19.103  0.00  0.00    +0.000 A 
ATOM      4  N   UNL     1       1.691   9.901  17.893  0.00  0.00    +0.000 NA
ATOM      5  N   UNL     1       2.289   8.706  17.571  0.00  0.00    +0.000 NA
ATOM      6  C   UNL     1       2.127   7.861  18.576  0.00  0.00    +0.000 A 
ENDROOT
BRANCH   6   7
ATOM      7  C   UNL     1       2.572   6.454  18.570  0.00  0.00    +0.000 A 
ATOM      8  C   UNL     1       1.764   5.434  17.976  0.00  0.00    +0.000 A 
ATOM      9  C   UNL     1       2.104   4.064  17.945  0.00  0.00    +0.000 A 
ATOM     10  C   UNL     1       3.351   3.762  18.511  0.00  0.00    +0.000 A 
ATOM     11  N   UNL     1       3.962   2.578  18.629  0.00  0.00    +0.000 NA
ATOM     12  O   UNL     1       5.178   2.845  19.240  0.00  0.00    +0.000 OA
ATOM     13  N   UNL     1       5.330   4.193  19.518  0.00  0.00    +0.000 NA
ATOM     14  C   UNL     1       4.213   4.786  19.081  0.00  0.00    +0.000 A 
ATOM     15  C   UNL     1       3.842   6.148  19.118  0.00  0.00    +0.000 A 
ENDBRANCH   6   7
BRANCH   3  16
ATOM     16  S   UNL     1       0.290  10.996  19.952  0.00  0.00    +0.000 S 
BRANCH  16  17
ATOM     17  C   UNL     1      -0.529  11.845  18.561  0.00  0.00    +0.000 C 
BRANCH  17  18
ATOM     18  C   UNL     1      -2.043  11.758  18.621  0.00  0.00    +0.000 A 
ATOM     19  C   UNL     1      -2.766  10.871  17.801  0.00  0.00    +0.000 A 
ATOM     20 CL   UNL     1      -1.996   9.864  16.623  0.00  0.00    +0.000 Cl
ATOM     21  C   UNL     1      -4.159  10.753  17.903  0.00  0.00    +0.000 A 
ATOM     22  C   UNL     1      -4.870  11.529  18.815  0.00  0.00    +0.000 A 
ATOM     23  C   UNL     1      -4.182  12.431  19.620  0.00  0.00    +0.000 A 
ATOM     24  C   UNL     1      -2.787  12.549  19.522  0.00  0.00    +0.000 A 
ATOM     25 CL   UNL     1      -2.033  13.700  20.573  0.00  0.00    +0.000 Cl
ENDBRANCH  17  18
ENDBRANCH  16  17
ENDBRANCH   3  16
TORSDOF 4
ENDMDL
MODEL 4
REMARK VINA RESULT:      -7.3      1.438      2.563
REMARK  Name = 
REMARK  5 active torsions:
REMARK  status: ('A' for Active; 'I' for Inactive)
REMARK    1  A    between atoms: C_1  and  N_2
REMARK    2  A    between atoms: C_3  and  S_4
REMARK    3  A    between atoms: S_4  and  C_5
REMARK    4  A    between atoms: C_5  and  C_6
REMARK    5  A    between atoms: C_16  and  C_17
REMARK                            x       y       z     vdW  Elec       q    Type
REMARK                         _______ _______ _______ _____ _____    ______ ____
ROOT
ATOM      1  C   UNL     1       1.552   7.709  20.689  0.00  0.00    +0.000 C 
ATOM      2  N   UNL     1       1.557   8.514  19.494  0.00  0.00    +0.000 N 
ATOM      3  C   UNL     1       0.999   9.755  19.321  0.00  0.00    +0.000 A 
ATOM      4  N   UNL     1       1.363  10.240  18.160  0.00  0.00    +0.000 NA
ATOM      5  N   UNL     1       2.135   9.291  17.533  0.00  0.00    +0.000 NA
ATOM      6  C   UNL     1       2.206   8.219  18.304  0.00  0.00    +0.000 A 
ENDROOT
BRANCH   6   7
ATOM      7  C   UNL     1       2.889   6.964  17.937  0.00  0.00    +0.000 A 
ATOM      8  C   UNL     1       2.223   5.704  18.060  0.00  0.00    +0.000 A 
ATOM      9  C   UNL     1       2.810   4.457  17.751  0.00  0.00    +0.000 A 
ATOM     10  C   UNL     1       4.118   4.539  17.251  0.00  0.00    +0.000 A 
ATOM     11  N   UNL     1       4.936   3.556  16.860  0.00  0.00    +0.000 NA
ATOM     12  O   UNL     1       6.096   4.184  16.433  0.00  0.00    +0.000 OA
ATOM     13  N   UNL     1       6.015   5.561  16.565  0.00  0.00    +0.000 NA
ATOM     14  C   UNL     1       4.803   5.810  17.072  0.00  0.00    +0.000 A 
ATOM     15  C   UNL     1       4.201   7.043  17.408  0.00  0.00    +0.000 A 
ENDBRANCH   6   7
BRANCH   3  16
ATOM     16  S   UNL     1      -0.040  10.533  20.472  0.00  0.00    +0.000 S 
BRANCH  16  17
ATOM     17  C   UNL     1      -0.598  11.974  19.507  0.00  0.00    +0.000 C 
BRANCH  17  18
ATOM     18  C   UNL     1      -2.108  12.044  19.362  0.00  0.00    +0.000 A 
ATOM     19  C   UNL     1      -2.785  11.347  18.343  0.00  0.00    +0.000 A 
ATOM     20 CL   UNL     1      -1.953  10.418  17.145  0.00  0.00    +0.000 Cl
ATOM     21  C   UNL     1      -4.184  11.367  18.251  0.00  0.00    +0.000 A 
ATOM     22  C   UNL     1      -4.943  12.096  19.164  0.00  0.00    +0.000 A 
ATOM     23  C   UNL     1      -4.296  12.813  20.165  0.00  0.00    +0.000 A 
ATOM     24  C   UNL     1      -2.897  12.792  20.261  0.00  0.00    +0.000 A 
ATOM     25 CL   UNL     1      -2.196  13.716  21.547  0.00  0.00    +0.000 Cl
ENDBRANCH  17  18
ENDBRANCH  16  17
ENDBRANCH   3  16
TORSDOF 4
ENDMDL
MODEL 5
REMARK VINA RESULT:      -7.2      1.393      1.734
REMARK  Name = 
REMARK  5 active torsions:
REMARK  status: ('A' for Active; 'I' for Inactive)
REMARK    1  A    between atoms: C_1  and  N_2
REMARK    2  A    between atoms: C_3  and  S_4
REMARK    3  A    between atoms: S_4  and  C_5
REMARK    4  A    between atoms: C_5  and  C_6
REMARK    5  A    between atoms: C_16  and  C_17
REMARK                            x       y       z     vdW  Elec       q    Type
REMARK                         _______ _______ _______ _____ _____    ______ ____
ROOT
ATOM      1  C   UNL     1       1.059   8.664  21.801  0.00  0.00    +0.000 C 
ATOM      2  N   UNL     1       1.217   8.870  20.384  0.00  0.00    +0.000 N 
ATOM      3  C   UNL     1       0.894   9.991  19.664  0.00  0.00    +0.000 A 
ATOM      4  N   UNL     1       1.347   9.870  18.440  0.00  0.00    +0.000 NA
ATOM      5  N   UNL     1       1.937   8.633  18.333  0.00  0.00    +0.000 NA
ATOM      6  C   UNL     1       1.808   7.995  19.485  0.00  0.00    +0.000 A 
ENDROOT
BRANCH   6   7
ATOM      7  C   UNL     1       2.254   6.611  19.733  0.00  0.00    +0.000 A 
ATOM      8  C   UNL     1       1.416   5.686  20.431  0.00  0.00    +0.000 A 
ATOM      9  C   UNL     1       1.773   4.352  20.728  0.00  0.00    +0.000 A 
ATOM     10  C   UNL     1       3.028   3.964  20.236  0.00  0.00    +0.000 A 
ATOM     11  N   UNL     1       3.647   2.782  20.336  0.00  0.00    +0.000 NA
ATOM     12  O   UNL     1       4.846   2.931  19.657  0.00  0.00    +0.000 OA
ATOM     13  N   UNL     1       4.991   4.207  19.139  0.00  0.00    +0.000 NA
ATOM     14  C   UNL     1       3.881   4.871  19.484  0.00  0.00    +0.000 A 
ATOM     15  C   UNL     1       3.510   6.207  19.217  0.00  0.00    +0.000 A 
ENDBRANCH   6   7
BRANCH   3  16
ATOM     16  S   UNL     1       0.008  11.343  20.295  0.00  0.00    +0.000 S 
BRANCH  16  17
ATOM     17  C   UNL     1      -0.773  11.976  18.775  0.00  0.00    +0.000 C 
BRANCH  17  18
ATOM     18  C   UNL     1      -2.272  11.735  18.732  0.00  0.00    +0.000 A 
ATOM     19  C   UNL     1      -3.162  12.475  19.533  0.00  0.00    +0.000 A 
ATOM     20 CL   UNL     1      -2.619  13.663  20.667  0.00  0.00    +0.000 Cl
ATOM     21  C   UNL     1      -4.549  12.289  19.446  0.00  0.00    +0.000 A 
ATOM     22  C   UNL     1      -5.083  11.349  18.568  0.00  0.00    +0.000 A 
ATOM     23  C   UNL     1      -4.223  10.587  17.784  0.00  0.00    +0.000 A 
ATOM     24  C   UNL     1      -2.835  10.773  17.867  0.00  0.00    +0.000 A 
ATOM     25 CL   UNL     1      -1.858   9.775  16.845  0.00  0.00    +0.000 Cl
ENDBRANCH  17  18
ENDBRANCH  16  17
ENDBRANCH   3  16
TORSDOF 4
ENDMDL
MODEL 6
REMARK VINA RESULT:      -7.1      1.978      2.839
REMARK  Name = 
REMARK  5 active torsions:
REMARK  status: ('A' for Active; 'I' for Inactive)
REMARK    1  A    between atoms: C_1  and  N_2
REMARK    2  A    between atoms: C_3  and  S_4
REMARK    3  A    between atoms: S_4  and  C_5
REMARK    4  A    between atoms: C_5  and  C_6
REMARK    5  A    between atoms: C_16  and  C_17
REMARK                            x       y       z     vdW  Elec       q    Type
REMARK                         _______ _______ _______ _____ _____    ______ ____
ROOT
ATOM      1  C   UNL     1       1.749   7.939  20.676  0.00  0.00    +0.000 C 
ATOM      2  N   UNL     1       1.944   8.229  19.278  0.00  0.00    +0.000 N 
ATOM      3  C   UNL     1       1.778   9.434  18.645  0.00  0.00    +0.000 A 
ATOM      4  N   UNL     1       2.220   9.346  17.414  0.00  0.00    +0.000 NA
ATOM      5  N   UNL     1       2.642   8.053  17.213  0.00  0.00    +0.000 NA
ATOM      6  C   UNL     1       2.420   7.354  18.313  0.00  0.00    +0.000 A 
ENDROOT
BRANCH   6   7
ATOM      7  C   UNL     1       2.677   5.908  18.455  0.00  0.00    +0.000 A 
ATOM      8  C   UNL     1       1.760   4.946  17.925  0.00  0.00    +0.000 A 
ATOM      9  C   UNL     1       1.918   3.547  18.035  0.00  0.00    +0.000 A 
ATOM     10  C   UNL     1       3.098   3.145  18.677  0.00  0.00    +0.000 A 
ATOM     11  N   UNL     1       3.546   1.910  18.929  0.00  0.00    +0.000 NA
ATOM     12  O   UNL     1       4.768   2.077  19.562  0.00  0.00    +0.000 OA
ATOM     13  N   UNL     1       5.087   3.416  19.721  0.00  0.00    +0.000 NA
ATOM     14  C   UNL     1       4.070   4.101  19.185  0.00  0.00    +0.000 A 
ATOM     15  C   UNL     1       3.879   5.496  19.082  0.00  0.00    +0.000 A 
ENDBRANCH   6   7
BRANCH   3  16
ATOM     16  S   UNL     1       1.075  10.840  19.378  0.00  0.00    +0.000 S 
BRANCH  16  17
ATOM     17  C   UNL     1      -0.468  10.139  20.049  0.00  0.00    +0.000 C 
BRANCH  17  18
ATOM     18  C   UNL     1      -1.212  11.100  20.959  0.00  0.00    +0.000 A 
ATOM     19  C   UNL     1      -2.048  12.108  20.443  0.00  0.00    +0.000 A 
ATOM     20 CL   UNL     1      -2.243  12.371  18.744  0.00  0.00    +0.000 Cl
ATOM     21  C   UNL     1      -2.778  12.954  21.289  0.00  0.00    +0.000 A 
ATOM     22  C   UNL     1      -2.681  12.827  22.673  0.00  0.00    +0.000 A 
ATOM     23  C   UNL     1      -1.842  11.856  23.208  0.00  0.00    +0.000 A 
ATOM     24  C   UNL     1      -1.112  11.005  22.363  0.00  0.00    +0.000 A 
ATOM     25 CL   UNL     1      -0.102   9.830  23.134  0.00  0.00    +0.000 Cl
ENDBRANCH  17  18
ENDBRANCH  16  17
ENDBRANCH   3  16
TORSDOF 4
ENDMDL
MODEL 7
REMARK VINA RESULT:      -7.1      1.969      2.677
REMARK  Name = 
REMARK  5 active torsions:
REMARK  status: ('A' for Active; 'I' for Inactive)
REMARK    1  A    between atoms: C_1  and  N_2
REMARK    2  A    between atoms: C_3  and  S_4
REMARK    3  A    between atoms: S_4  and  C_5
REMARK    4  A    between atoms: C_5  and  C_6
REMARK    5  A    between atoms: C_16  and  C_17
REMARK                            x       y       z     vdW  Elec       q    Type
REMARK                         _______ _______ _______ _____ _____    ______ ____
ROOT
ATOM      1  C   UNL     1       1.696   7.845  20.698  0.00  0.00    +0.000 C 
ATOM      2  N   UNL     1       1.919   8.157  19.309  0.00  0.00    +0.000 N 
ATOM      3  C   UNL     1       1.803   9.381  18.701  0.00  0.00    +0.000 A 
ATOM      4  N   UNL     1       2.258   9.303  17.474  0.00  0.00    +0.000 NA
ATOM      5  N   UNL     1       2.638   8.001  17.249  0.00  0.00    +0.000 NA
ATOM      6  C   UNL     1       2.378   7.287  18.332  0.00  0.00    +0.000 A 
ENDROOT
BRANCH   6   7
ATOM      7  C   UNL     1       2.583   5.830  18.445  0.00  0.00    +0.000 A 
ATOM      8  C   UNL     1       1.642   4.912  17.882  0.00  0.00    +0.000 A 
ATOM      9  C   UNL     1       1.751   3.507  17.962  0.00  0.00    +0.000 A 
ATOM     10  C   UNL     1       2.907   3.050  18.612  0.00  0.00    +0.000 A 
ATOM     11  N   UNL     1       3.309   1.796  18.843  0.00  0.00    +0.000 NA
ATOM     12  O   UNL     1       4.526   1.907  19.496  0.00  0.00    +0.000 OA
ATOM     13  N   UNL     1       4.889   3.231  19.689  0.00  0.00    +0.000 NA
ATOM     14  C   UNL     1       3.904   3.962  19.155  0.00  0.00    +0.000 A 
ATOM     15  C   UNL     1       3.761   5.364  19.079  0.00  0.00    +0.000 A 
ENDBRANCH   6   7
BRANCH   3  16
ATOM     16  S   UNL     1       1.139  10.794  19.455  0.00  0.00    +0.000 S 
BRANCH  16  17
ATOM     17  C   UNL     1      -0.462  10.147  20.040  0.00  0.00    +0.000 C 
BRANCH  17  18
ATOM     18  C   UNL     1      -1.197  11.115  20.949  0.00  0.00    +0.000 A 
ATOM     19  C   UNL     1      -1.081  11.045  22.351  0.00  0.00    +0.000 A 
ATOM     20 CL   UNL     1      -0.152   9.820  23.143  0.00  0.00    +0.000 Cl
ATOM     21  C   UNL     1      -1.715  11.978  23.183  0.00  0.00    +0.000 A 
ATOM     22  C   UNL     1      -2.495  12.997  22.639  0.00  0.00    +0.000 A 
ATOM     23  C   UNL     1      -2.645  13.073  21.259  0.00  0.00    +0.000 A 
ATOM     24  C   UNL     1      -2.009  12.142  20.424  0.00  0.00    +0.000 A 
ATOM     25 CL   UNL     1      -2.262  12.332  18.721  0.00  0.00    +0.000 Cl
ENDBRANCH  17  18
ENDBRANCH  16  17
ENDBRANCH   3  16
TORSDOF 4
ENDMDL
MODEL 8
REMARK VINA RESULT:      -7.1      2.244      3.147
REMARK  Name = 
REMARK  5 active torsions:
REMARK  status: ('A' for Active; 'I' for Inactive)
REMARK    1  A    between atoms: C_1  and  N_2
REMARK    2  A    between atoms: C_3  and  S_4
REMARK    3  A    between atoms: S_4  and  C_5
REMARK    4  A    between atoms: C_5  and  C_6
REMARK    5  A    between atoms: C_16  and  C_17
REMARK                            x       y       z     vdW  Elec       q    Type
REMARK                         _______ _______ _______ _____ _____    ______ ____
ROOT
ATOM      1  C   UNL     1       2.208   6.671  20.199  0.00  0.00    +0.000 C 
ATOM      2  N   UNL     1       2.194   7.698  19.188  0.00  0.00    +0.000 N 
ATOM      3  C   UNL     1       1.477   8.867  19.197  0.00  0.00    +0.000 A 
ATOM      4  N   UNL     1       1.860   9.622  18.197  0.00  0.00    +0.000 NA
ATOM      5  N   UNL     1       2.811   8.927  17.488  0.00  0.00    +0.000 NA
ATOM      6  C   UNL     1       2.974   7.737  18.042  0.00  0.00    +0.000 A 
ENDROOT
BRANCH   6   7
ATOM      7  C   UNL     1       3.861   6.681  17.518  0.00  0.00    +0.000 A 
ATOM      8  C   UNL     1       3.426   5.319  17.466  0.00  0.00    +0.000 A 
ATOM      9  C   UNL     1       4.217   4.246  17.000  0.00  0.00    +0.000 A 
ATOM     10  C   UNL     1       5.484   4.620  16.529  0.00  0.00    +0.000 A 
ATOM     11  N   UNL     1       6.457   3.856  16.019  0.00  0.00    +0.000 NA
ATOM     12  O   UNL     1       7.483   4.728  15.692  0.00  0.00    +0.000 OA
ATOM     13  N   UNL     1       7.166   6.040  16.006  0.00  0.00    +0.000 NA
ATOM     14  C   UNL     1       5.935   6.004  16.529  0.00  0.00    +0.000 A 
ATOM     15  C   UNL     1       5.132   7.057  17.019  0.00  0.00    +0.000 A 
ENDBRANCH   6   7
BRANCH   3  16
ATOM     16  S   UNL     1       0.245   9.255  20.355  0.00  0.00    +0.000 S 
BRANCH  16  17
ATOM     17  C   UNL     1       0.198  11.071  20.206  0.00  0.00    +0.000 C 
BRANCH  17  18
ATOM     18  C   UNL     1      -1.213  11.625  20.134  0.00  0.00    +0.000 A 
ATOM     19  C   UNL     1      -2.017  11.453  18.990  0.00  0.00    +0.000 A 
ATOM     20 CL   UNL     1      -1.441  10.660  17.565  0.00  0.00    +0.000 Cl
ATOM     21  C   UNL     1      -3.340  11.915  18.952  0.00  0.00    +0.000 A 
ATOM     22  C   UNL     1      -3.891  12.575  20.048  0.00  0.00    +0.000 A 
ATOM     23  C   UNL     1      -3.110  12.779  21.180  0.00  0.00    +0.000 A 
ATOM     24  C   UNL     1      -1.787  12.315  21.222  0.00  0.00    +0.000 A 
ATOM     25 CL   UNL     1      -0.906  12.621  22.682  0.00  0.00    +0.000 Cl
ENDBRANCH  17  18
ENDBRANCH  16  17
ENDBRANCH   3  16
TORSDOF 4
ENDMDL
MODEL 9
REMARK VINA RESULT:      -7.1      2.735      3.438
REMARK  Name = 
REMARK  5 active torsions:
REMARK  status: ('A' for Active; 'I' for Inactive)
REMARK    1  A    between atoms: C_1  and  N_2
REMARK    2  A    between atoms: C_3  and  S_4
REMARK    3  A    between atoms: S_4  and  C_5
REMARK    4  A    between atoms: C_5  and  C_6
REMARK    5  A    between atoms: C_16  and  C_17
REMARK                            x       y       z     vdW  Elec       q    Type
REMARK                         _______ _______ _______ _____ _____    ______ ____
ROOT
ATOM      1  C   UNL     1       2.355   6.718  20.279  0.00  0.00    +0.000 C 
ATOM      2  N   UNL     1       2.217   7.663  19.201  0.00  0.00    +0.000 N 
ATOM      3  C   UNL     1       1.417   8.776  19.165  0.00  0.00    +0.000 A 
ATOM      4  N   UNL     1       1.695   9.480  18.095  0.00  0.00    +0.000 NA
ATOM      5  N   UNL     1       2.660   8.803  17.388  0.00  0.00    +0.000 NA
ATOM      6  C   UNL     1       2.936   7.672  18.015  0.00  0.00    +0.000 A 
ENDROOT
BRANCH   6   7
ATOM      7  C   UNL     1       3.873   6.644  17.521  0.00  0.00    +0.000 A 
ATOM      8  C   UNL     1       3.471   5.275  17.420  0.00  0.00    +0.000 A 
ATOM      9  C   UNL     1       4.309   4.228  16.977  0.00  0.00    +0.000 A 
ATOM     10  C   UNL     1       5.592   4.637  16.583  0.00  0.00    +0.000 A 
ATOM     11  N   UNL     1       6.606   3.904  16.112  0.00  0.00    +0.000 NA
ATOM     12  O   UNL     1       7.630   4.803  15.858  0.00  0.00    +0.000 OA
ATOM     13  N   UNL     1       7.268   6.102  16.178  0.00  0.00    +0.000 NA
ATOM     14  C   UNL     1       6.011   6.030  16.633  0.00  0.00    +0.000 A 
ATOM     15  C   UNL     1       5.161   7.056  17.098  0.00  0.00    +0.000 A 
ENDBRANCH   6   7
BRANCH   3  16
ATOM     16  S   UNL     1       0.216   9.161  20.357  0.00  0.00    +0.000 S 
BRANCH  16  17
ATOM     17  C   UNL     1       0.549  10.935  20.613  0.00  0.00    +0.000 C 
BRANCH  17  18
ATOM     18  C   UNL     1      -0.616  11.672  21.247  0.00  0.00    +0.000 A 
ATOM     19  C   UNL     1      -1.254  12.745  20.596  0.00  0.00    +0.000 A 
ATOM     20 CL   UNL     1      -0.723  13.346  19.063  0.00  0.00    +0.000 Cl
ATOM     21  C   UNL     1      -2.367  13.384  21.160  0.00  0.00    +0.000 A 
ATOM     22  C   UNL     1      -2.865  12.978  22.397  0.00  0.00    +0.000 A 
ATOM     23  C   UNL     1      -2.237  11.937  23.072  0.00  0.00    +0.000 A 
ATOM     24  C   UNL     1      -1.124  11.294  22.508  0.00  0.00    +0.000 A 
ATOM     25 CL   UNL     1      -0.423  10.009  23.432  0.00  0.00    +0.000 Cl
ENDBRANCH  17  18
ENDBRANCH  16  17
ENDBRANCH   3  16
TORSDOF 4
ENDMDL
