MODEL 1
REMARK VINA RESULT:      -8.4      0.000      0.000
REMARK  Name = 
REMARK  4 active torsions:
REMARK  status: ('A' for Active; 'I' for Inactive)
REMARK    1  A    between atoms: C_1  and  C_2
REMARK    2  A    between atoms: C_5  and  C_6
REMARK    3  A    between atoms: C_14  and  C_15
REMARK    4  A    between atoms: C_19  and  C_20
REMARK                            x       y       z     vdW  Elec       q    Type
REMARK                         _______ _______ _______ _____ _____    ______ ____
ROOT
ATOM      1  C   UNL     1       6.335   4.160  13.352  0.00  0.00    +0.000 A 
ATOM      2  C   UNL     1       7.556   4.757  13.148  0.00  0.00    +0.000 A 
ATOM      3  N   UNL     1       8.105   5.514  14.107  0.00  0.00    +0.000 NA
ATOM      4  N   UNL     1       7.423   5.656  15.280  0.00  0.00    +0.000 NA
ATOM      5  C   UNL     1       6.232   5.038  15.475  0.00  0.00    +0.000 A 
ATOM      6  N   UNL     1       5.582   5.194  16.678  0.00  0.00    +0.000 N 
ATOM      7  C   UNL     1       6.340   5.482  17.886  0.00  0.00    +0.000 C 
ATOM      8  C   UNL     1       5.681   4.610  18.956  0.00  0.00    +0.000 C 
ATOM      9  C   UNL     1       4.231   4.441  18.484  0.00  0.00    +0.000 C 
ATOM     10  C   UNL     1       4.360   4.449  16.946  0.00  0.00    +0.000 C 
ATOM     11  N   UNL     1       5.657   4.287  14.518  0.00  0.00    +0.000 NA
ENDROOT
BRANCH   1  16
ATOM     12  C   UNL     1       2.927   3.562  10.005  0.00  0.00    +0.000 C 
ATOM     13  C   UNL     1       4.088   3.108  10.797  0.00  0.00    +0.000 A 
ATOM     14  C   UNL     1       4.799   1.929  10.842  0.00  0.00    +0.000 A 
ATOM     15  C   UNL     1       5.822   2.118  11.804  0.00  0.00    +0.000 A 
ATOM     16  C   UNL     1       5.663   3.392  12.313  0.00  0.00    +0.000 A 
ATOM     17  O   UNL     1       4.607   4.001  11.685  0.00  0.00    +0.000 OA
ENDBRANCH   1  16
BRANCH   9  18
ATOM     18  C   UNL     1       3.314   5.488  19.091  0.00  0.00    +0.000 A 
ATOM     19  C   UNL     1       2.648   5.296  20.311  0.00  0.00    +0.000 A 
ATOM     20  C   UNL     1       1.792   6.272  20.823  0.00  0.00    +0.000 A 
ATOM     21  C   UNL     1       1.580   7.459  20.120  0.00  0.00    +0.000 A 
ATOM     22  C   UNL     1       2.237   7.671  18.907  0.00  0.00    +0.000 A 
ATOM     23  C   UNL     1       3.096   6.691  18.394  0.00  0.00    +0.000 A 
BRANCH  22  24
ATOM     24  C   UNL     1       2.029   8.891  18.186  0.00  0.00    +0.000 C 
ATOM     25  N   UNL     1       1.864   9.883  17.603  0.00  0.00    +0.000 NA
ENDBRANCH  22  24
ENDBRANCH   9  18
TORSDOF 3
ENDMDL
MODEL 2
REMARK VINA RESULT:      -8.3      1.947      3.431
REMARK  Name = 
REMARK  4 active torsions:
REMARK  status: ('A' for Active; 'I' for Inactive)
REMARK    1  A    between atoms: C_1  and  C_2
REMARK    2  A    between atoms: C_5  and  C_6
REMARK    3  A    between atoms: C_14  and  C_15
REMARK    4  A    between atoms: C_19  and  C_20
REMARK                            x       y       z     vdW  Elec       q    Type
REMARK                         _______ _______ _______ _____ _____    ______ ____
ROOT
ATOM      1  C   UNL     1       6.774   4.709  16.059  0.00  0.00    +0.000 A 
ATOM      2  C   UNL     1       7.797   4.298  16.880  0.00  0.00    +0.000 A 
ATOM      3  N   UNL     1       7.712   4.478  18.204  0.00  0.00    +0.000 NA
ATOM      4  N   UNL     1       6.583   5.062  18.701  0.00  0.00    +0.000 NA
ATOM      5  C   UNL     1       5.571   5.436  17.878  0.00  0.00    +0.000 A 
ATOM      6  N   UNL     1       4.442   6.009  18.419  0.00  0.00    +0.000 N 
ATOM      7  C   UNL     1       4.054   5.707  19.789  0.00  0.00    +0.000 C 
ATOM      8  C   UNL     1       2.536   5.539  19.717  0.00  0.00    +0.000 C 
ATOM      9  C   UNL     1       2.102   6.410  18.531  0.00  0.00    +0.000 C 
ATOM     10  C   UNL     1       3.302   6.312  17.567  0.00  0.00    +0.000 C 
ATOM     11  N   UNL     1       5.646   5.279  16.545  0.00  0.00    +0.000 NA
ENDROOT
BRANCH   1  16
ATOM     12  C   UNL     1       5.479   2.803  11.832  0.00  0.00    +0.000 C 
ATOM     13  C   UNL     1       6.279   3.715  12.675  0.00  0.00    +0.000 A 
ATOM     14  C   UNL     1       7.278   4.622  12.402  0.00  0.00    +0.000 A 
ATOM     15  C   UNL     1       7.636   5.206  13.642  0.00  0.00    +0.000 A 
ATOM     16  C   UNL     1       6.853   4.604  14.608  0.00  0.00    +0.000 A 
ATOM     17  O   UNL     1       6.014   3.700  14.011  0.00  0.00    +0.000 OA
ENDBRANCH   1  16
BRANCH   9  18
ATOM     18  C   UNL     1       1.702   7.807  18.974  0.00  0.00    +0.000 A 
ATOM     19  C   UNL     1       1.645   8.895  18.089  0.00  0.00    +0.000 A 
ATOM     20  C   UNL     1       1.298  10.169  18.539  0.00  0.00    +0.000 A 
ATOM     21  C   UNL     1       1.008  10.382  19.888  0.00  0.00    +0.000 A 
ATOM     22  C   UNL     1       1.054   9.313  20.783  0.00  0.00    +0.000 A 
ATOM     23  C   UNL     1       1.401   8.033  20.330  0.00  0.00    +0.000 A 
BRANCH  22  24
ATOM     24  C   UNL     1       0.747   9.525  22.166  0.00  0.00    +0.000 C 
ATOM     25  N   UNL     1       0.502   9.699  23.289  0.00  0.00    +0.000 NA
ENDBRANCH  22  24
ENDBRANCH   9  18
TORSDOF 3
ENDMDL
MODEL 3
REMARK VINA RESULT:      -8.0      2.365      3.850
REMARK  Name = 
REMARK  4 active torsions:
REMARK  status: ('A' for Active; 'I' for Inactive)
REMARK    1  A    between atoms: C_1  and  C_2
REMARK    2  A    between atoms: C_5  and  C_6
REMARK    3  A    between atoms: C_14  and  C_15
REMARK    4  A    between atoms: C_19  and  C_20
REMARK                            x       y       z     vdW  Elec       q    Type
REMARK                         _______ _______ _______ _____ _____    ______ ____
ROOT
ATOM      1  C   UNL     1       6.742   4.759  16.361  0.00  0.00    +0.000 A 
ATOM      2  C   UNL     1       7.717   4.324  17.226  0.00  0.00    +0.000 A 
ATOM      3  N   UNL     1       7.574   4.498  18.546  0.00  0.00    +0.000 NA
ATOM      4  N   UNL     1       6.434   5.100  18.993  0.00  0.00    +0.000 NA
ATOM      5  C   UNL     1       5.470   5.499  18.127  0.00  0.00    +0.000 A 
ATOM      6  N   UNL     1       4.328   6.090  18.618  0.00  0.00    +0.000 N 
ATOM      7  C   UNL     1       3.870   5.788  19.966  0.00  0.00    +0.000 C 
ATOM      8  C   UNL     1       2.355   5.650  19.822  0.00  0.00    +0.000 C 
ATOM      9  C   UNL     1       1.992   6.536  18.623  0.00  0.00    +0.000 C 
ATOM     10  C   UNL     1       3.234   6.420  17.715  0.00  0.00    +0.000 C 
ATOM     11  N   UNL     1       5.604   5.348  16.797  0.00  0.00    +0.000 NA
ENDROOT
BRANCH   1  16
ATOM     12  C   UNL     1       8.608   6.153  12.147  0.00  0.00    +0.000 C 
ATOM     13  C   UNL     1       7.723   5.315  12.982  0.00  0.00    +0.000 A 
ATOM     14  C   UNL     1       6.815   4.320  12.695  0.00  0.00    +0.000 A 
ATOM     15  C   UNL     1       6.291   3.889  13.938  0.00  0.00    +0.000 A 
ATOM     16  C   UNL     1       6.888   4.662  14.915  0.00  0.00    +0.000 A 
ATOM     17  O   UNL     1       7.774   5.527  14.327  0.00  0.00    +0.000 OA
ENDBRANCH   1  16
BRANCH   9  18
ATOM     18  C   UNL     1       1.599   7.938  19.056  0.00  0.00    +0.000 A 
ATOM     19  C   UNL     1       1.583   9.027  18.172  0.00  0.00    +0.000 A 
ATOM     20  C   UNL     1       1.241  10.305  18.613  0.00  0.00    +0.000 A 
ATOM     21  C   UNL     1       0.913  10.520  19.953  0.00  0.00    +0.000 A 
ATOM     22  C   UNL     1       0.918   9.450  20.847  0.00  0.00    +0.000 A 
ATOM     23  C   UNL     1       1.261   8.166  20.403  0.00  0.00    +0.000 A 
BRANCH  22  24
ATOM     24  C   UNL     1       0.573   9.664  22.221  0.00  0.00    +0.000 C 
ATOM     25  N   UNL     1       0.290   9.838  23.335  0.00  0.00    +0.000 NA
ENDBRANCH  22  24
ENDBRANCH   9  18
TORSDOF 3
ENDMDL
MODEL 4
REMARK VINA RESULT:      -8.0      0.830      1.265
REMARK  Name = 
REMARK  4 active torsions:
REMARK  status: ('A' for Active; 'I' for Inactive)
REMARK    1  A    between atoms: C_1  and  C_2
REMARK    2  A    between atoms: C_5  and  C_6
REMARK    3  A    between atoms: C_14  and  C_15
REMARK    4  A    between atoms: C_19  and  C_20
REMARK                            x       y       z     vdW  Elec       q    Type
REMARK                         _______ _______ _______ _____ _____    ______ ____
ROOT
ATOM      1  C   UNL     1       6.302   4.292  13.748  0.00  0.00    +0.000 A 
ATOM      2  C   UNL     1       7.550   4.845  13.587  0.00  0.00    +0.000 A 
ATOM      3  N   UNL     1       8.071   5.624  14.543  0.00  0.00    +0.000 NA
ATOM      4  N   UNL     1       7.335   5.832  15.673  0.00  0.00    +0.000 NA
ATOM      5  C   UNL     1       6.116   5.256  15.827  0.00  0.00    +0.000 A 
ATOM      6  N   UNL     1       5.410   5.479  16.988  0.00  0.00    +0.000 N 
ATOM      7  C   UNL     1       6.114   5.793  18.222  0.00  0.00    +0.000 C 
ATOM      8  C   UNL     1       5.374   4.985  19.288  0.00  0.00    +0.000 C 
ATOM      9  C   UNL     1       3.946   4.838  18.747  0.00  0.00    +0.000 C 
ATOM     10  C   UNL     1       4.155   4.780  17.220  0.00  0.00    +0.000 C 
ATOM     11  N   UNL     1       5.570   4.485  14.871  0.00  0.00    +0.000 NA
ENDROOT
BRANCH   1  16
ATOM     12  C   UNL     1       6.040   0.472  10.832  0.00  0.00    +0.000 C 
ATOM     13  C   UNL     1       5.554   1.765  11.353  0.00  0.00    +0.000 A 
ATOM     14  C   UNL     1       4.490   2.577  11.026  0.00  0.00    +0.000 A 
ATOM     15  C   UNL     1       4.550   3.685  11.907  0.00  0.00    +0.000 A 
ATOM     16  C   UNL     1       5.662   3.503  12.706  0.00  0.00    +0.000 A 
ATOM     17  O   UNL     1       6.268   2.319  12.372  0.00  0.00    +0.000 OA
ENDBRANCH   1  16
BRANCH   9  18
ATOM     18  C   UNL     1       3.031   5.934  19.264  0.00  0.00    +0.000 A 
ATOM     19  C   UNL     1       2.274   5.799  20.438  0.00  0.00    +0.000 A 
ATOM     20  C   UNL     1       1.425   6.819  20.867  0.00  0.00    +0.000 A 
ATOM     21  C   UNL     1       1.310   7.995  20.123  0.00  0.00    +0.000 A 
ATOM     22  C   UNL     1       2.056   8.151  18.956  0.00  0.00    +0.000 A 
ATOM     23  C   UNL     1       2.910   7.127  18.526  0.00  0.00    +0.000 A 
BRANCH  22  24
ATOM     24  C   UNL     1       1.948   9.360  18.194  0.00  0.00    +0.000 C 
ATOM     25  N   UNL     1       1.862  10.343  17.579  0.00  0.00    +0.000 NA
ENDBRANCH  22  24
ENDBRANCH   9  18
TORSDOF 3
ENDMDL
MODEL 5
REMARK VINA RESULT:      -7.9      1.577      2.360
REMARK  Name = 
REMARK  4 active torsions:
REMARK  status: ('A' for Active; 'I' for Inactive)
REMARK    1  A    between atoms: C_1  and  C_2
REMARK    2  A    between atoms: C_5  and  C_6
REMARK    3  A    between atoms: C_14  and  C_15
REMARK    4  A    between atoms: C_19  and  C_20
REMARK                            x       y       z     vdW  Elec       q    Type
REMARK                         _______ _______ _______ _____ _____    ______ ____
ROOT
ATOM      1  C   UNL     1       6.188   4.437  14.017  0.00  0.00    +0.000 A 
ATOM      2  C   UNL     1       7.524   4.760  14.032  0.00  0.00    +0.000 A 
ATOM      3  N   UNL     1       8.021   5.533  15.005  0.00  0.00    +0.000 NA
ATOM      4  N   UNL     1       7.166   5.969  15.976  0.00  0.00    +0.000 NA
ATOM      5  C   UNL     1       5.856   5.619  15.961  0.00  0.00    +0.000 A 
ATOM      6  N   UNL     1       5.028   6.068  16.965  0.00  0.00    +0.000 N 
ATOM      7  C   UNL     1       5.575   6.383  18.276  0.00  0.00    +0.000 C 
ATOM      8  C   UNL     1       4.547   5.816  19.255  0.00  0.00    +0.000 C 
ATOM      9  C   UNL     1       3.217   5.852  18.490  0.00  0.00    +0.000 C 
ATOM     10  C   UNL     1       3.648   5.611  17.028  0.00  0.00    +0.000 C 
ATOM     11  N   UNL     1       5.336   4.857  14.982  0.00  0.00    +0.000 NA
ENDROOT
BRANCH   1  16
ATOM     12  C   UNL     1       6.168   0.803  10.860  0.00  0.00    +0.000 C 
ATOM     13  C   UNL     1       5.590   2.014  11.476  0.00  0.00    +0.000 A 
ATOM     14  C   UNL     1       4.453   2.750  11.228  0.00  0.00    +0.000 A 
ATOM     15  C   UNL     1       4.443   3.801  12.178  0.00  0.00    +0.000 A 
ATOM     16  C   UNL     1       5.588   3.664  12.939  0.00  0.00    +0.000 A 
ATOM     17  O   UNL     1       6.283   2.560  12.514  0.00  0.00    +0.000 OA
ENDBRANCH   1  16
BRANCH   9  18
ATOM     18  C   UNL     1       2.442   7.129  18.765  0.00  0.00    +0.000 A 
ATOM     19  C   UNL     1       2.039   8.005  17.746  0.00  0.00    +0.000 A 
ATOM     20  C   UNL     1       1.351   9.182  18.042  0.00  0.00    +0.000 A 
ATOM     21  C   UNL     1       1.059   9.510  19.367  0.00  0.00    +0.000 A 
ATOM     22  C   UNL     1       1.447   8.650  20.394  0.00  0.00    +0.000 A 
ATOM     23  C   UNL     1       2.137   7.468  20.097  0.00  0.00    +0.000 A 
BRANCH  22  24
ATOM     24  C   UNL     1       1.141   8.979  21.755  0.00  0.00    +0.000 C 
ATOM     25  N   UNL     1       0.896   9.247  22.859  0.00  0.00    +0.000 NA
ENDBRANCH  22  24
ENDBRANCH   9  18
TORSDOF 3
ENDMDL
MODEL 6
REMARK VINA RESULT:      -7.7      0.997      1.240
REMARK  Name = 
REMARK  4 active torsions:
REMARK  status: ('A' for Active; 'I' for Inactive)
REMARK    1  A    between atoms: C_1  and  C_2
REMARK    2  A    between atoms: C_5  and  C_6
REMARK    3  A    between atoms: C_14  and  C_15
REMARK    4  A    between atoms: C_19  and  C_20
REMARK                            x       y       z     vdW  Elec       q    Type
REMARK                         _______ _______ _______ _____ _____    ______ ____
ROOT
ATOM      1  C   UNL     1       6.399   4.113  13.699  0.00  0.00    +0.000 A 
ATOM      2  C   UNL     1       7.456   4.983  13.580  0.00  0.00    +0.000 A 
ATOM      3  N   UNL     1       7.841   5.724  14.627  0.00  0.00    +0.000 NA
ATOM      4  N   UNL     1       7.165   5.573  15.802  0.00  0.00    +0.000 NA
ATOM      5  C   UNL     1       6.141   4.690  15.910  0.00  0.00    +0.000 A 
ATOM      6  N   UNL     1       5.492   4.556  17.117  0.00  0.00    +0.000 N 
ATOM      7  C   UNL     1       6.189   4.859  18.358  0.00  0.00    +0.000 C 
ATOM      8  C   UNL     1       5.755   3.744  19.310  0.00  0.00    +0.000 C 
ATOM      9  C   UNL     1       4.370   3.317  18.807  0.00  0.00    +0.000 C 
ATOM     10  C   UNL     1       4.469   3.535  17.283  0.00  0.00    +0.000 C 
ATOM     11  N   UNL     1       5.730   3.950  14.865  0.00  0.00    +0.000 NA
ENDROOT
BRANCH   1  16
ATOM     12  C   UNL     1       3.075   3.078  10.374  0.00  0.00    +0.000 C 
ATOM     13  C   UNL     1       4.363   2.854  11.063  0.00  0.00    +0.000 A 
ATOM     14  C   UNL     1       5.367   1.923  10.911  0.00  0.00    +0.000 A 
ATOM     15  C   UNL     1       6.359   2.248  11.869  0.00  0.00    +0.000 A 
ATOM     16  C   UNL     1       5.895   3.344  12.570  0.00  0.00    +0.000 A 
ATOM     17  O   UNL     1       4.677   3.721  12.065  0.00  0.00    +0.000 OA
ENDBRANCH   1  16
BRANCH   9  18
ATOM     18  C   UNL     1       3.255   4.058  19.525  0.00  0.00    +0.000 A 
ATOM     19  C   UNL     1       2.319   3.409  20.344  0.00  0.00    +0.000 A 
ATOM     20  C   UNL     1       1.294   4.121  20.966  0.00  0.00    +0.000 A 
ATOM     21  C   UNL     1       1.180   5.499  20.775  0.00  0.00    +0.000 A 
ATOM     22  C   UNL     1       2.103   6.164  19.968  0.00  0.00    +0.000 A 
ATOM     23  C   UNL     1       3.134   5.448  19.344  0.00  0.00    +0.000 A 
BRANCH  22  24
ATOM     24  C   UNL     1       1.996   7.580  19.776  0.00  0.00    +0.000 C 
ATOM     25  N   UNL     1       1.912   8.729  19.619  0.00  0.00    +0.000 NA
ENDBRANCH  22  24
ENDBRANCH   9  18
TORSDOF 3
ENDMDL
MODEL 7
REMARK VINA RESULT:      -7.6      1.345      1.916
REMARK  Name = 
REMARK  4 active torsions:
REMARK  status: ('A' for Active; 'I' for Inactive)
REMARK    1  A    between atoms: C_1  and  C_2
REMARK    2  A    between atoms: C_5  and  C_6
REMARK    3  A    between atoms: C_14  and  C_15
REMARK    4  A    between atoms: C_19  and  C_20
REMARK                            x       y       z     vdW  Elec       q    Type
REMARK                         _______ _______ _______ _____ _____    ______ ____
ROOT
ATOM      1  C   UNL     1       6.392   4.307  13.708  0.00  0.00    +0.000 A 
ATOM      2  C   UNL     1       7.716   4.673  13.685  0.00  0.00    +0.000 A 
ATOM      3  N   UNL     1       8.211   5.474  14.638  0.00  0.00    +0.000 NA
ATOM      4  N   UNL     1       7.366   5.894  15.624  0.00  0.00    +0.000 NA
ATOM      5  C   UNL     1       6.068   5.501  15.646  0.00  0.00    +0.000 A 
ATOM      6  N   UNL     1       5.251   5.935  16.665  0.00  0.00    +0.000 N 
ATOM      7  C   UNL     1       5.820   6.283  17.958  0.00  0.00    +0.000 C 
ATOM      8  C   UNL     1       4.835   5.694  18.969  0.00  0.00    +0.000 C 
ATOM      9  C   UNL     1       3.487   5.678  18.237  0.00  0.00    +0.000 C 
ATOM     10  C   UNL     1       3.889   5.433  16.768  0.00  0.00    +0.000 C 
ATOM     11  N   UNL     1       5.550   4.711  14.689  0.00  0.00    +0.000 NA
ENDROOT
BRANCH   1  16
ATOM     12  C   UNL     1       3.013   3.439  10.390  0.00  0.00    +0.000 C 
ATOM     13  C   UNL     1       4.231   3.092  11.151  0.00  0.00    +0.000 A 
ATOM     14  C   UNL     1       5.068   1.998  11.147  0.00  0.00    +0.000 A 
ATOM     15  C   UNL     1       6.080   2.269  12.101  0.00  0.00    +0.000 A 
ATOM     16  C   UNL     1       5.791   3.502  12.653  0.00  0.00    +0.000 A 
ATOM     17  O   UNL     1       4.664   4.009  12.060  0.00  0.00    +0.000 OA
ENDBRANCH   1  16
BRANCH   9  18
ATOM     18  C   UNL     1       2.677   6.932  18.517  0.00  0.00    +0.000 A 
ATOM     19  C   UNL     1       2.334   7.852  17.515  0.00  0.00    +0.000 A 
ATOM     20  C   UNL     1       1.611   9.006  17.817  0.00  0.00    +0.000 A 
ATOM     21  C   UNL     1       1.223   9.267  19.132  0.00  0.00    +0.000 A 
ATOM     22  C   UNL     1       1.550   8.363  20.143  0.00  0.00    +0.000 A 
ATOM     23  C   UNL     1       2.275   7.204  19.839  0.00  0.00    +0.000 A 
BRANCH  22  24
ATOM     24  C   UNL     1       1.146   8.623  21.492  0.00  0.00    +0.000 C 
ATOM     25  N   UNL     1       0.820   8.836  22.588  0.00  0.00    +0.000 NA
ENDBRANCH  22  24
ENDBRANCH   9  18
TORSDOF 3
ENDMDL
MODEL 8
REMARK VINA RESULT:      -7.4      5.263      8.498
REMARK  Name = 
REMARK  4 active torsions:
REMARK  status: ('A' for Active; 'I' for Inactive)
REMARK    1  A    between atoms: C_1  and  C_2
REMARK    2  A    between atoms: C_5  and  C_6
REMARK    3  A    between atoms: C_14  and  C_15
REMARK    4  A    between atoms: C_19  and  C_20
REMARK                            x       y       z     vdW  Elec       q    Type
REMARK                         _______ _______ _______ _____ _____    ______ ____
ROOT
ATOM      1  C   UNL     1       2.377   7.046  19.126  0.00  0.00    +0.000 A 
ATOM      2  C   UNL     1       2.889   7.271  17.871  0.00  0.00    +0.000 A 
ATOM      3  N   UNL     1       2.688   8.447  17.262  0.00  0.00    +0.000 NA
ATOM      4  N   UNL     1       1.982   9.403  17.932  0.00  0.00    +0.000 NA
ATOM      5  C   UNL     1       1.508   9.174  19.182  0.00  0.00    +0.000 A 
ATOM      6  N   UNL     1       0.811  10.169  19.830  0.00  0.00    +0.000 N 
ATOM      7  C   UNL     1       1.057  11.565  19.502  0.00  0.00    +0.000 C 
ATOM      8  C   UNL     1       1.060  12.270  20.859  0.00  0.00    +0.000 C 
ATOM      9  C   UNL     1       0.158  11.408  21.751  0.00  0.00    +0.000 C 
ATOM     10  C   UNL     1       0.394   9.982  21.212  0.00  0.00    +0.000 C 
ATOM     11  N   UNL     1       1.684   7.993  19.802  0.00  0.00    +0.000 NA
ENDROOT
BRANCH   1  16
ATOM     12  C   UNL     1       4.301   2.663  19.641  0.00  0.00    +0.000 C 
ATOM     13  C   UNL     1       3.366   3.743  20.018  0.00  0.00    +0.000 A 
ATOM     14  C   UNL     1       2.387   3.852  20.980  0.00  0.00    +0.000 A 
ATOM     15  C   UNL     1       1.844   5.154  20.849  0.00  0.00    +0.000 A 
ATOM     16  C   UNL     1       2.503   5.759  19.796  0.00  0.00    +0.000 A 
ATOM     17  O   UNL     1       3.444   4.896  19.297  0.00  0.00    +0.000 OA
ENDBRANCH   1  16
BRANCH   9  18
ATOM     18  C   UNL     1      -1.278  11.903  21.748  0.00  0.00    +0.000 A 
ATOM     19  C   UNL     1      -1.908  12.394  20.595  0.00  0.00    +0.000 A 
ATOM     20  C   UNL     1      -3.221  12.864  20.639  0.00  0.00    +0.000 A 
ATOM     21  C   UNL     1      -3.928  12.859  21.842  0.00  0.00    +0.000 A 
ATOM     22  C   UNL     1      -3.322  12.370  22.999  0.00  0.00    +0.000 A 
ATOM     23  C   UNL     1      -2.004  11.897  22.954  0.00  0.00    +0.000 A 
BRANCH  22  24
ATOM     24  C   UNL     1      -4.047  12.355  24.235  0.00  0.00    +0.000 C 
ATOM     25  N   UNL     1      -4.634  12.340  25.239  0.00  0.00    +0.000 NA
ENDBRANCH  22  24
ENDBRANCH   9  18
TORSDOF 3
ENDMDL
MODEL 9
REMARK VINA RESULT:      -7.3      4.596      7.377
REMARK  Name = 
REMARK  4 active torsions:
REMARK  status: ('A' for Active; 'I' for Inactive)
REMARK    1  A    between atoms: C_1  and  C_2
REMARK    2  A    between atoms: C_5  and  C_6
REMARK    3  A    between atoms: C_14  and  C_15
REMARK    4  A    between atoms: C_19  and  C_20
REMARK                            x       y       z     vdW  Elec       q    Type
REMARK                         _______ _______ _______ _____ _____    ______ ____
ROOT
ATOM      1  C   UNL     1       3.246   6.022  18.901  0.00  0.00    +0.000 A 
ATOM      2  C   UNL     1       4.217   6.083  17.931  0.00  0.00    +0.000 A 
ATOM      3  N   UNL     1       4.282   7.137  17.108  0.00  0.00    +0.000 NA
ATOM      4  N   UNL     1       3.372   8.139  17.276  0.00  0.00    +0.000 NA
ATOM      5  C   UNL     1       2.437   8.075  18.257  0.00  0.00    +0.000 A 
ATOM      6  N   UNL     1       1.544   9.114  18.403  0.00  0.00    +0.000 N 
ATOM      7  C   UNL     1       1.908  10.455  17.973  0.00  0.00    +0.000 C 
ATOM      8  C   UNL     1       1.372  11.359  19.084  0.00  0.00    +0.000 C 
ATOM      9  C   UNL     1       0.184  10.590  19.677  0.00  0.00    +0.000 C 
ATOM     10  C   UNL     1       0.609   9.115  19.518  0.00  0.00    +0.000 C 
ATOM     11  N   UNL     1       2.345   7.017  19.082  0.00  0.00    +0.000 NA
ENDROOT
BRANCH   1  16
ATOM     12  C   UNL     1       4.568   1.692  20.536  0.00  0.00    +0.000 C 
ATOM     13  C   UNL     1       3.677   2.869  20.501  0.00  0.00    +0.000 A 
ATOM     14  C   UNL     1       2.515   3.196  21.163  0.00  0.00    +0.000 A 
ATOM     15  C   UNL     1       2.144   4.484  20.705  0.00  0.00    +0.000 A 
ATOM     16  C   UNL     1       3.087   4.863  19.769  0.00  0.00    +0.000 A 
ATOM     17  O   UNL     1       4.032   3.877  19.655  0.00  0.00    +0.000 OA
ENDBRANCH   1  16
BRANCH   9  18
ATOM     18  C   UNL     1      -1.128  10.990  19.026  0.00  0.00    +0.000 A 
ATOM     19  C   UNL     1      -2.103  11.750  19.690  0.00  0.00    +0.000 A 
ATOM     20  C   UNL     1      -3.308  12.075  19.067  0.00  0.00    +0.000 A 
ATOM     21  C   UNL     1      -3.565  11.638  17.766  0.00  0.00    +0.000 A 
ATOM     22  C   UNL     1      -2.607  10.886  17.086  0.00  0.00    +0.000 A 
ATOM     23  C   UNL     1      -1.397  10.560  17.712  0.00  0.00    +0.000 A 
BRANCH  22  24
ATOM     24  C   UNL     1      -2.864  10.443  15.748  0.00  0.00    +0.000 C 
ATOM     25  N   UNL     1      -3.070  10.088  14.661  0.00  0.00    +0.000 NA
ENDBRANCH  22  24
ENDBRANCH   9  18
TORSDOF 3
ENDMDL
