MODEL 1
REMARK VINA RESULT:      -5.5      0.000      0.000
REMARK  Name = 
REMARK  10 active torsions:
REMARK  status: ('A' for Active; 'I' for Inactive)
REMARK    1  A    between atoms: C_1  and  C_2
REMARK    2  A    between atoms: C_2  and  O_3
REMARK    3  A    between atoms: O_3  and  C_4
REMARK    4  A    between atoms: C_4  and  C_6
REMARK    5  A    between atoms: C_7  and  C_8
REMARK    6  A    between atoms: C_9  and  C_10
REMARK    7  A    between atoms: N_12  and  C_13
REMARK    8  A    between atoms: N_12  and  C_14
REMARK    9  A    between atoms: C_20  and  C_21
REMARK   10  A    between atoms: N_22  and  C_23
REMARK                            x       y       z     vdW  Elec       q    Type
REMARK                         _______ _______ _______ _____ _____    ______ ____
ROOT
ATOM      1  C   UNL     1       1.431   8.300  20.654  0.00  0.00    +0.000 A 
ATOM      2  C   UNL     1       1.802   7.004  20.283  0.00  0.00    +0.000 A 
ATOM      3  C   UNL     1       1.850   5.807  21.181  0.00  0.00    +0.000 C 
ATOM      4  C   UNL     1       2.170   7.007  18.866  0.00  0.00    +0.000 A 
ATOM      5  C   UNL     1       2.050   8.345  18.469  0.00  0.00    +0.000 A 
ATOM      6  C   UNL     1       2.464   9.064  17.235  0.00  0.00    +0.000 C 
ATOM      7  N   UNL     1       1.451   9.050  19.495  0.00  0.00    +0.000 N 
ATOM      8  C   UNL     1       1.043  10.445  19.441  0.00  0.00    +0.000 C 
ENDROOT
BRANCH   4   9
ATOM      9  C   UNL     1       2.727   5.825  18.133  0.00  0.00    +0.000 C 
ATOM     10  O   UNL     1       1.942   4.963  17.737  0.00  0.00    +0.000 OA
ATOM     11  N   UNL     1       4.123   5.715  17.844  0.00  0.00    +0.000 N 
ATOM     12  C   UNL     1       5.064   6.600  18.500  0.00  0.00    +0.000 C 
BRANCH  11  13
ATOM     13  C   UNL     1       4.642   4.420  17.272  0.00  0.00    +0.000 C 
ATOM     14  C   UNL     1       4.645   4.333  15.726  0.00  0.00    +0.000 C 
ATOM     15  C   UNL     1       5.675   5.269  15.093  0.00  0.00    +0.000 C 
ATOM     16  C   UNL     1       7.089   4.973  15.580  0.00  0.00    +0.000 C 
ATOM     17  C   UNL     1       7.174   4.904  17.097  0.00  0.00    +0.000 C 
ATOM     18  C   UNL     1       6.075   4.024  17.717  0.00  0.00    +0.000 C 
ENDBRANCH  11  13
ENDBRANCH   4   9
BRANCH   1  19
ATOM     19  C   UNL     1       1.121   8.879  21.952  0.00  0.00    +0.000 C 
ATOM     20  O   UNL     1       1.946   9.211  22.796  0.00  0.00    +0.000 OA
BRANCH  19  21
ATOM     21  O   UNL     1      -0.223   8.851  22.173  0.00  0.00    +0.000 OA
BRANCH  21  23
ATOM     22  C   UNL     1      -1.040  11.057  22.608  0.00  0.00    +0.000 C 
ATOM     23  C   UNL     1      -0.700   9.707  23.216  0.00  0.00    +0.000 C 
ENDBRANCH  21  23
ENDBRANCH  19  21
ENDBRANCH   1  19
TORSDOF 5
ENDMDL
MODEL 2
REMARK VINA RESULT:      -5.3      1.615      2.774
REMARK  Name = 
REMARK  10 active torsions:
REMARK  status: ('A' for Active; 'I' for Inactive)
REMARK    1  A    between atoms: C_1  and  C_2
REMARK    2  A    between atoms: C_2  and  O_3
REMARK    3  A    between atoms: O_3  and  C_4
REMARK    4  A    between atoms: C_4  and  C_6
REMARK    5  A    between atoms: C_7  and  C_8
REMARK    6  A    between atoms: C_9  and  C_10
REMARK    7  A    between atoms: N_12  and  C_13
REMARK    8  A    between atoms: N_12  and  C_14
REMARK    9  A    between atoms: C_20  and  C_21
REMARK   10  A    between atoms: N_22  and  C_23
REMARK                            x       y       z     vdW  Elec       q    Type
REMARK                         _______ _______ _______ _____ _____    ______ ____
ROOT
ATOM      1  C   UNL     1       1.778   8.396  19.287  0.00  0.00    +0.000 A 
ATOM      2  C   UNL     1       2.577   7.727  18.355  0.00  0.00    +0.000 A 
ATOM      3  C   UNL     1       3.067   8.278  17.053  0.00  0.00    +0.000 C 
ATOM      4  C   UNL     1       2.838   6.372  18.846  0.00  0.00    +0.000 A 
ATOM      5  C   UNL     1       2.119   6.283  20.046  0.00  0.00    +0.000 A 
ATOM      6  C   UNL     1       1.790   5.134  20.932  0.00  0.00    +0.000 C 
ATOM      7  N   UNL     1       1.647   7.541  20.363  0.00  0.00    +0.000 N 
ATOM      8  C   UNL     1       0.951   7.902  21.588  0.00  0.00    +0.000 C 
ENDROOT
BRANCH   4   9
ATOM      9  C   UNL     1       3.566   5.317  18.071  0.00  0.00    +0.000 C 
ATOM     10  O   UNL     1       2.904   4.431  17.530  0.00  0.00    +0.000 OA
ATOM     11  N   UNL     1       4.986   5.356  17.907  0.00  0.00    +0.000 N 
ATOM     12  C   UNL     1       5.778   6.255  18.724  0.00  0.00    +0.000 C 
BRANCH  11  13
ATOM     13  C   UNL     1       5.674   4.171  17.279  0.00  0.00    +0.000 C 
ATOM     14  C   UNL     1       5.069   3.688  15.938  0.00  0.00    +0.000 C 
ATOM     15  C   UNL     1       5.299   4.688  14.804  0.00  0.00    +0.000 C 
ATOM     16  C   UNL     1       6.782   4.960  14.577  0.00  0.00    +0.000 C 
ATOM     17  C   UNL     1       7.506   5.318  15.865  0.00  0.00    +0.000 C 
ATOM     18  C   UNL     1       7.193   4.346  17.016  0.00  0.00    +0.000 C 
ENDBRANCH  11  13
ENDBRANCH   4   9
BRANCH   1  19
ATOM     19  C   UNL     1       1.117   9.691  19.236  0.00  0.00    +0.000 C 
ATOM     20  O   UNL     1       1.245  10.586  20.064  0.00  0.00    +0.000 OA
BRANCH  19  21
ATOM     21  O   UNL     1       0.204   9.716  18.225  0.00  0.00    +0.000 OA
BRANCH  21  23
ATOM     22  C   UNL     1      -2.143  10.045  17.899  0.00  0.00    +0.000 C 
ATOM     23  C   UNL     1      -0.844  10.682  18.358  0.00  0.00    +0.000 C 
ENDBRANCH  21  23
ENDBRANCH  19  21
ENDBRANCH   1  19
TORSDOF 5
ENDMDL
MODEL 3
REMARK VINA RESULT:      -5.3      7.098     11.673
REMARK  Name = 
REMARK  10 active torsions:
REMARK  status: ('A' for Active; 'I' for Inactive)
REMARK    1  A    between atoms: C_1  and  C_2
REMARK    2  A    between atoms: C_2  and  O_3
REMARK    3  A    between atoms: O_3  and  C_4
REMARK    4  A    between atoms: C_4  and  C_6
REMARK    5  A    between atoms: C_7  and  C_8
REMARK    6  A    between atoms: C_9  and  C_10
REMARK    7  A    between atoms: N_12  and  C_13
REMARK    8  A    between atoms: N_12  and  C_14
REMARK    9  A    between atoms: C_20  and  C_21
REMARK   10  A    between atoms: N_22  and  C_23
REMARK                            x       y       z     vdW  Elec       q    Type
REMARK                         _______ _______ _______ _____ _____    ______ ____
ROOT
ATOM      1  C   UNL     1      -4.738  11.899  18.926  0.00  0.00    +0.000 A 
ATOM      2  C   UNL     1      -4.022  12.436  20.000  0.00  0.00    +0.000 A 
ATOM      3  C   UNL     1      -2.555  12.735  20.026  0.00  0.00    +0.000 C 
ATOM      4  C   UNL     1      -4.939  12.636  21.124  0.00  0.00    +0.000 A 
ATOM      5  C   UNL     1      -6.171  12.145  20.671  0.00  0.00    +0.000 A 
ATOM      6  C   UNL     1      -7.454  11.863  21.368  0.00  0.00    +0.000 C 
ATOM      7  N   UNL     1      -6.060  11.878  19.320  0.00  0.00    +0.000 N 
ATOM      8  C   UNL     1      -7.146  11.462  18.446  0.00  0.00    +0.000 C 
ENDROOT
BRANCH   4   9
ATOM      9  C   UNL     1      -4.521  13.092  22.488  0.00  0.00    +0.000 C 
ATOM     10  O   UNL     1      -4.284  12.235  23.341  0.00  0.00    +0.000 OA
ATOM     11  N   UNL     1      -4.340  14.477  22.791  0.00  0.00    +0.000 N 
ATOM     12  C   UNL     1      -4.833  15.483  21.871  0.00  0.00    +0.000 C 
BRANCH  11  13
ATOM     13  C   UNL     1      -4.101  14.879  24.224  0.00  0.00    +0.000 C 
ATOM     14  C   UNL     1      -2.639  14.739  24.716  0.00  0.00    +0.000 C 
ATOM     15  C   UNL     1      -1.705  15.755  24.056  0.00  0.00    +0.000 C 
ATOM     16  C   UNL     1      -2.150  17.190  24.315  0.00  0.00    +0.000 C 
ATOM     17  C   UNL     1      -3.619  17.406  23.986  0.00  0.00    +0.000 C 
ATOM     18  C   UNL     1      -4.531  16.324  24.591  0.00  0.00    +0.000 C 
ENDBRANCH  11  13
ENDBRANCH   4   9
BRANCH   1  19
ATOM     19  C   UNL     1      -4.299  11.383  17.638  0.00  0.00    +0.000 C 
ATOM     20  O   UNL     1      -4.533  11.899  16.551  0.00  0.00    +0.000 OA
BRANCH  19  21
ATOM     21  O   UNL     1      -3.730  10.155  17.790  0.00  0.00    +0.000 OA
BRANCH  21  23
ATOM     22  C   UNL     1      -1.342  10.097  17.653  0.00  0.00    +0.000 C 
ATOM     23  C   UNL     1      -2.644   9.859  16.907  0.00  0.00    +0.000 C 
ENDBRANCH  21  23
ENDBRANCH  19  21
ENDBRANCH   1  19
TORSDOF 5
ENDMDL
MODEL 4
REMARK VINA RESULT:      -5.1      2.121      7.297
REMARK  Name = 
REMARK  10 active torsions:
REMARK  status: ('A' for Active; 'I' for Inactive)
REMARK    1  A    between atoms: C_1  and  C_2
REMARK    2  A    between atoms: C_2  and  O_3
REMARK    3  A    between atoms: O_3  and  C_4
REMARK    4  A    between atoms: C_4  and  C_6
REMARK    5  A    between atoms: C_7  and  C_8
REMARK    6  A    between atoms: C_9  and  C_10
REMARK    7  A    between atoms: N_12  and  C_13
REMARK    8  A    between atoms: N_12  and  C_14
REMARK    9  A    between atoms: C_20  and  C_21
REMARK   10  A    between atoms: N_22  and  C_23
REMARK                            x       y       z     vdW  Elec       q    Type
REMARK                         _______ _______ _______ _____ _____    ______ ____
ROOT
ATOM      1  C   UNL     1       4.470   4.876  17.428  0.00  0.00    +0.000 A 
ATOM      2  C   UNL     1       4.096   6.220  17.526  0.00  0.00    +0.000 A 
ATOM      3  C   UNL     1       4.936   7.401  17.151  0.00  0.00    +0.000 C 
ATOM      4  C   UNL     1       2.747   6.293  18.089  0.00  0.00    +0.000 A 
ATOM      5  C   UNL     1       2.399   4.962  18.356  0.00  0.00    +0.000 A 
ATOM      6  C   UNL     1       1.269   4.354  19.108  0.00  0.00    +0.000 C 
ATOM      7  N   UNL     1       3.362   4.142  17.799  0.00  0.00    +0.000 N 
ATOM      8  C   UNL     1       3.315   2.689  17.752  0.00  0.00    +0.000 C 
ENDROOT
BRANCH   4   9
ATOM      9  C   UNL     1       2.046   7.568  18.447  0.00  0.00    +0.000 C 
ATOM     10  O   UNL     1       1.744   8.341  17.537  0.00  0.00    +0.000 OA
ATOM     11  N   UNL     1       1.680   7.867  19.796  0.00  0.00    +0.000 N 
ATOM     12  C   UNL     1       2.231   7.078  20.881  0.00  0.00    +0.000 C 
BRANCH  11  13
ATOM     13  C   UNL     1       1.148   9.241  20.113  0.00  0.00    +0.000 C 
ATOM     14  C   UNL     1      -0.384   9.327  20.318  0.00  0.00    +0.000 C 
ATOM     15  C   UNL     1      -0.839   8.626  21.599  0.00  0.00    +0.000 C 
ATOM     16  C   UNL     1      -0.169   9.212  22.837  0.00  0.00    +0.000 C 
ATOM     17  C   UNL     1       1.342   9.296  22.689  0.00  0.00    +0.000 C 
ATOM     18  C   UNL     1       1.777   9.927  21.355  0.00  0.00    +0.000 C 
ENDBRANCH  11  13
ENDBRANCH   4   9
BRANCH   1  19
ATOM     19  C   UNL     1       5.737   4.252  17.078  0.00  0.00    +0.000 C 
ATOM     20  O   UNL     1       6.007   3.759  15.988  0.00  0.00    +0.000 OA
BRANCH  19  21
ATOM     21  O   UNL     1       6.529   4.140  18.180  0.00  0.00    +0.000 OA
BRANCH  21  23
ATOM     22  C   UNL     1       7.826   6.002  18.939  0.00  0.00    +0.000 C 
ATOM     23  C   UNL     1       7.821   4.749  18.081  0.00  0.00    +0.000 C 
ENDBRANCH  21  23
ENDBRANCH  19  21
ENDBRANCH   1  19
TORSDOF 5
ENDMDL
MODEL 5
REMARK VINA RESULT:      -5.1      1.859      7.259
REMARK  Name = 
REMARK  10 active torsions:
REMARK  status: ('A' for Active; 'I' for Inactive)
REMARK    1  A    between atoms: C_1  and  C_2
REMARK    2  A    between atoms: C_2  and  O_3
REMARK    3  A    between atoms: O_3  and  C_4
REMARK    4  A    between atoms: C_4  and  C_6
REMARK    5  A    between atoms: C_7  and  C_8
REMARK    6  A    between atoms: C_9  and  C_10
REMARK    7  A    between atoms: N_12  and  C_13
REMARK    8  A    between atoms: N_12  and  C_14
REMARK    9  A    between atoms: C_20  and  C_21
REMARK   10  A    between atoms: N_22  and  C_23
REMARK                            x       y       z     vdW  Elec       q    Type
REMARK                         _______ _______ _______ _____ _____    ______ ____
ROOT
ATOM      1  C   UNL     1       3.730   5.263  17.831  0.00  0.00    +0.000 A 
ATOM      2  C   UNL     1       3.456   6.569  18.248  0.00  0.00    +0.000 A 
ATOM      3  C   UNL     1       4.181   7.806  17.817  0.00  0.00    +0.000 C 
ATOM      4  C   UNL     1       2.353   6.534  19.211  0.00  0.00    +0.000 A 
ATOM      5  C   UNL     1       2.056   5.173  19.363  0.00  0.00    +0.000 A 
ATOM      6  C   UNL     1       1.195   4.438  20.327  0.00  0.00    +0.000 C 
ATOM      7  N   UNL     1       2.766   4.465  18.412  0.00  0.00    +0.000 N 
ATOM      8  C   UNL     1       2.651   3.037  18.157  0.00  0.00    +0.000 C 
ENDROOT
BRANCH   4   9
ATOM      9  C   UNL     1       1.848   7.726  19.964  0.00  0.00    +0.000 C 
ATOM     10  O   UNL     1       1.994   7.747  21.187  0.00  0.00    +0.000 OA
ATOM     11  N   UNL     1       1.263   8.843  19.290  0.00  0.00    +0.000 N 
ATOM     12  C   UNL     1       0.887   8.723  17.895  0.00  0.00    +0.000 C 
BRANCH  11  13
ATOM     13  C   UNL     1       0.609   9.922  20.114  0.00  0.00    +0.000 C 
ATOM     14  C   UNL     1       1.439  11.218  20.287  0.00  0.00    +0.000 C 
ATOM     15  C   UNL     1       1.569  12.003  18.981  0.00  0.00    +0.000 C 
ATOM     16  C   UNL     1       0.208  12.392  18.411  0.00  0.00    +0.000 C 
ATOM     17  C   UNL     1      -0.739  11.205  18.322  0.00  0.00    +0.000 C 
ATOM     18  C   UNL     1      -0.789  10.382  19.620  0.00  0.00    +0.000 C 
ENDBRANCH  11  13
ENDBRANCH   4   9
BRANCH   1  19
ATOM     19  C   UNL     1       4.800   4.719  17.008  0.00  0.00    +0.000 C 
ATOM     20  O   UNL     1       4.739   4.531  15.798  0.00  0.00    +0.000 OA
BRANCH  19  21
ATOM     21  O   UNL     1       5.827   4.290  17.793  0.00  0.00    +0.000 OA
BRANCH  21  23
ATOM     22  C   UNL     1       7.511   5.931  18.234  0.00  0.00    +0.000 C 
ATOM     23  C   UNL     1       7.133   4.721  17.397  0.00  0.00    +0.000 C 
ENDBRANCH  21  23
ENDBRANCH  19  21
ENDBRANCH   1  19
TORSDOF 5
ENDMDL
MODEL 6
REMARK VINA RESULT:      -5.1      8.270      9.736
REMARK  Name = 
REMARK  10 active torsions:
REMARK  status: ('A' for Active; 'I' for Inactive)
REMARK    1  A    between atoms: C_1  and  C_2
REMARK    2  A    between atoms: C_2  and  O_3
REMARK    3  A    between atoms: O_3  and  C_4
REMARK    4  A    between atoms: C_4  and  C_6
REMARK    5  A    between atoms: C_7  and  C_8
REMARK    6  A    between atoms: C_9  and  C_10
REMARK    7  A    between atoms: N_12  and  C_13
REMARK    8  A    between atoms: N_12  and  C_14
REMARK    9  A    between atoms: C_20  and  C_21
REMARK   10  A    between atoms: N_22  and  C_23
REMARK                            x       y       z     vdW  Elec       q    Type
REMARK                         _______ _______ _______ _____ _____    ______ ____
ROOT
ATOM      1  C   UNL     1       5.123  16.623  19.359  0.00  0.00    +0.000 A 
ATOM      2  C   UNL     1       6.034  15.775  18.722  0.00  0.00    +0.000 A 
ATOM      3  C   UNL     1       5.699  14.682  17.756  0.00  0.00    +0.000 C 
ATOM      4  C   UNL     1       7.385  16.109  19.177  0.00  0.00    +0.000 A 
ATOM      5  C   UNL     1       7.202  17.125  20.125  0.00  0.00    +0.000 A 
ATOM      6  C   UNL     1       8.125  17.760  21.102  0.00  0.00    +0.000 C 
ATOM      7  N   UNL     1       5.879  17.522  20.084  0.00  0.00    +0.000 N 
ATOM      8  C   UNL     1       5.303  18.630  20.829  0.00  0.00    +0.000 C 
ENDROOT
BRANCH   4   9
ATOM      9  C   UNL     1       8.618  15.346  18.800  0.00  0.00    +0.000 C 
ATOM     10  O   UNL     1       9.214  15.674  17.773  0.00  0.00    +0.000 OA
ATOM     11  N   UNL     1       9.135  14.304  19.630  0.00  0.00    +0.000 N 
ATOM     12  C   UNL     1       8.321  13.772  20.705  0.00  0.00    +0.000 C 
BRANCH  11  13
ATOM     13  C   UNL     1      10.265  13.456  19.106  0.00  0.00    +0.000 C 
ATOM     14  C   UNL     1      10.888  12.474  20.129  0.00  0.00    +0.000 C 
ATOM     15  C   UNL     1       9.931  11.340  20.501  0.00  0.00    +0.000 C 
ATOM     16  C   UNL     1       9.502  10.533  19.281  0.00  0.00    +0.000 C 
ATOM     17  C   UNL     1       8.993  11.419  18.154  0.00  0.00    +0.000 C 
ATOM     18  C   UNL     1       9.930  12.601  17.854  0.00  0.00    +0.000 C 
ENDBRANCH  11  13
ENDBRANCH   4   9
BRANCH   1  19
ATOM     19  C   UNL     1       3.668  16.631  19.383  0.00  0.00    +0.000 C 
ATOM     20  O   UNL     1       2.969  16.018  20.181  0.00  0.00    +0.000 OA
BRANCH  19  21
ATOM     21  O   UNL     1       3.181  17.283  18.291  0.00  0.00    +0.000 OA
BRANCH  21  23
ATOM     22  C   UNL     1       1.391  18.092  16.926  0.00  0.00    +0.000 C 
ATOM     23  C   UNL     1       1.765  17.206  18.101  0.00  0.00    +0.000 C 
ENDBRANCH  21  23
ENDBRANCH  19  21
ENDBRANCH   1  19
TORSDOF 5
ENDMDL
MODEL 7
REMARK VINA RESULT:      -5.1      1.921      7.019
REMARK  Name = 
REMARK  10 active torsions:
REMARK  status: ('A' for Active; 'I' for Inactive)
REMARK    1  A    between atoms: C_1  and  C_2
REMARK    2  A    between atoms: C_2  and  O_3
REMARK    3  A    between atoms: O_3  and  C_4
REMARK    4  A    between atoms: C_4  and  C_6
REMARK    5  A    between atoms: C_7  and  C_8
REMARK    6  A    between atoms: C_9  and  C_10
REMARK    7  A    between atoms: N_12  and  C_13
REMARK    8  A    between atoms: N_12  and  C_14
REMARK    9  A    between atoms: C_20  and  C_21
REMARK   10  A    between atoms: N_22  and  C_23
REMARK                            x       y       z     vdW  Elec       q    Type
REMARK                         _______ _______ _______ _____ _____    ______ ____
ROOT
ATOM      1  C   UNL     1       3.014   4.792  18.012  0.00  0.00    +0.000 A 
ATOM      2  C   UNL     1       2.253   5.421  19.001  0.00  0.00    +0.000 A 
ATOM      3  C   UNL     1       1.251   4.764  19.899  0.00  0.00    +0.000 C 
ATOM      4  C   UNL     1       2.572   6.850  19.003  0.00  0.00    +0.000 A 
ATOM      5  C   UNL     1       3.486   7.013  17.953  0.00  0.00    +0.000 A 
ATOM      6  C   UNL     1       4.044   8.221  17.290  0.00  0.00    +0.000 C 
ATOM      7  N   UNL     1       3.855   5.760  17.502  0.00  0.00    +0.000 N 
ATOM      8  C   UNL     1       4.872   5.486  16.499  0.00  0.00    +0.000 C 
ENDROOT
BRANCH   4   9
ATOM      9  C   UNL     1       1.877   7.872  19.850  0.00  0.00    +0.000 C 
ATOM     10  O   UNL     1       1.928   7.745  21.074  0.00  0.00    +0.000 OA
ATOM     11  N   UNL     1       1.219   9.001  19.271  0.00  0.00    +0.000 N 
ATOM     12  C   UNL     1       0.965   9.030  17.844  0.00  0.00    +0.000 C 
BRANCH  11  13
ATOM     13  C   UNL     1       0.385   9.887  20.161  0.00  0.00    +0.000 C 
ATOM     14  C   UNL     1       1.101  11.152  20.695  0.00  0.00    +0.000 C 
ATOM     15  C   UNL     1       1.380  12.171  19.589  0.00  0.00    +0.000 C 
ATOM     16  C   UNL     1       0.100  12.618  18.890  0.00  0.00    +0.000 C 
ATOM     17  C   UNL     1      -0.750  11.441  18.438  0.00  0.00    +0.000 C 
ATOM     18  C   UNL     1      -0.946  10.387  19.541  0.00  0.00    +0.000 C 
ENDBRANCH  11  13
ENDBRANCH   4   9
BRANCH   1  19
ATOM     19  C   UNL     1       2.987   3.432  17.494  0.00  0.00    +0.000 C 
ATOM     20  O   UNL     1       2.087   2.951  16.814  0.00  0.00    +0.000 OA
BRANCH  19  21
ATOM     21  O   UNL     1       4.023   2.711  18.005  0.00  0.00    +0.000 OA
BRANCH  21  23
ATOM     22  C   UNL     1       4.306   2.260  20.338  0.00  0.00    +0.000 C 
ATOM     23  C   UNL     1       3.682   1.782  19.039  0.00  0.00    +0.000 C 
ENDBRANCH  21  23
ENDBRANCH  19  21
ENDBRANCH   1  19
TORSDOF 5
ENDMDL
MODEL 8
REMARK VINA RESULT:      -5.0      2.144      7.372
REMARK  Name = 
REMARK  10 active torsions:
REMARK  status: ('A' for Active; 'I' for Inactive)
REMARK    1  A    between atoms: C_1  and  C_2
REMARK    2  A    between atoms: C_2  and  O_3
REMARK    3  A    between atoms: O_3  and  C_4
REMARK    4  A    between atoms: C_4  and  C_6
REMARK    5  A    between atoms: C_7  and  C_8
REMARK    6  A    between atoms: C_9  and  C_10
REMARK    7  A    between atoms: N_12  and  C_13
REMARK    8  A    between atoms: N_12  and  C_14
REMARK    9  A    between atoms: C_20  and  C_21
REMARK   10  A    between atoms: N_22  and  C_23
REMARK                            x       y       z     vdW  Elec       q    Type
REMARK                         _______ _______ _______ _____ _____    ______ ____
ROOT
ATOM      1  C   UNL     1       4.146   5.190  18.391  0.00  0.00    +0.000 A 
ATOM      2  C   UNL     1       3.879   6.476  17.911  0.00  0.00    +0.000 A 
ATOM      3  C   UNL     1       4.725   7.257  16.955  0.00  0.00    +0.000 C 
ATOM      4  C   UNL     1       2.639   6.958  18.523  0.00  0.00    +0.000 A 
ATOM      5  C   UNL     1       2.251   5.934  19.398  0.00  0.00    +0.000 A 
ATOM      6  C   UNL     1       1.213   5.866  20.461  0.00  0.00    +0.000 C 
ATOM      7  N   UNL     1       3.063   4.839  19.171  0.00  0.00    +0.000 N 
ATOM      8  C   UNL     1       2.916   3.532  19.791  0.00  0.00    +0.000 C 
ENDROOT
BRANCH   4   9
ATOM      9  C   UNL     1       2.085   8.337  18.339  0.00  0.00    +0.000 C 
ATOM     10  O   UNL     1       2.056   8.806  17.200  0.00  0.00    +0.000 OA
ATOM     11  N   UNL     1       1.547   9.079  19.436  0.00  0.00    +0.000 N 
ATOM     12  C   UNL     1       1.787   8.629  20.793  0.00  0.00    +0.000 C 
BRANCH  11  13
ATOM     13  C   UNL     1       1.178  10.525  19.220  0.00  0.00    +0.000 C 
ATOM     14  C   UNL     1      -0.173  10.764  18.504  0.00  0.00    +0.000 C 
ATOM     15  C   UNL     1      -1.369  10.372  19.373  0.00  0.00    +0.000 C 
ATOM     16  C   UNL     1      -1.394  11.143  20.689  0.00  0.00    +0.000 C 
ATOM     17  C   UNL     1      -0.060  11.083  21.417  0.00  0.00    +0.000 C 
ATOM     18  C   UNL     1       1.135  11.399  20.501  0.00  0.00    +0.000 C 
ENDBRANCH  11  13
ENDBRANCH   4   9
BRANCH   1  19
ATOM     19  C   UNL     1       5.302   4.321  18.227  0.00  0.00    +0.000 C 
ATOM     20  O   UNL     1       6.263   4.269  18.985  0.00  0.00    +0.000 OA
BRANCH  19  21
ATOM     21  O   UNL     1       5.249   3.687  17.022  0.00  0.00    +0.000 OA
BRANCH  21  23
ATOM     22  C   UNL     1       5.595   4.365  14.754  0.00  0.00    +0.000 C 
ATOM     23  C   UNL     1       6.263   4.054  16.082  0.00  0.00    +0.000 C 
ENDBRANCH  21  23
ENDBRANCH  19  21
ENDBRANCH   1  19
TORSDOF 5
ENDMDL
MODEL 9
REMARK VINA RESULT:      -5.0      2.666      6.648
REMARK  Name = 
REMARK  10 active torsions:
REMARK  status: ('A' for Active; 'I' for Inactive)
REMARK    1  A    between atoms: C_1  and  C_2
REMARK    2  A    between atoms: C_2  and  O_3
REMARK    3  A    between atoms: O_3  and  C_4
REMARK    4  A    between atoms: C_4  and  C_6
REMARK    5  A    between atoms: C_7  and  C_8
REMARK    6  A    between atoms: C_9  and  C_10
REMARK    7  A    between atoms: N_12  and  C_13
REMARK    8  A    between atoms: N_12  and  C_14
REMARK    9  A    between atoms: C_20  and  C_21
REMARK   10  A    between atoms: N_22  and  C_23
REMARK                            x       y       z     vdW  Elec       q    Type
REMARK                         _______ _______ _______ _____ _____    ______ ____
ROOT
ATOM      1  C   UNL     1       3.719   4.315  18.458  0.00  0.00    +0.000 A 
ATOM      2  C   UNL     1       2.763   5.322  18.296  0.00  0.00    +0.000 A 
ATOM      3  C   UNL     1       1.277   5.140  18.302  0.00  0.00    +0.000 C 
ATOM      4  C   UNL     1       3.453   6.596  18.087  0.00  0.00    +0.000 A 
ATOM      5  C   UNL     1       4.815   6.267  18.079  0.00  0.00    +0.000 A 
ATOM      6  C   UNL     1       6.030   7.044  17.715  0.00  0.00    +0.000 C 
ATOM      7  N   UNL     1       4.945   4.949  18.470  0.00  0.00    +0.000 N 
ATOM      8  C   UNL     1       6.201   4.253  18.702  0.00  0.00    +0.000 C 
ENDROOT
BRANCH   4   9
ATOM      9  C   UNL     1       2.766   7.888  17.766  0.00  0.00    +0.000 C 
ATOM     10  O   UNL     1       2.910   8.359  16.637  0.00  0.00    +0.000 OA
ATOM     11  N   UNL     1       1.917   8.539  18.715  0.00  0.00    +0.000 N 
ATOM     12  C   UNL     1       1.929   8.113  20.100  0.00  0.00    +0.000 C 
BRANCH  11  13
ATOM     13  C   UNL     1       1.407   9.922  18.399  0.00  0.00    +0.000 C 
ATOM     14  C   UNL     1      -0.089  10.004  18.010  0.00  0.00    +0.000 C 
ATOM     15  C   UNL     1      -1.013   9.707  19.192  0.00  0.00    +0.000 C 
ATOM     16  C   UNL     1      -0.779  10.666  20.354  0.00  0.00    +0.000 C 
ATOM     17  C   UNL     1       0.691  10.762  20.734  0.00  0.00    +0.000 C 
ATOM     18  C   UNL     1       1.609  10.977  19.519  0.00  0.00    +0.000 C 
ENDBRANCH  11  13
ENDBRANCH   4   9
BRANCH   1  19
ATOM     19  C   UNL     1       3.589   2.868  18.550  0.00  0.00    +0.000 C 
ATOM     20  O   UNL     1       3.534   2.099  17.597  0.00  0.00    +0.000 OA
BRANCH  19  21
ATOM     21  O   UNL     1       3.370   2.495  19.842  0.00  0.00    +0.000 OA
BRANCH  21  23
ATOM     22  C   UNL     1       1.646   3.004  21.420  0.00  0.00    +0.000 C 
ATOM     23  C   UNL     1       2.011   2.204  20.182  0.00  0.00    +0.000 C 
ENDBRANCH  21  23
ENDBRANCH  19  21
ENDBRANCH   1  19
TORSDOF 5
ENDMDL
