MODEL 1
REMARK VINA RESULT:      -8.5      0.000      0.000
REMARK  Name = 
REMARK  2 active torsions:
REMARK  status: ('A' for Active; 'I' for Inactive)
REMARK    1  A    between atoms: C_2  and  C_18
REMARK    2  A    between atoms: N_3  and  N_4
REMARK                            x       y       z     vdW  Elec       q    Type
REMARK                         _______ _______ _______ _____ _____    ______ ____
ROOT
ATOM      1  N   UNL     1       4.402   4.088  17.518  0.00  0.00    +0.000 N 
ATOM      2  C   UNL     1       3.918   5.231  18.090  0.00  0.00    +0.000 C 
ATOM      3  O   UNL     1       3.739   6.317  17.548  0.00  0.00    +0.000 OA
ATOM      4  C   UNL     1       3.565   4.923  19.518  0.00  0.00    +0.000 C 
ATOM      5  C   UNL     1       3.950   3.430  19.706  0.00  0.00    +0.000 C 
ATOM      6  C   UNL     1       4.131   2.974  18.269  0.00  0.00    +0.000 C 
ATOM      7  O   UNL     1       3.988   1.809  17.872  0.00  0.00    +0.000 OA
ATOM      8  C   UNL     1       2.721   2.869  20.441  0.00  0.00    +0.000 C 
ATOM      9  C   UNL     1       2.437   3.678  21.745  0.00  0.00    +0.000 C 
ATOM     10  C   UNL     1       1.990   4.908  21.382  0.00  0.00    +0.000 C 
ATOM     11  C   UNL     1       2.032   4.942  19.867  0.00  0.00    +0.000 C 
ATOM     12  C   UNL     1       1.619   3.489  19.615  0.00  0.00    +0.000 C 
ATOM     13  C   UNL     1       0.272   2.833  19.885  0.00  0.00    +0.000 C 
ATOM     14  C   UNL     1       0.759   2.999  18.478  0.00  0.00    +0.000 C 
ENDROOT
BRANCH   1  17
ATOM     15  O   UNL     1       6.979   4.528  16.681  0.00  0.00    +0.000 OA
ATOM     16  C   UNL     1       6.123   4.273  15.837  0.00  0.00    +0.000 C 
ATOM     17  N   UNL     1       4.790   4.038  16.147  0.00  0.00    +0.000 N 
ATOM     18  H   UNL     1       4.093   3.722  15.480  0.00  0.00    +0.000 HD
BRANCH  16  19
ATOM     19  C   UNL     1       6.551   4.209  14.407  0.00  0.00    +0.000 A 
ATOM     20  C   UNL     1       7.414   5.214  13.929  0.00  0.00    +0.000 A 
ATOM     21  C   UNL     1       7.801   5.254  12.586  0.00  0.00    +0.000 A 
ATOM     22  C   UNL     1       7.313   4.303  11.696  0.00  0.00    +0.000 A 
ATOM     23  C   UNL     1       6.433   3.324  12.158  0.00  0.00    +0.000 A 
ATOM     24 CL   UNL     1       5.785   2.185  11.037  0.00  0.00    +0.000 Cl
ATOM     25  C   UNL     1       6.047   3.266  13.506  0.00  0.00    +0.000 A 
ENDBRANCH  16  19
ENDBRANCH   1  17
TORSDOF 2
ENDMDL
MODEL 2
REMARK VINA RESULT:      -8.0      1.122      1.492
REMARK  Name = 
REMARK  2 active torsions:
REMARK  status: ('A' for Active; 'I' for Inactive)
REMARK    1  A    between atoms: C_2  and  C_18
REMARK    2  A    between atoms: N_3  and  N_4
REMARK                            x       y       z     vdW  Elec       q    Type
REMARK                         _______ _______ _______ _____ _____    ______ ____
ROOT
ATOM      1  N   UNL     1       4.389   4.007  17.553  0.00  0.00    +0.000 N 
ATOM      2  C   UNL     1       4.012   5.094  18.292  0.00  0.00    +0.000 C 
ATOM      3  O   UNL     1       3.906   6.255  17.908  0.00  0.00    +0.000 OA
ATOM      4  C   UNL     1       3.674   4.621  19.677  0.00  0.00    +0.000 C 
ATOM      5  C   UNL     1       3.944   3.092  19.648  0.00  0.00    +0.000 C 
ATOM      6  C   UNL     1       4.051   2.824  18.157  0.00  0.00    +0.000 C 
ATOM      7  O   UNL     1       3.805   1.739  17.613  0.00  0.00    +0.000 OA
ATOM      8  C   UNL     1       2.695   2.529  20.347  0.00  0.00    +0.000 C 
ATOM      9  C   UNL     1       2.510   3.170  21.756  0.00  0.00    +0.000 C 
ATOM     10  C   UNL     1       2.153   4.468  21.580  0.00  0.00    +0.000 C 
ATOM     11  C   UNL     1       2.157   4.706  20.083  0.00  0.00    +0.000 C 
ATOM     12  C   UNL     1       1.624   3.336  19.653  0.00  0.00    +0.000 C 
ATOM     13  C   UNL     1       0.236   2.753  19.881  0.00  0.00    +0.000 C 
ATOM     14  C   UNL     1       0.697   3.073  18.493  0.00  0.00    +0.000 C 
ENDROOT
BRANCH   1  17
ATOM     15  O   UNL     1       6.975   4.313  16.685  0.00  0.00    +0.000 OA
ATOM     16  C   UNL     1       6.076   4.264  15.848  0.00  0.00    +0.000 C 
ATOM     17  N   UNL     1       4.734   4.117  16.174  0.00  0.00    +0.000 N 
ATOM     18  H   UNL     1       3.993   3.968  15.497  0.00  0.00    +0.000 HD
BRANCH  16  19
ATOM     19  C   UNL     1       6.459   4.365  14.408  0.00  0.00    +0.000 A 
ATOM     20  C   UNL     1       5.964   3.389  13.522  0.00  0.00    +0.000 A 
ATOM     21  C   UNL     1       6.336   3.383  12.174  0.00  0.00    +0.000 A 
ATOM     22  C   UNL     1       7.227   4.339  11.696  0.00  0.00    +0.000 A 
ATOM     23  C   UNL     1       7.744   5.289  12.577  0.00  0.00    +0.000 A 
ATOM     24 CL   UNL     1       8.894   6.433  11.992  0.00  0.00    +0.000 Cl
ATOM     25  C   UNL     1       7.370   5.313  13.929  0.00  0.00    +0.000 A 
ENDBRANCH  16  19
ENDBRANCH   1  17
TORSDOF 2
ENDMDL
MODEL 3
REMARK VINA RESULT:      -7.7      1.670      2.368
REMARK  Name = 
REMARK  2 active torsions:
REMARK  status: ('A' for Active; 'I' for Inactive)
REMARK    1  A    between atoms: C_2  and  C_18
REMARK    2  A    between atoms: N_3  and  N_4
REMARK                            x       y       z     vdW  Elec       q    Type
REMARK                         _______ _______ _______ _____ _____    ______ ____
ROOT
ATOM      1  N   UNL     1       4.140   2.953  17.592  0.00  0.00    +0.000 N 
ATOM      2  C   UNL     1       4.730   3.210  18.797  0.00  0.00    +0.000 C 
ATOM      3  O   UNL     1       5.895   3.536  19.001  0.00  0.00    +0.000 OA
ATOM      4  C   UNL     1       3.680   3.090  19.865  0.00  0.00    +0.000 C 
ATOM      5  C   UNL     1       2.388   2.688  19.103  0.00  0.00    +0.000 C 
ATOM      6  C   UNL     1       2.771   2.985  17.665  0.00  0.00    +0.000 C 
ATOM      7  O   UNL     1       1.971   3.266  16.761  0.00  0.00    +0.000 OA
ATOM      8  C   UNL     1       1.339   3.624  19.728  0.00  0.00    +0.000 C 
ATOM      9  C   UNL     1       1.304   3.462  21.279  0.00  0.00    +0.000 C 
ATOM     10  C   UNL     1       2.455   3.983  21.778  0.00  0.00    +0.000 C 
ATOM     11  C   UNL     1       3.269   4.429  20.580  0.00  0.00    +0.000 C 
ATOM     12  C   UNL     1       2.109   4.923  19.711  0.00  0.00    +0.000 C 
ATOM     13  C   UNL     1       1.201   6.123  19.948  0.00  0.00    +0.000 C 
ATOM     14  C   UNL     1       2.142   6.111  18.783  0.00  0.00    +0.000 C 
ENDROOT
BRANCH   1  17
ATOM     15  O   UNL     1       4.648   5.323  16.303  0.00  0.00    +0.000 OA
ATOM     16  C   UNL     1       5.068   4.281  15.804  0.00  0.00    +0.000 C 
ATOM     17  N   UNL     1       4.865   3.027  16.366  0.00  0.00    +0.000 N 
ATOM     18  H   UNL     1       5.293   2.172  16.028  0.00  0.00    +0.000 HD
BRANCH  16  19
ATOM     19  C   UNL     1       5.840   4.381  14.529  0.00  0.00    +0.000 A 
ATOM     20  C   UNL     1       5.431   3.583  13.443  0.00  0.00    +0.000 A 
ATOM     21  C   UNL     1       6.147   3.576  12.242  0.00  0.00    +0.000 A 
ATOM     22  C   UNL     1       7.296   4.350  12.117  0.00  0.00    +0.000 A 
ATOM     23  C   UNL     1       7.723   5.118  13.200  0.00  0.00    +0.000 A 
ATOM     24 CL   UNL     1       9.181   6.027  13.058  0.00  0.00    +0.000 Cl
ATOM     25  C   UNL     1       7.007   5.143  14.406  0.00  0.00    +0.000 A 
ENDBRANCH  16  19
ENDBRANCH   1  17
TORSDOF 2
ENDMDL
MODEL 4
REMARK VINA RESULT:      -7.7      4.570      5.621
REMARK  Name = 
REMARK  2 active torsions:
REMARK  status: ('A' for Active; 'I' for Inactive)
REMARK    1  A    between atoms: C_2  and  C_18
REMARK    2  A    between atoms: N_3  and  N_4
REMARK                            x       y       z     vdW  Elec       q    Type
REMARK                         _______ _______ _______ _____ _____    ______ ____
ROOT
ATOM      1  N   UNL     1       5.511   6.084  17.981  0.00  0.00    +0.000 N 
ATOM      2  C   UNL     1       5.928   4.875  18.462  0.00  0.00    +0.000 C 
ATOM      3  O   UNL     1       6.870   4.658  19.219  0.00  0.00    +0.000 OA
ATOM      4  C   UNL     1       4.984   3.821  17.954  0.00  0.00    +0.000 C 
ATOM      5  C   UNL     1       3.968   4.596  17.072  0.00  0.00    +0.000 C 
ATOM      6  C   UNL     1       4.237   6.034  17.478  0.00  0.00    +0.000 C 
ATOM      7  O   UNL     1       3.411   6.955  17.415  0.00  0.00    +0.000 OA
ATOM      8  C   UNL     1       2.624   4.006  17.532  0.00  0.00    +0.000 C 
ATOM      9  C   UNL     1       2.620   2.453  17.387  0.00  0.00    +0.000 C 
ATOM     10  C   UNL     1       3.466   1.946  18.321  0.00  0.00    +0.000 C 
ATOM     11  C   UNL     1       4.069   3.139  19.036  0.00  0.00    +0.000 C 
ATOM     12  C   UNL     1       2.827   4.035  19.028  0.00  0.00    +0.000 C 
ATOM     13  C   UNL     1       1.519   3.836  19.782  0.00  0.00    +0.000 C 
ATOM     14  C   UNL     1       2.416   4.984  20.124  0.00  0.00    +0.000 C 
ENDROOT
BRANCH   1  17
ATOM     15  O   UNL     1       7.701   7.013  16.611  0.00  0.00    +0.000 OA
ATOM     16  C   UNL     1       7.274   7.675  17.554  0.00  0.00    +0.000 C 
ATOM     17  N   UNL     1       6.177   7.299  18.319  0.00  0.00    +0.000 N 
ATOM     18  H   UNL     1       5.747   7.882  19.029  0.00  0.00    +0.000 HD
BRANCH  16  19
ATOM     19  C   UNL     1       7.975   8.953  17.882  0.00  0.00    +0.000 A 
ATOM     20  C   UNL     1       8.952   8.930  18.896  0.00  0.00    +0.000 A 
ATOM     21  C   UNL     1       9.600  10.101  19.301  0.00  0.00    +0.000 A 
ATOM     22  C   UNL     1       9.264  11.317  18.713  0.00  0.00    +0.000 A 
ATOM     23  C   UNL     1       8.275  11.349  17.731  0.00  0.00    +0.000 A 
ATOM     24 CL   UNL     1       7.821  12.867  17.050  0.00  0.00    +0.000 Cl
ATOM     25  C   UNL     1       7.626  10.179  17.307  0.00  0.00    +0.000 A 
ENDBRANCH  16  19
ENDBRANCH   1  17
TORSDOF 2
ENDMDL
MODEL 5
REMARK VINA RESULT:      -7.6      1.307      2.088
REMARK  Name = 
REMARK  2 active torsions:
REMARK  status: ('A' for Active; 'I' for Inactive)
REMARK    1  A    between atoms: C_2  and  C_18
REMARK    2  A    between atoms: N_3  and  N_4
REMARK                            x       y       z     vdW  Elec       q    Type
REMARK                         _______ _______ _______ _____ _____    ______ ____
ROOT
ATOM      1  N   UNL     1       3.886   2.620  17.903  0.00  0.00    +0.000 N 
ATOM      2  C   UNL     1       4.431   2.638  19.156  0.00  0.00    +0.000 C 
ATOM      3  O   UNL     1       5.612   2.785  19.454  0.00  0.00    +0.000 OA
ATOM      4  C   UNL     1       3.312   2.509  20.151  0.00  0.00    +0.000 C 
ATOM      5  C   UNL     1       2.029   2.378  19.287  0.00  0.00    +0.000 C 
ATOM      6  C   UNL     1       2.529   2.814  17.921  0.00  0.00    +0.000 C 
ATOM      7  O   UNL     1       1.823   3.311  17.033  0.00  0.00    +0.000 OA
ATOM      8  C   UNL     1       1.063   3.346  19.991  0.00  0.00    +0.000 C 
ATOM      9  C   UNL     1       0.917   2.984  21.501  0.00  0.00    +0.000 C 
ATOM     10  C   UNL     1       2.090   3.285  22.117  0.00  0.00    +0.000 C 
ATOM     11  C   UNL     1       3.021   3.782  21.028  0.00  0.00    +0.000 C 
ATOM     12  C   UNL     1       1.981   4.528  20.189  0.00  0.00    +0.000 C 
ATOM     13  C   UNL     1       1.209   5.790  20.553  0.00  0.00    +0.000 C 
ATOM     14  C   UNL     1       2.210   5.816  19.439  0.00  0.00    +0.000 C 
ENDROOT
BRANCH   1  17
ATOM     15  O   UNL     1       4.674   5.065  16.932  0.00  0.00    +0.000 OA
ATOM     16  C   UNL     1       5.031   4.052  16.334  0.00  0.00    +0.000 C 
ATOM     17  N   UNL     1       4.687   2.766  16.732  0.00  0.00    +0.000 N 
ATOM     18  H   UNL     1       5.058   1.919  16.316  0.00  0.00    +0.000 HD
BRANCH  16  19
ATOM     19  C   UNL     1       5.883   4.224  15.119  0.00  0.00    +0.000 A 
ATOM     20  C   UNL     1       6.853   5.244  15.130  0.00  0.00    +0.000 A 
ATOM     21  C   UNL     1       7.640   5.506  14.004  0.00  0.00    +0.000 A 
ATOM     22  C   UNL     1       7.451   4.766  12.841  0.00  0.00    +0.000 A 
ATOM     23  C   UNL     1       6.470   3.775  12.815  0.00  0.00    +0.000 A 
ATOM     24 CL   UNL     1       6.201   2.903  11.352  0.00  0.00    +0.000 Cl
ATOM     25  C   UNL     1       5.683   3.495  13.942  0.00  0.00    +0.000 A 
ENDBRANCH  16  19
ENDBRANCH   1  17
TORSDOF 2
ENDMDL
MODEL 6
REMARK VINA RESULT:      -7.3      1.493      1.785
REMARK  Name = 
REMARK  2 active torsions:
REMARK  status: ('A' for Active; 'I' for Inactive)
REMARK    1  A    between atoms: C_2  and  C_18
REMARK    2  A    between atoms: N_3  and  N_4
REMARK                            x       y       z     vdW  Elec       q    Type
REMARK                         _______ _______ _______ _____ _____    ______ ____
ROOT
ATOM      1  N   UNL     1       5.011   4.886  17.978  0.00  0.00    +0.000 N 
ATOM      2  C   UNL     1       4.154   5.898  18.310  0.00  0.00    +0.000 C 
ATOM      3  O   UNL     1       3.909   6.909  17.660  0.00  0.00    +0.000 OA
ATOM      4  C   UNL     1       3.487   5.536  19.608  0.00  0.00    +0.000 C 
ATOM      5  C   UNL     1       4.111   4.171  20.004  0.00  0.00    +0.000 C 
ATOM      6  C   UNL     1       4.782   3.749  18.709  0.00  0.00    +0.000 C 
ATOM      7  O   UNL     1       5.007   2.577  18.376  0.00  0.00    +0.000 OA
ATOM      8  C   UNL     1       2.873   3.357  20.418  0.00  0.00    +0.000 C 
ATOM      9  C   UNL     1       2.069   4.097  21.531  0.00  0.00    +0.000 C 
ATOM     10  C   UNL     1       1.492   5.191  20.969  0.00  0.00    +0.000 C 
ATOM     11  C   UNL     1       1.950   5.214  19.525  0.00  0.00    +0.000 C 
ATOM     12  C   UNL     1       1.943   3.703  19.280  0.00  0.00    +0.000 C 
ATOM     13  C   UNL     1       0.745   2.765  19.222  0.00  0.00    +0.000 C 
ATOM     14  C   UNL     1       1.561   3.018  17.992  0.00  0.00    +0.000 C 
ENDROOT
BRANCH   1  17
ATOM     15  O   UNL     1       4.047   3.920  15.595  0.00  0.00    +0.000 OA
ATOM     16  C   UNL     1       5.181   4.395  15.622  0.00  0.00    +0.000 C 
ATOM     17  N   UNL     1       5.769   4.907  16.771  0.00  0.00    +0.000 N 
ATOM     18  H   UNL     1       6.657   5.398  16.790  0.00  0.00    +0.000 HD
BRANCH  16  19
ATOM     19  C   UNL     1       5.954   4.424  14.344  0.00  0.00    +0.000 A 
ATOM     20  C   UNL     1       5.575   3.534  13.321  0.00  0.00    +0.000 A 
ATOM     21  C   UNL     1       6.296   3.459  12.125  0.00  0.00    +0.000 A 
ATOM     22  C   UNL     1       7.420   4.258  11.943  0.00  0.00    +0.000 A 
ATOM     23  C   UNL     1       7.818   5.119  12.966  0.00  0.00    +0.000 A 
ATOM     24 CL   UNL     1       9.246   6.062  12.758  0.00  0.00    +0.000 Cl
ATOM     25  C   UNL     1       7.096   5.212  14.166  0.00  0.00    +0.000 A 
ENDBRANCH  16  19
ENDBRANCH   1  17
TORSDOF 2
ENDMDL
MODEL 7
REMARK VINA RESULT:      -7.2      1.100      1.135
REMARK  Name = 
REMARK  2 active torsions:
REMARK  status: ('A' for Active; 'I' for Inactive)
REMARK    1  A    between atoms: C_2  and  C_18
REMARK    2  A    between atoms: N_3  and  N_4
REMARK                            x       y       z     vdW  Elec       q    Type
REMARK                         _______ _______ _______ _____ _____    ______ ____
ROOT
ATOM      1  N   UNL     1       5.095   5.112  17.853  0.00  0.00    +0.000 N 
ATOM      2  C   UNL     1       4.172   6.107  18.015  0.00  0.00    +0.000 C 
ATOM      3  O   UNL     1       3.882   6.992  17.217  0.00  0.00    +0.000 OA
ATOM      4  C   UNL     1       3.498   5.903  19.343  0.00  0.00    +0.000 C 
ATOM      5  C   UNL     1       4.192   4.655  19.950  0.00  0.00    +0.000 C 
ATOM      6  C   UNL     1       4.918   4.086  18.744  0.00  0.00    +0.000 C 
ATOM      7  O   UNL     1       5.220   2.894  18.595  0.00  0.00    +0.000 OA
ATOM      8  C   UNL     1       2.996   3.836  20.465  0.00  0.00    +0.000 C 
ATOM      9  C   UNL     1       2.123   4.683  21.442  0.00  0.00    +0.000 C 
ATOM     10  C   UNL     1       1.495   5.642  20.713  0.00  0.00    +0.000 C 
ATOM     11  C   UNL     1       1.985   5.477  19.288  0.00  0.00    +0.000 C 
ATOM     12  C   UNL     1       2.074   3.949  19.274  0.00  0.00    +0.000 C 
ATOM     13  C   UNL     1       0.936   2.939  19.342  0.00  0.00    +0.000 C 
ATOM     14  C   UNL     1       1.764   3.056  18.100  0.00  0.00    +0.000 C 
ENDROOT
BRANCH   1  17
ATOM     15  O   UNL     1       4.190   3.865  15.580  0.00  0.00    +0.000 OA
ATOM     16  C   UNL     1       5.319   4.351  15.574  0.00  0.00    +0.000 C 
ATOM     17  N   UNL     1       5.879   5.000  16.667  0.00  0.00    +0.000 N 
ATOM     18  H   UNL     1       6.763   5.498  16.647  0.00  0.00    +0.000 HD
BRANCH  16  19
ATOM     19  C   UNL     1       6.119   4.238  14.318  0.00  0.00    +0.000 A 
ATOM     20  C   UNL     1       7.073   5.238  14.047  0.00  0.00    +0.000 A 
ATOM     21  C   UNL     1       7.809   5.231  12.859  0.00  0.00    +0.000 A 
ATOM     22  C   UNL     1       7.587   4.236  11.912  0.00  0.00    +0.000 A 
ATOM     23  C   UNL     1       6.622   3.261  12.161  0.00  0.00    +0.000 A 
ATOM     24 CL   UNL     1       6.310   2.066  10.958  0.00  0.00    +0.000 Cl
ATOM     25  C   UNL     1       5.885   3.250  13.355  0.00  0.00    +0.000 A 
ENDBRANCH  16  19
ENDBRANCH   1  17
TORSDOF 2
ENDMDL
MODEL 8
REMARK VINA RESULT:      -7.1      1.748      2.557
REMARK  Name = 
REMARK  2 active torsions:
REMARK  status: ('A' for Active; 'I' for Inactive)
REMARK    1  A    between atoms: C_2  and  C_18
REMARK    2  A    between atoms: N_3  and  N_4
REMARK                            x       y       z     vdW  Elec       q    Type
REMARK                         _______ _______ _______ _____ _____    ______ ____
ROOT
ATOM      1  N   UNL     1       3.607   4.931  17.454  0.00  0.00    +0.000 N 
ATOM      2  C   UNL     1       2.451   4.204  17.503  0.00  0.00    +0.000 C 
ATOM      3  O   UNL     1       1.893   3.627  16.575  0.00  0.00    +0.000 OA
ATOM      4  C   UNL     1       1.987   4.165  18.932  0.00  0.00    +0.000 C 
ATOM      5  C   UNL     1       3.031   5.011  19.709  0.00  0.00    +0.000 C 
ATOM      6  C   UNL     1       4.156   5.122  18.695  0.00  0.00    +0.000 C 
ATOM      7  O   UNL     1       5.351   5.289  18.977  0.00  0.00    +0.000 OA
ATOM      8  C   UNL     1       3.315   4.128  20.936  0.00  0.00    +0.000 C 
ATOM      9  C   UNL     1       1.995   3.794  21.697  0.00  0.00    +0.000 C 
ATOM     10  C   UNL     1       1.272   2.945  20.921  0.00  0.00    +0.000 C 
ATOM     11  C   UNL     1       2.065   2.764  19.642  0.00  0.00    +0.000 C 
ATOM     12  C   UNL     1       3.465   2.786  20.261  0.00  0.00    +0.000 C 
ATOM     13  C   UNL     1       4.103   1.755  21.183  0.00  0.00    +0.000 C 
ATOM     14  C   UNL     1       4.646   1.968  19.804  0.00  0.00    +0.000 C 
ENDROOT
BRANCH   1  17
ATOM     15  O   UNL     1       5.271   3.022  16.393  0.00  0.00    +0.000 OA
ATOM     16  C   UNL     1       5.137   4.085  15.790  0.00  0.00    +0.000 C 
ATOM     17  N   UNL     1       4.326   5.121  16.237  0.00  0.00    +0.000 N 
ATOM     18  H   UNL     1       4.120   5.958  15.702  0.00  0.00    +0.000 HD
BRANCH  16  19
ATOM     19  C   UNL     1       5.885   4.258  14.510  0.00  0.00    +0.000 A 
ATOM     20  C   UNL     1       5.478   3.498  13.397  0.00  0.00    +0.000 A 
ATOM     21  C   UNL     1       6.174   3.559  12.186  0.00  0.00    +0.000 A 
ATOM     22  C   UNL     1       7.302   4.366  12.076  0.00  0.00    +0.000 A 
ATOM     23  C   UNL     1       7.728   5.098  13.185  0.00  0.00    +0.000 A 
ATOM     24 CL   UNL     1       9.161   6.048  13.060  0.00  0.00    +0.000 Cl
ATOM     25  C   UNL     1       7.031   5.053  14.402  0.00  0.00    +0.000 A 
ENDBRANCH  16  19
ENDBRANCH   1  17
TORSDOF 2
ENDMDL
MODEL 9
REMARK VINA RESULT:      -7.1      6.748      8.675
REMARK  Name = 
REMARK  2 active torsions:
REMARK  status: ('A' for Active; 'I' for Inactive)
REMARK    1  A    between atoms: C_2  and  C_18
REMARK    2  A    between atoms: N_3  and  N_4
REMARK                            x       y       z     vdW  Elec       q    Type
REMARK                         _______ _______ _______ _____ _____    ______ ____
ROOT
ATOM      1  N   UNL     1       0.374  10.593  19.671  0.00  0.00    +0.000 N 
ATOM      2  C   UNL     1      -0.897  10.765  19.197  0.00  0.00    +0.000 C 
ATOM      3  O   UNL     1      -1.616   9.922  18.670  0.00  0.00    +0.000 OA
ATOM      4  C   UNL     1      -1.315  12.179  19.489  0.00  0.00    +0.000 C 
ATOM      5  C   UNL     1      -0.080  12.821  20.177  0.00  0.00    +0.000 C 
ATOM      6  C   UNL     1       0.753  11.599  20.521  0.00  0.00    +0.000 C 
ATOM      7  O   UNL     1       1.570  11.537  21.450  0.00  0.00    +0.000 OA
ATOM      8  C   UNL     1      -0.719  13.558  21.366  0.00  0.00    +0.000 C 
ATOM      9  C   UNL     1      -1.827  14.542  20.880  0.00  0.00    +0.000 C 
ATOM     10  C   UNL     1      -2.874  13.801  20.433  0.00  0.00    +0.000 C 
ATOM     11  C   UNL     1      -2.451  12.352  20.563  0.00  0.00    +0.000 C 
ATOM     12  C   UNL     1      -1.655  12.483  21.865  0.00  0.00    +0.000 C 
ATOM     13  C   UNL     1      -2.180  12.791  23.261  0.00  0.00    +0.000 C 
ATOM     14  C   UNL     1      -1.579  11.452  22.962  0.00  0.00    +0.000 C 
ENDROOT
BRANCH   1  17
ATOM     15  O   UNL     1       1.987   9.910  17.557  0.00  0.00    +0.000 OA
ATOM     16  C   UNL     1       1.842   9.101  18.471  0.00  0.00    +0.000 C 
ATOM     17  N   UNL     1       1.046   9.339  19.585  0.00  0.00    +0.000 N 
ATOM     18  H   UNL     1       0.999   8.731  20.396  0.00  0.00    +0.000 HD
BRANCH  16  19
ATOM     19  C   UNL     1       2.567   7.799  18.371  0.00  0.00    +0.000 A 
ATOM     20  C   UNL     1       2.408   6.870  19.417  0.00  0.00    +0.000 A 
ATOM     21  C   UNL     1       3.109   5.660  19.422  0.00  0.00    +0.000 A 
ATOM     22  C   UNL     1       3.998   5.371  18.391  0.00  0.00    +0.000 A 
ATOM     23  C   UNL     1       4.182   6.301  17.368  0.00  0.00    +0.000 A 
ATOM     24 CL   UNL     1       5.329   5.962  16.126  0.00  0.00    +0.000 Cl
ATOM     25  C   UNL     1       3.475   7.513  17.346  0.00  0.00    +0.000 A 
ENDBRANCH  16  19
ENDBRANCH   1  17
TORSDOF 2
ENDMDL
