MODEL 1
REMARK VINA RESULT:      -7.4      0.000      0.000
REMARK  Name = 
REMARK  5 active torsions:
REMARK  status: ('A' for Active; 'I' for Inactive)
REMARK    1  A    between atoms: C_1  and  C_2
REMARK    2  A    between atoms: C_9  and  C_10
REMARK    3  A    between atoms: C_22  and  N_23
REMARK    4  A    between atoms: N_23  and  C_24
REMARK    5  A    between atoms: C_24  and  C_25
REMARK                            x       y       z     vdW  Elec       q    Type
REMARK                         _______ _______ _______ _____ _____    ______ ____
ROOT
ATOM      1  C   UNL     1      -3.245  10.525  15.225  0.00  0.00    +0.000 C 
ATOM      2  C   UNL     1      -2.822  10.797  16.636  0.00  0.00    +0.000 A 
ATOM      3  N   UNL     1      -1.643  10.238  16.994  0.00  0.00    +0.000 NA
ATOM      4  C   UNL     1      -1.184  10.504  18.218  0.00  0.00    +0.000 A 
ATOM      5  C   UNL     1       0.057   9.975  18.529  0.00  0.00    +0.000 A 
ATOM      6  C   UNL     1       0.670  10.256  19.738  0.00  0.00    +0.000 A 
ATOM      7  C   UNL     1       0.007  11.058  20.648  0.00  0.00    +0.000 A 
ATOM      8  F   UNL     1       0.635  11.316  21.806  0.00  0.00    +0.000 F 
ATOM      9  C   UNL     1      -1.278  11.574  20.389  0.00  0.00    +0.000 A 
ATOM     10  C   UNL     1      -1.900  11.307  19.143  0.00  0.00    +0.000 A 
ATOM     11  N   UNL     1      -3.126  11.804  18.780  0.00  0.00    +0.000 NA
ATOM     12  C   UNL     1      -3.567  11.597  17.513  0.00  0.00    +0.000 A 
ENDROOT
BRANCH   9  13
ATOM     13  C   UNL     1      -1.930  12.384  21.434  0.00  0.00    +0.000 A 
ATOM     14  C   UNL     1      -2.635  11.996  22.568  0.00  0.00    +0.000 A 
ATOM     15  C   UNL     1      -3.122  13.158  23.212  0.00  0.00    +0.000 A 
ATOM     16  C   UNL     1      -2.732  14.228  22.434  0.00  0.00    +0.000 A 
ATOM     17  N   UNL     1      -1.970  13.765  21.398  0.00  0.00    +0.000 N 
ATOM     18  C   UNL     1      -3.046  15.647  22.731  0.00  0.00    +0.000 C 
ATOM     19  C   UNL     1      -4.197  15.702  23.761  0.00  0.00    +0.000 C 
ATOM     20  N   UNL     1      -4.181  14.635  24.760  0.00  0.00    +0.000 N 
ATOM     21  C   UNL     1      -3.872  13.324  24.446  0.00  0.00    +0.000 C 
ATOM     22  O   UNL     1      -4.193  12.397  25.185  0.00  0.00    +0.000 OA
ATOM     23  H   UNL     1      -1.493  14.326  20.701  0.00  0.00    +0.000 HD
ATOM     24  H   UNL     1      -4.777  14.714  25.573  0.00  0.00    +0.000 HD
ENDBRANCH   9  13
BRANCH  12  25
ATOM     25  N   UNL     1      -4.786  12.175  17.070  0.00  0.00    +0.000 N 
ATOM     26  H   UNL     1      -4.592  13.093  16.676  0.00  0.00    +0.000 HD
BRANCH  25  27
ATOM     27  C   UNL     1      -6.038  12.132  17.782  0.00  0.00    +0.000 C 
ATOM     28  C   UNL     1      -6.373  10.750  18.318  0.00  0.00    +0.000 C 
ATOM     29  C   UNL     1      -6.076  13.223  18.898  0.00  0.00    +0.000 C 
ATOM     30  C   UNL     1      -7.478  13.620  18.397  0.00  0.00    +0.000 C 
ATOM     31  C   UNL     1      -7.124  12.972  17.047  0.00  0.00    +0.000 C 
ENDBRANCH  25  27
ENDBRANCH  12  25
TORSDOF 3
ENDMDL
MODEL 2
REMARK VINA RESULT:      -7.3      1.342      1.554
REMARK  Name = 
REMARK  5 active torsions:
REMARK  status: ('A' for Active; 'I' for Inactive)
REMARK    1  A    between atoms: C_1  and  C_2
REMARK    2  A    between atoms: C_9  and  C_10
REMARK    3  A    between atoms: C_22  and  N_23
REMARK    4  A    between atoms: N_23  and  C_24
REMARK    5  A    between atoms: C_24  and  C_25
REMARK                            x       y       z     vdW  Elec       q    Type
REMARK                         _______ _______ _______ _____ _____    ______ ____
ROOT
ATOM      1  C   UNL     1      -3.681  10.396  15.332  0.00  0.00    +0.000 C 
ATOM      2  C   UNL     1      -3.031  10.667  16.654  0.00  0.00    +0.000 A 
ATOM      3  N   UNL     1      -1.846  10.042  16.844  0.00  0.00    +0.000 NA
ATOM      4  C   UNL     1      -1.190  10.302  17.976  0.00  0.00    +0.000 A 
ATOM      5  C   UNL     1       0.050   9.701  18.110  0.00  0.00    +0.000 A 
ATOM      6  C   UNL     1       0.857   9.966  19.203  0.00  0.00    +0.000 A 
ATOM      7  C   UNL     1       0.391  10.825  20.180  0.00  0.00    +0.000 A 
ATOM      8  F   UNL     1       1.203  11.065  21.222  0.00  0.00    +0.000 F 
ATOM      9  C   UNL     1      -0.886  11.417  20.105  0.00  0.00    +0.000 A 
ATOM     10  C   UNL     1      -1.706  11.166  18.976  0.00  0.00    +0.000 A 
ATOM     11  N   UNL     1      -2.942  11.732  18.790  0.00  0.00    +0.000 NA
ATOM     12  C   UNL     1      -3.583  11.529  17.611  0.00  0.00    +0.000 A 
ENDROOT
BRANCH   9  13
ATOM     13  C   UNL     1      -1.320  12.286  21.213  0.00  0.00    +0.000 A 
ATOM     14  C   UNL     1      -0.605  13.206  21.973  0.00  0.00    +0.000 A 
ATOM     15  C   UNL     1      -1.465  13.734  22.964  0.00  0.00    +0.000 A 
ATOM     16  C   UNL     1      -2.678  13.096  22.808  0.00  0.00    +0.000 A 
ATOM     17  N   UNL     1      -2.605  12.269  21.722  0.00  0.00    +0.000 N 
ATOM     18  C   UNL     1      -3.874  13.336  23.653  0.00  0.00    +0.000 C 
ATOM     19  C   UNL     1      -3.435  14.054  24.950  0.00  0.00    +0.000 C 
ATOM     20  N   UNL     1      -2.338  15.005  24.787  0.00  0.00    +0.000 N 
ATOM     21  C   UNL     1      -1.244  14.751  23.979  0.00  0.00    +0.000 C 
ATOM     22  O   UNL     1      -0.193  15.370  24.114  0.00  0.00    +0.000 OA
ATOM     23  H   UNL     1      -3.361  11.721  21.327  0.00  0.00    +0.000 HD
ATOM     24  H   UNL     1      -2.130  15.649  25.538  0.00  0.00    +0.000 HD
ENDBRANCH   9  13
BRANCH  12  25
ATOM     25  N   UNL     1      -4.820  12.175  17.342  0.00  0.00    +0.000 N 
ATOM     26  H   UNL     1      -4.642  13.155  17.134  0.00  0.00    +0.000 HD
BRANCH  25  27
ATOM     27  C   UNL     1      -6.042  11.979  18.079  0.00  0.00    +0.000 C 
ATOM     28  C   UNL     1      -6.254  10.537  18.511  0.00  0.00    +0.000 C 
ATOM     29  C   UNL     1      -6.128  12.972  19.280  0.00  0.00    +0.000 C 
ATOM     30  C   UNL     1      -7.570  13.297  18.848  0.00  0.00    +0.000 C 
ATOM     31  C   UNL     1      -7.211  12.787  17.442  0.00  0.00    +0.000 C 
ENDBRANCH  25  27
ENDBRANCH  12  25
TORSDOF 3
ENDMDL
MODEL 3
REMARK VINA RESULT:      -7.2      0.625      1.175
REMARK  Name = 
REMARK  5 active torsions:
REMARK  status: ('A' for Active; 'I' for Inactive)
REMARK    1  A    between atoms: C_1  and  C_2
REMARK    2  A    between atoms: C_9  and  C_10
REMARK    3  A    between atoms: C_22  and  N_23
REMARK    4  A    between atoms: N_23  and  C_24
REMARK    5  A    between atoms: C_24  and  C_25
REMARK                            x       y       z     vdW  Elec       q    Type
REMARK                         _______ _______ _______ _____ _____    ______ ____
ROOT
ATOM      1  C   UNL     1      -3.680  10.723  15.457  0.00  0.00    +0.000 C 
ATOM      2  C   UNL     1      -3.112  10.950  16.824  0.00  0.00    +0.000 A 
ATOM      3  N   UNL     1      -1.912  10.365  17.046  0.00  0.00    +0.000 NA
ATOM      4  C   UNL     1      -1.326  10.591  18.223  0.00  0.00    +0.000 A 
ATOM      5  C   UNL     1      -0.070  10.037  18.392  0.00  0.00    +0.000 A 
ATOM      6  C   UNL     1       0.668  10.276  19.538  0.00  0.00    +0.000 A 
ATOM      7  C   UNL     1       0.114  11.061  20.533  0.00  0.00    +0.000 A 
ATOM      8  F   UNL     1       0.860  11.278  21.627  0.00  0.00    +0.000 F 
ATOM      9  C   UNL     1      -1.182  11.602  20.420  0.00  0.00    +0.000 A 
ATOM     10  C   UNL     1      -1.932  11.378  19.237  0.00  0.00    +0.000 A 
ATOM     11  N   UNL     1      -3.180  11.901  19.014  0.00  0.00    +0.000 NA
ATOM     12  C   UNL     1      -3.751  11.735  17.794  0.00  0.00    +0.000 A 
ENDROOT
BRANCH   9  13
ATOM     13  C   UNL     1      -1.711  12.391  21.546  0.00  0.00    +0.000 A 
ATOM     14  C   UNL     1      -2.640  12.055  22.527  0.00  0.00    +0.000 A 
ATOM     15  C   UNL     1      -2.861  13.190  23.342  0.00  0.00    +0.000 A 
ATOM     16  C   UNL     1      -2.087  14.204  22.817  0.00  0.00    +0.000 A 
ATOM     17  N   UNL     1      -1.356  13.707  21.774  0.00  0.00    +0.000 N 
ATOM     18  C   UNL     1      -2.025  15.585  23.356  0.00  0.00    +0.000 C 
ATOM     19  C   UNL     1      -3.239  15.816  24.284  0.00  0.00    +0.000 C 
ATOM     20  N   UNL     1      -3.656  14.648  25.058  0.00  0.00    +0.000 N 
ATOM     21  C   UNL     1      -3.689  13.373  24.522  0.00  0.00    +0.000 C 
ATOM     22  O   UNL     1      -4.352  12.479  25.041  0.00  0.00    +0.000 OA
ATOM     23  H   UNL     1      -0.653  14.203  21.237  0.00  0.00    +0.000 HD
ATOM     24  H   UNL     1      -4.306  14.770  25.821  0.00  0.00    +0.000 HD
ENDBRANCH   9  13
BRANCH  12  25
ATOM     25  N   UNL     1      -4.999  12.342  17.493  0.00  0.00    +0.000 N 
ATOM     26  H   UNL     1      -4.840  13.311  17.227  0.00  0.00    +0.000 HD
BRANCH  25  27
ATOM     27  C   UNL     1      -6.216  12.167  18.245  0.00  0.00    +0.000 C 
ATOM     28  C   UNL     1      -7.389  12.944  17.671  0.00  0.00    +0.000 C 
ATOM     29  C   UNL     1      -6.542  10.651  18.423  0.00  0.00    +0.000 C 
ATOM     30  C   UNL     1      -6.793  10.927  19.917  0.00  0.00    +0.000 C 
ATOM     31  C   UNL     1      -5.932  12.194  19.776  0.00  0.00    +0.000 C 
ENDBRANCH  25  27
ENDBRANCH  12  25
TORSDOF 3
ENDMDL
MODEL 4
REMARK VINA RESULT:      -7.2      2.201      4.743
REMARK  Name = 
REMARK  5 active torsions:
REMARK  status: ('A' for Active; 'I' for Inactive)
REMARK    1  A    between atoms: C_1  and  C_2
REMARK    2  A    between atoms: C_9  and  C_10
REMARK    3  A    between atoms: C_22  and  N_23
REMARK    4  A    between atoms: N_23  and  C_24
REMARK    5  A    between atoms: C_24  and  C_25
REMARK                            x       y       z     vdW  Elec       q    Type
REMARK                         _______ _______ _______ _____ _____    ______ ____
ROOT
ATOM      1  C   UNL     1      -2.677  10.340  15.689  0.00  0.00    +0.000 C 
ATOM      2  C   UNL     1      -3.267  10.969  16.914  0.00  0.00    +0.000 A 
ATOM      3  N   UNL     1      -4.616  10.898  16.998  0.00  0.00    +0.000 NA
ATOM      4  C   UNL     1      -5.189  11.381  18.101  0.00  0.00    +0.000 A 
ATOM      5  C   UNL     1      -6.562  11.230  18.186  0.00  0.00    +0.000 A 
ATOM      6  C   UNL     1      -7.253  11.616  19.322  0.00  0.00    +0.000 A 
ATOM      7  C   UNL     1      -6.549  12.185  20.367  0.00  0.00    +0.000 A 
ATOM      8  F   UNL     1      -7.250  12.541  21.455  0.00  0.00    +0.000 F 
ATOM      9  C   UNL     1      -5.159  12.401  20.297  0.00  0.00    +0.000 A 
ATOM     10  C   UNL     1      -4.443  11.987  19.145  0.00  0.00    +0.000 A 
ATOM     11  N   UNL     1      -3.085  12.110  19.005  0.00  0.00    +0.000 NA
ATOM     12  C   UNL     1      -2.486  11.558  17.919  0.00  0.00    +0.000 A 
ENDROOT
BRANCH   9  13
ATOM     13  C   UNL     1      -4.494  13.054  21.440  0.00  0.00    +0.000 A 
ATOM     14  C   UNL     1      -4.921  14.095  22.259  0.00  0.00    +0.000 A 
ATOM     15  C   UNL     1      -3.885  14.402  23.171  0.00  0.00    +0.000 A 
ATOM     16  C   UNL     1      -2.833  13.563  22.862  0.00  0.00    +0.000 A 
ATOM     17  N   UNL     1      -3.221  12.718  21.861  0.00  0.00    +0.000 N 
ATOM     18  C   UNL     1      -1.526  13.555  23.565  0.00  0.00    +0.000 C 
ATOM     19  C   UNL     1      -1.378  14.868  24.366  0.00  0.00    +0.000 C 
ATOM     20  N   UNL     1      -2.619  15.382  24.942  0.00  0.00    +0.000 N 
ATOM     21  C   UNL     1      -3.822  15.362  24.260  0.00  0.00    +0.000 C 
ATOM     22  O   UNL     1      -4.755  16.089  24.589  0.00  0.00    +0.000 OA
ATOM     23  H   UNL     1      -2.682  11.953  21.472  0.00  0.00    +0.000 HD
ATOM     24  H   UNL     1      -2.572  16.117  25.634  0.00  0.00    +0.000 HD
ENDBRANCH   9  13
BRANCH  12  25
ATOM     25  N   UNL     1      -1.073  11.582  17.784  0.00  0.00    +0.000 N 
ATOM     26  H   UNL     1      -0.816  11.116  16.917  0.00  0.00    +0.000 HD
BRANCH  25  27
ATOM     27  C   UNL     1      -0.129  11.337  18.845  0.00  0.00    +0.000 C 
ATOM     28  C   UNL     1       0.244  12.594  19.614  0.00  0.00    +0.000 C 
ATOM     29  C   UNL     1      -0.637  10.199  19.784  0.00  0.00    +0.000 C 
ATOM     30  C   UNL     1       0.763   9.562  19.694  0.00  0.00    +0.000 C 
ATOM     31  C   UNL     1       0.978  10.342  18.385  0.00  0.00    +0.000 C 
ENDBRANCH  25  27
ENDBRANCH  12  25
TORSDOF 3
ENDMDL
MODEL 5
REMARK VINA RESULT:      -7.1      1.383      1.885
REMARK  Name = 
REMARK  5 active torsions:
REMARK  status: ('A' for Active; 'I' for Inactive)
REMARK    1  A    between atoms: C_1  and  C_2
REMARK    2  A    between atoms: C_9  and  C_10
REMARK    3  A    between atoms: C_22  and  N_23
REMARK    4  A    between atoms: N_23  and  C_24
REMARK    5  A    between atoms: C_24  and  C_25
REMARK                            x       y       z     vdW  Elec       q    Type
REMARK                         _______ _______ _______ _____ _____    ______ ____
ROOT
ATOM      1  C   UNL     1      -3.734  10.423  15.356  0.00  0.00    +0.000 C 
ATOM      2  C   UNL     1      -3.077  10.694  16.674  0.00  0.00    +0.000 A 
ATOM      3  N   UNL     1      -1.906  10.044  16.871  0.00  0.00    +0.000 NA
ATOM      4  C   UNL     1      -1.242  10.302  17.999  0.00  0.00    +0.000 A 
ATOM      5  C   UNL     1      -0.017   9.674  18.139  0.00  0.00    +0.000 A 
ATOM      6  C   UNL     1       0.798   9.933  19.228  0.00  0.00    +0.000 A 
ATOM      7  C   UNL     1       0.352  10.814  20.196  0.00  0.00    +0.000 A 
ATOM      8  F   UNL     1       1.171  11.047  21.234  0.00  0.00    +0.000 F 
ATOM      9  C   UNL     1      -0.910  11.434  20.115  0.00  0.00    +0.000 A 
ATOM     10  C   UNL     1      -1.738  11.189  18.990  0.00  0.00    +0.000 A 
ATOM     11  N   UNL     1      -2.960  11.781  18.798  0.00  0.00    +0.000 NA
ATOM     12  C   UNL     1      -3.608  11.580  17.623  0.00  0.00    +0.000 A 
ENDROOT
BRANCH   9  13
ATOM     13  C   UNL     1      -1.323  12.325  21.213  0.00  0.00    +0.000 A 
ATOM     14  C   UNL     1      -0.588  13.245  21.955  0.00  0.00    +0.000 A 
ATOM     15  C   UNL     1      -1.433  13.800  22.944  0.00  0.00    +0.000 A 
ATOM     16  C   UNL     1      -2.657  13.179  22.806  0.00  0.00    +0.000 A 
ATOM     17  N   UNL     1      -2.605  12.335  21.732  0.00  0.00    +0.000 N 
ATOM     18  C   UNL     1      -3.842  13.449  23.656  0.00  0.00    +0.000 C 
ATOM     19  C   UNL     1      -3.384  14.179  24.939  0.00  0.00    +0.000 C 
ATOM     20  N   UNL     1      -2.274  15.111  24.755  0.00  0.00    +0.000 N 
ATOM     21  C   UNL     1      -1.190  14.828  23.943  0.00  0.00    +0.000 C 
ATOM     22  O   UNL     1      -0.128  15.433  24.061  0.00  0.00    +0.000 OA
ATOM     23  H   UNL     1      -3.372  11.793  21.350  0.00  0.00    +0.000 HD
ATOM     24  H   UNL     1      -2.050  15.762  25.494  0.00  0.00    +0.000 HD
ENDBRANCH   9  13
BRANCH  12  25
ATOM     25  N   UNL     1      -4.829  12.251  17.348  0.00  0.00    +0.000 N 
ATOM     26  H   UNL     1      -4.625  13.209  17.074  0.00  0.00    +0.000 HD
BRANCH  25  27
ATOM     27  C   UNL     1      -6.036  12.143  18.128  0.00  0.00    +0.000 C 
ATOM     28  C   UNL     1      -7.213  12.882  17.513  0.00  0.00    +0.000 C 
ATOM     29  C   UNL     1      -6.369  10.647  18.425  0.00  0.00    +0.000 C 
ATOM     30  C   UNL     1      -6.596  11.038  19.898  0.00  0.00    +0.000 C 
ATOM     31  C   UNL     1      -5.729  12.284  19.649  0.00  0.00    +0.000 C 
ENDBRANCH  25  27
ENDBRANCH  12  25
TORSDOF 3
ENDMDL
MODEL 6
REMARK VINA RESULT:      -7.1      2.476      4.842
REMARK  Name = 
REMARK  5 active torsions:
REMARK  status: ('A' for Active; 'I' for Inactive)
REMARK    1  A    between atoms: C_1  and  C_2
REMARK    2  A    between atoms: C_9  and  C_10
REMARK    3  A    between atoms: C_22  and  N_23
REMARK    4  A    between atoms: N_23  and  C_24
REMARK    5  A    between atoms: C_24  and  C_25
REMARK                            x       y       z     vdW  Elec       q    Type
REMARK                         _______ _______ _______ _____ _____    ______ ____
ROOT
ATOM      1  C   UNL     1      -2.653  10.607  16.260  0.00  0.00    +0.000 C 
ATOM      2  C   UNL     1      -3.441  11.112  17.430  0.00  0.00    +0.000 A 
ATOM      3  N   UNL     1      -4.718  10.670  17.488  0.00  0.00    +0.000 NA
ATOM      4  C   UNL     1      -5.445  11.032  18.547  0.00  0.00    +0.000 A 
ATOM      5  C   UNL     1      -6.725  10.507  18.612  0.00  0.00    +0.000 A 
ATOM      6  C   UNL     1      -7.539  10.746  19.706  0.00  0.00    +0.000 A 
ATOM      7  C   UNL     1      -7.061  11.545  20.728  0.00  0.00    +0.000 A 
ATOM      8  F   UNL     1      -7.875  11.748  21.776  0.00  0.00    +0.000 F 
ATOM      9  C   UNL     1      -5.784  12.138  20.675  0.00  0.00    +0.000 A 
ATOM     10  C   UNL     1      -4.938  11.878  19.567  0.00  0.00    +0.000 A 
ATOM     11  N   UNL     1      -3.663  12.370  19.448  0.00  0.00    +0.000 NA
ATOM     12  C   UNL     1      -2.894  11.949  18.412  0.00  0.00    +0.000 A 
ENDROOT
BRANCH   9  13
ATOM     13  C   UNL     1      -5.372  13.012  21.788  0.00  0.00    +0.000 A 
ATOM     14  C   UNL     1      -5.830  14.270  22.166  0.00  0.00    +0.000 A 
ATOM     15  C   UNL     1      -5.060  14.715  23.265  0.00  0.00    +0.000 A 
ATOM     16  C   UNL     1      -4.124  13.731  23.511  0.00  0.00    +0.000 A 
ATOM     17  N   UNL     1      -4.350  12.686  22.659  0.00  0.00    +0.000 N 
ATOM     18  C   UNL     1      -3.094  13.793  24.577  0.00  0.00    +0.000 C 
ATOM     19  C   UNL     1      -2.958  15.255  25.059  0.00  0.00    +0.000 C 
ATOM     20  N   UNL     1      -4.204  16.018  25.075  0.00  0.00    +0.000 N 
ATOM     21  C   UNL     1      -5.147  15.925  24.067  0.00  0.00    +0.000 C 
ATOM     22  O   UNL     1      -5.997  16.796  23.904  0.00  0.00    +0.000 OA
ATOM     23  H   UNL     1      -3.861  11.798  22.650  0.00  0.00    +0.000 HD
ATOM     24  H   UNL     1      -4.231  16.905  25.557  0.00  0.00    +0.000 HD
ENDBRANCH   9  13
BRANCH  12  25
ATOM     25  N   UNL     1      -1.538  12.360  18.307  0.00  0.00    +0.000 N 
ATOM     26  H   UNL     1      -1.284  12.410  17.323  0.00  0.00    +0.000 HD
BRANCH  25  27
ATOM     27  C   UNL     1      -0.457  11.892  19.136  0.00  0.00    +0.000 C 
ATOM     28  C   UNL     1       0.455  13.009  19.615  0.00  0.00    +0.000 C 
ATOM     29  C   UNL     1      -1.001  11.027  20.316  0.00  0.00    +0.000 C 
ATOM     30  C   UNL     1       0.077   9.978  19.983  0.00  0.00    +0.000 C 
ATOM     31  C   UNL     1       0.149  10.575  18.567  0.00  0.00    +0.000 C 
ENDBRANCH  25  27
ENDBRANCH  12  25
TORSDOF 3
ENDMDL
MODEL 7
REMARK VINA RESULT:      -7.0      2.477      4.846
REMARK  Name = 
REMARK  5 active torsions:
REMARK  status: ('A' for Active; 'I' for Inactive)
REMARK    1  A    between atoms: C_1  and  C_2
REMARK    2  A    between atoms: C_9  and  C_10
REMARK    3  A    between atoms: C_22  and  N_23
REMARK    4  A    between atoms: N_23  and  C_24
REMARK    5  A    between atoms: C_24  and  C_25
REMARK                            x       y       z     vdW  Elec       q    Type
REMARK                         _______ _______ _______ _____ _____    ______ ____
ROOT
ATOM      1  C   UNL     1      -2.695  10.712  16.270  0.00  0.00    +0.000 C 
ATOM      2  C   UNL     1      -3.470  11.200  17.455  0.00  0.00    +0.000 A 
ATOM      3  N   UNL     1      -4.749  10.762  17.518  0.00  0.00    +0.000 NA
ATOM      4  C   UNL     1      -5.465  11.110  18.589  0.00  0.00    +0.000 A 
ATOM      5  C   UNL     1      -6.746  10.590  18.656  0.00  0.00    +0.000 A 
ATOM      6  C   UNL     1      -7.550  10.812  19.761  0.00  0.00    +0.000 A 
ATOM      7  C   UNL     1      -7.059  11.592  20.793  0.00  0.00    +0.000 A 
ATOM      8  F   UNL     1      -7.862  11.781  21.852  0.00  0.00    +0.000 F 
ATOM      9  C   UNL     1      -5.780  12.180  20.738  0.00  0.00    +0.000 A 
ATOM     10  C   UNL     1      -4.945  11.936  19.619  0.00  0.00    +0.000 A 
ATOM     11  N   UNL     1      -3.669  12.424  19.497  0.00  0.00    +0.000 NA
ATOM     12  C   UNL     1      -2.911  12.018  18.447  0.00  0.00    +0.000 A 
ENDROOT
BRANCH   9  13
ATOM     13  C   UNL     1      -5.354  13.033  21.863  0.00  0.00    +0.000 A 
ATOM     14  C   UNL     1      -5.777  14.302  22.245  0.00  0.00    +0.000 A 
ATOM     15  C   UNL     1      -5.007  14.716  23.356  0.00  0.00    +0.000 A 
ATOM     16  C   UNL     1      -4.105  13.701  23.605  0.00  0.00    +0.000 A 
ATOM     17  N   UNL     1      -4.353  12.670  22.744  0.00  0.00    +0.000 N 
ATOM     18  C   UNL     1      -3.086  13.723  24.683  0.00  0.00    +0.000 C 
ATOM     19  C   UNL     1      -2.910  15.177  25.178  0.00  0.00    +0.000 C 
ATOM     20  N   UNL     1      -4.132  15.978  25.185  0.00  0.00    +0.000 N 
ATOM     21  C   UNL     1      -5.066  15.922  24.166  0.00  0.00    +0.000 C 
ATOM     22  O   UNL     1      -5.886  16.820  24.000  0.00  0.00    +0.000 OA
ATOM     23  H   UNL     1      -3.892  11.767  22.733  0.00  0.00    +0.000 HD
ATOM     24  H   UNL     1      -4.137  16.863  25.673  0.00  0.00    +0.000 HD
ENDBRANCH   9  13
BRANCH  12  25
ATOM     25  N   UNL     1      -1.555  12.425  18.337  0.00  0.00    +0.000 N 
ATOM     26  H   UNL     1      -1.317  12.518  17.352  0.00  0.00    +0.000 HD
BRANCH  25  27
ATOM     27  C   UNL     1      -0.462  11.912  19.124  0.00  0.00    +0.000 C 
ATOM     28  C   UNL     1      -0.178  10.442  18.864  0.00  0.00    +0.000 C 
ATOM     29  C   UNL     1       0.809  12.800  18.947  0.00  0.00    +0.000 C 
ATOM     30  C   UNL     1       0.968  12.797  20.479  0.00  0.00    +0.000 C 
ATOM     31  C   UNL     1      -0.528  12.452  20.583  0.00  0.00    +0.000 C 
ENDBRANCH  25  27
ENDBRANCH  12  25
TORSDOF 3
ENDMDL
MODEL 8
REMARK VINA RESULT:      -7.0      6.420      9.917
REMARK  Name = 
REMARK  5 active torsions:
REMARK  status: ('A' for Active; 'I' for Inactive)
REMARK    1  A    between atoms: C_1  and  C_2
REMARK    2  A    between atoms: C_9  and  C_10
REMARK    3  A    between atoms: C_22  and  N_23
REMARK    4  A    between atoms: N_23  and  C_24
REMARK    5  A    between atoms: C_24  and  C_25
REMARK                            x       y       z     vdW  Elec       q    Type
REMARK                         _______ _______ _______ _____ _____    ______ ____
ROOT
ATOM      1  C   UNL     1       5.899   3.484  15.603  0.00  0.00    +0.000 C 
ATOM      2  C   UNL     1       4.853   4.058  16.508  0.00  0.00    +0.000 A 
ATOM      3  N   UNL     1       3.996   3.153  17.035  0.00  0.00    +0.000 NA
ATOM      4  C   UNL     1       3.087   3.600  17.903  0.00  0.00    +0.000 A 
ATOM      5  C   UNL     1       2.272   2.639  18.476  0.00  0.00    +0.000 A 
ATOM      6  C   UNL     1       1.350   2.975  19.452  0.00  0.00    +0.000 A 
ATOM      7  C   UNL     1       1.236   4.301  19.829  0.00  0.00    +0.000 A 
ATOM      8  F   UNL     1       0.338   4.589  20.785  0.00  0.00    +0.000 F 
ATOM      9  C   UNL     1       2.012   5.314  19.234  0.00  0.00    +0.000 A 
ATOM     10  C   UNL     1       2.974   4.971  18.249  0.00  0.00    +0.000 A 
ATOM     11  N   UNL     1       3.808   5.879  17.648  0.00  0.00    +0.000 NA
ATOM     12  C   UNL     1       4.781   5.423  16.819  0.00  0.00    +0.000 A 
ENDROOT
BRANCH   9  13
ATOM     13  C   UNL     1       1.795   6.707  19.665  0.00  0.00    +0.000 A 
ATOM     14  C   UNL     1       1.503   7.227  20.922  0.00  0.00    +0.000 A 
ATOM     15  C   UNL     1       1.320   8.624  20.797  0.00  0.00    +0.000 A 
ATOM     16  C   UNL     1       1.468   8.919  19.457  0.00  0.00    +0.000 A 
ATOM     17  N   UNL     1       1.808   7.776  18.790  0.00  0.00    +0.000 N 
ATOM     18  C   UNL     1       1.341  10.276  18.872  0.00  0.00    +0.000 C 
ATOM     19  C   UNL     1       0.615  11.193  19.883  0.00  0.00    +0.000 C 
ATOM     20  N   UNL     1       0.923  10.927  21.287  0.00  0.00    +0.000 N 
ATOM     21  C   UNL     1       1.046   9.646  21.794  0.00  0.00    +0.000 C 
ATOM     22  O   UNL     1       0.954   9.424  22.998  0.00  0.00    +0.000 OA
ATOM     23  H   UNL     1       2.043   7.697  17.806  0.00  0.00    +0.000 HD
ATOM     24  H   UNL     1       0.646  11.602  21.987  0.00  0.00    +0.000 HD
ENDBRANCH   9  13
BRANCH  12  25
ATOM     25  N   UNL     1       5.724   6.322  16.252  0.00  0.00    +0.000 N 
ATOM     26  H   UNL     1       5.614   6.321  15.240  0.00  0.00    +0.000 HD
BRANCH  25  27
ATOM     27  C   UNL     1       7.100   6.455  16.659  0.00  0.00    +0.000 C 
ATOM     28  C   UNL     1       8.085   6.105  15.555  0.00  0.00    +0.000 C 
ATOM     29  C   UNL     1       7.363   7.871  17.259  0.00  0.00    +0.000 C 
ATOM     30  C   UNL     1       8.085   7.188  18.435  0.00  0.00    +0.000 C 
ATOM     31  C   UNL     1       7.309   5.903  18.100  0.00  0.00    +0.000 C 
ENDBRANCH  25  27
ENDBRANCH  12  25
TORSDOF 3
ENDMDL
MODEL 9
REMARK VINA RESULT:      -7.0      2.126      4.698
REMARK  Name = 
REMARK  5 active torsions:
REMARK  status: ('A' for Active; 'I' for Inactive)
REMARK    1  A    between atoms: C_1  and  C_2
REMARK    2  A    between atoms: C_9  and  C_10
REMARK    3  A    between atoms: C_22  and  N_23
REMARK    4  A    between atoms: N_23  and  C_24
REMARK    5  A    between atoms: C_24  and  C_25
REMARK                            x       y       z     vdW  Elec       q    Type
REMARK                         _______ _______ _______ _____ _____    ______ ____
ROOT
ATOM      1  C   UNL     1      -2.778  10.153  15.611  0.00  0.00    +0.000 C 
ATOM      2  C   UNL     1      -3.411  10.932  16.723  0.00  0.00    +0.000 A 
ATOM      3  N   UNL     1      -4.689  11.315  16.494  0.00  0.00    +0.000 NA
ATOM      4  C   UNL     1      -5.325  11.952  17.479  0.00  0.00    +0.000 A 
ATOM      5  C   UNL     1      -6.650  12.269  17.239  0.00  0.00    +0.000 A 
ATOM      6  C   UNL     1      -7.433  12.853  18.220  0.00  0.00    +0.000 A 
ATOM      7  C   UNL     1      -6.858  13.144  19.443  0.00  0.00    +0.000 A 
ATOM      8  F   UNL     1      -7.648  13.704  20.373  0.00  0.00    +0.000 F 
ATOM      9  C   UNL     1      -5.499  12.883  19.708  0.00  0.00    +0.000 A 
ATOM     10  C   UNL     1      -4.699  12.264  18.714  0.00  0.00    +0.000 A 
ATOM     11  N   UNL     1      -3.382  11.927  18.895  0.00  0.00    +0.000 NA
ATOM     12  C   UNL     1      -2.750  11.217  17.926  0.00  0.00    +0.000 A 
ENDROOT
BRANCH   9  13
ATOM     13  C   UNL     1      -4.957  13.265  21.024  0.00  0.00    +0.000 A 
ATOM     14  C   UNL     1      -5.032  12.619  22.254  0.00  0.00    +0.000 A 
ATOM     15  C   UNL     1      -4.407  13.433  23.227  0.00  0.00    +0.000 A 
ATOM     16  C   UNL     1      -3.996  14.576  22.574  0.00  0.00    +0.000 A 
ATOM     17  N   UNL     1      -4.277  14.449  21.242  0.00  0.00    +0.000 N 
ATOM     18  C   UNL     1      -3.303  15.717  23.222  0.00  0.00    +0.000 C 
ATOM     19  C   UNL     1      -3.498  15.619  24.752  0.00  0.00    +0.000 C 
ATOM     20  N   UNL     1      -3.520  14.258  25.285  0.00  0.00    +0.000 N 
ATOM     21  C   UNL     1      -4.168  13.217  24.645  0.00  0.00    +0.000 C 
ATOM     22  O   UNL     1      -4.480  12.193  25.245  0.00  0.00    +0.000 OA
ATOM     23  H   UNL     1      -4.032  15.103  20.507  0.00  0.00    +0.000 HD
ATOM     24  H   UNL     1      -3.447  14.120  26.284  0.00  0.00    +0.000 HD
ENDBRANCH   9  13
BRANCH  12  25
ATOM     25  N   UNL     1      -1.416  10.767  18.116  0.00  0.00    +0.000 N 
ATOM     26  H   UNL     1      -1.412   9.750  18.148  0.00  0.00    +0.000 HD
BRANCH  25  27
ATOM     27  C   UNL     1      -0.458  11.353  19.018  0.00  0.00    +0.000 C 
ATOM     28  C   UNL     1      -0.776  11.090  20.481  0.00  0.00    +0.000 C 
ATOM     29  C   UNL     1       0.993  10.916  18.642  0.00  0.00    +0.000 C 
ATOM     30  C   UNL     1       1.419  12.392  18.762  0.00  0.00    +0.000 C 
ATOM     31  C   UNL     1      -0.054  12.782  18.549  0.00  0.00    +0.000 C 
ENDBRANCH  25  27
ENDBRANCH  12  25
TORSDOF 3
ENDMDL
