MODEL 1
REMARK VINA RESULT:      -8.2      0.000      0.000
REMARK  Name = 
REMARK  4 active torsions:
REMARK  status: ('A' for Active; 'I' for Inactive)
REMARK    1  A    between atoms: C_1  and  C_2
REMARK    2  A    between atoms: C_4  and  N_5
REMARK    3  A    between atoms: N_8  and  C_9
REMARK    4  A    between atoms: N_17  and  C_18
REMARK                            x       y       z     vdW  Elec       q    Type
REMARK                         _______ _______ _______ _____ _____    ______ ____
ROOT
ATOM      1  N   UNL     1       3.193   5.819  20.359  0.00  0.00    +0.000 N 
ATOM      2  C   UNL     1       2.403   6.805  19.713  0.00  0.00    +0.000 C 
ATOM      3  O   UNL     1       2.094   6.629  18.542  0.00  0.00    +0.000 OA
ATOM      4  N   UNL     1       2.053   7.849  20.531  0.00  0.00    +0.000 N 
ATOM      5  H   UNL     1       3.305   5.795  21.362  0.00  0.00    +0.000 HD
ATOM      6  H   UNL     1       2.557   7.976  21.401  0.00  0.00    +0.000 HD
ENDROOT
BRANCH   4   7
ATOM      7  C   UNL     1       1.220   8.919  20.097  0.00  0.00    +0.000 A 
ATOM      8  C   UNL     1       1.265   9.401  18.786  0.00  0.00    +0.000 A 
ATOM      9  C   UNL     1       0.542  10.532  18.402  0.00  0.00    +0.000 A 
ATOM     10  C   UNL     1      -0.269  11.186  19.324  0.00  0.00    +0.000 A 
ATOM     11 CL   UNL     1      -1.094  12.606  18.794  0.00  0.00    +0.000 Cl
ATOM     12  C   UNL     1      -0.373  10.681  20.624  0.00  0.00    +0.000 A 
ATOM     13 CL   UNL     1      -1.345  11.455  21.827  0.00  0.00    +0.000 Cl
ATOM     14  C   UNL     1       0.354   9.534  21.006  0.00  0.00    +0.000 A 
ENDBRANCH   4   7
BRANCH   1  18
ATOM     15  C   UNL     1       3.308   1.323  18.208  0.00  0.00    +0.000 C 
ATOM     16  C   UNL     1       3.612   2.713  18.629  0.00  0.00    +0.000 A 
ATOM     17  C   UNL     1       2.945   3.479  19.608  0.00  0.00    +0.000 A 
ATOM     18  C   UNL     1       3.593   4.695  19.624  0.00  0.00    +0.000 A 
ATOM     19  N   UNL     1       4.640   4.584  18.721  0.00  0.00    +0.000 N 
ATOM     20  N   UNL     1       4.595   3.410  18.041  0.00  0.00    +0.000 NA
BRANCH  19  21
ATOM     21  C   UNL     1       5.657   5.538  18.473  0.00  0.00    +0.000 A 
ATOM     22  C   UNL     1       5.504   6.513  17.475  0.00  0.00    +0.000 A 
ATOM     23  C   UNL     1       6.559   7.375  17.181  0.00  0.00    +0.000 A 
ATOM     24  C   UNL     1       7.763   7.265  17.874  0.00  0.00    +0.000 A 
ATOM     25  C   UNL     1       7.899   6.328  18.900  0.00  0.00    +0.000 A 
ATOM     26  C   UNL     1       6.839   5.482  19.222  0.00  0.00    +0.000 A 
ENDBRANCH  19  21
ENDBRANCH   1  18
TORSDOF 3
ENDMDL
MODEL 2
REMARK VINA RESULT:      -8.1      4.662      6.842
REMARK  Name = 
REMARK  4 active torsions:
REMARK  status: ('A' for Active; 'I' for Inactive)
REMARK    1  A    between atoms: C_1  and  C_2
REMARK    2  A    between atoms: C_4  and  N_5
REMARK    3  A    between atoms: N_8  and  C_9
REMARK    4  A    between atoms: N_17  and  C_18
REMARK                            x       y       z     vdW  Elec       q    Type
REMARK                         _______ _______ _______ _____ _____    ______ ____
ROOT
ATOM      1  N   UNL     1       7.547   6.463  18.064  0.00  0.00    +0.000 N 
ATOM      2  C   UNL     1       7.873   7.835  17.897  0.00  0.00    +0.000 C 
ATOM      3  O   UNL     1       7.479   8.409  16.891  0.00  0.00    +0.000 OA
ATOM      4  N   UNL     1       8.589   8.358  18.943  0.00  0.00    +0.000 N 
ATOM      5  H   UNL     1       7.655   5.990  18.949  0.00  0.00    +0.000 HD
ATOM      6  H   UNL     1       9.033   7.724  19.596  0.00  0.00    +0.000 HD
ENDROOT
BRANCH   4   7
ATOM      7  C   UNL     1       8.972   9.728  19.001  0.00  0.00    +0.000 A 
ATOM      8  C   UNL     1       9.329  10.442  17.853  0.00  0.00    +0.000 A 
ATOM      9  C   UNL     1       9.828  11.743  17.932  0.00  0.00    +0.000 A 
ATOM     10  C   UNL     1       9.951  12.368  19.168  0.00  0.00    +0.000 A 
ATOM     11 CL   UNL     1      10.622  13.958  19.195  0.00  0.00    +0.000 Cl
ATOM     12  C   UNL     1       9.542  11.691  20.322  0.00  0.00    +0.000 A 
ATOM     13 CL   UNL     1       9.687  12.398  21.893  0.00  0.00    +0.000 Cl
ATOM     14  C   UNL     1       9.032  10.379  20.237  0.00  0.00    +0.000 A 
ENDBRANCH   4   7
BRANCH   1  18
ATOM     15  C   UNL     1       6.233   3.813  14.050  0.00  0.00    +0.000 C 
ATOM     16  C   UNL     1       6.222   4.605  15.306  0.00  0.00    +0.000 A 
ATOM     17  C   UNL     1       7.318   5.232  15.934  0.00  0.00    +0.000 A 
ATOM     18  C   UNL     1       6.799   5.827  17.064  0.00  0.00    +0.000 A 
ATOM     19  N   UNL     1       5.432   5.592  17.028  0.00  0.00    +0.000 N 
ATOM     20  N   UNL     1       5.091   4.764  16.008  0.00  0.00    +0.000 NA
BRANCH  19  21
ATOM     21  C   UNL     1       4.455   6.105  17.917  0.00  0.00    +0.000 A 
ATOM     22  C   UNL     1       4.154   5.442  19.116  0.00  0.00    +0.000 A 
ATOM     23  C   UNL     1       3.118   5.910  19.925  0.00  0.00    +0.000 A 
ATOM     24  C   UNL     1       2.383   7.029  19.538  0.00  0.00    +0.000 A 
ATOM     25  C   UNL     1       2.715   7.717  18.369  0.00  0.00    +0.000 A 
ATOM     26  C   UNL     1       3.769   7.274  17.570  0.00  0.00    +0.000 A 
ENDBRANCH  19  21
ENDBRANCH   1  18
TORSDOF 3
ENDMDL
MODEL 3
REMARK VINA RESULT:      -8.0      0.215      1.012
REMARK  Name = 
REMARK  4 active torsions:
REMARK  status: ('A' for Active; 'I' for Inactive)
REMARK    1  A    between atoms: C_1  and  C_2
REMARK    2  A    between atoms: C_4  and  N_5
REMARK    3  A    between atoms: N_8  and  C_9
REMARK    4  A    between atoms: N_17  and  C_18
REMARK                            x       y       z     vdW  Elec       q    Type
REMARK                         _______ _______ _______ _____ _____    ______ ____
ROOT
ATOM      1  N   UNL     1       3.341   5.813  20.232  0.00  0.00    +0.000 N 
ATOM      2  C   UNL     1       2.506   6.750  19.568  0.00  0.00    +0.000 C 
ATOM      3  O   UNL     1       2.154   6.506  18.422  0.00  0.00    +0.000 OA
ATOM      4  N   UNL     1       2.170   7.829  20.344  0.00  0.00    +0.000 N 
ATOM      5  H   UNL     1       3.494   5.844  21.229  0.00  0.00    +0.000 HD
ATOM      6  H   UNL     1       2.705   8.011  21.185  0.00  0.00    +0.000 HD
ENDROOT
BRANCH   4   7
ATOM      7  C   UNL     1       1.299   8.860  19.889  0.00  0.00    +0.000 A 
ATOM      8  C   UNL     1       1.286   9.277  18.554  0.00  0.00    +0.000 A 
ATOM      9  C   UNL     1       0.526  10.373  18.143  0.00  0.00    +0.000 A 
ATOM     10  C   UNL     1      -0.264  11.057  19.061  0.00  0.00    +0.000 A 
ATOM     11 CL   UNL     1      -1.137  12.432  18.493  0.00  0.00    +0.000 Cl
ATOM     12  C   UNL     1      -0.310  10.616  20.388  0.00  0.00    +0.000 A 
ATOM     13 CL   UNL     1      -1.253  11.431  21.586  0.00  0.00    +0.000 Cl
ATOM     14  C   UNL     1       0.454   9.504  20.798  0.00  0.00    +0.000 A 
ENDBRANCH   4   7
BRANCH   1  18
ATOM     15  C   UNL     1       3.425   1.235  18.260  0.00  0.00    +0.000 C 
ATOM     16  C   UNL     1       3.738   2.639  18.625  0.00  0.00    +0.000 A 
ATOM     17  C   UNL     1       3.078   3.446  19.575  0.00  0.00    +0.000 A 
ATOM     18  C   UNL     1       3.732   4.659  19.541  0.00  0.00    +0.000 A 
ATOM     19  N   UNL     1       4.777   4.506  18.640  0.00  0.00    +0.000 N 
ATOM     20  N   UNL     1       4.724   3.306  18.008  0.00  0.00    +0.000 NA
BRANCH  19  21
ATOM     21  C   UNL     1       5.799   5.444  18.352  0.00  0.00    +0.000 A 
ATOM     22  C   UNL     1       6.993   5.457  19.087  0.00  0.00    +0.000 A 
ATOM     23  C   UNL     1       7.940   6.453  18.853  0.00  0.00    +0.000 A 
ATOM     24  C   UNL     1       7.697   7.434  17.894  0.00  0.00    +0.000 A 
ATOM     25  C   UNL     1       6.530   7.393  17.128  0.00  0.00    +0.000 A 
ATOM     26  C   UNL     1       5.591   6.383  17.335  0.00  0.00    +0.000 A 
ENDBRANCH  19  21
ENDBRANCH   1  18
TORSDOF 3
ENDMDL
MODEL 4
REMARK VINA RESULT:      -8.0      1.849      2.234
REMARK  Name = 
REMARK  4 active torsions:
REMARK  status: ('A' for Active; 'I' for Inactive)
REMARK    1  A    between atoms: C_1  and  C_2
REMARK    2  A    between atoms: C_4  and  N_5
REMARK    3  A    between atoms: N_8  and  C_9
REMARK    4  A    between atoms: N_17  and  C_18
REMARK                            x       y       z     vdW  Elec       q    Type
REMARK                         _______ _______ _______ _____ _____    ______ ____
ROOT
ATOM      1  N   UNL     1       2.436   6.437  18.206  0.00  0.00    +0.000 N 
ATOM      2  C   UNL     1       2.034   7.691  18.739  0.00  0.00    +0.000 C 
ATOM      3  O   UNL     1       1.942   7.805  19.954  0.00  0.00    +0.000 OA
ATOM      4  N   UNL     1       1.825   8.651  17.782  0.00  0.00    +0.000 N 
ATOM      5  H   UNL     1       2.731   6.334  17.247  0.00  0.00    +0.000 HD
ATOM      6  H   UNL     1       1.722   8.362  16.817  0.00  0.00    +0.000 HD
ENDROOT
BRANCH   4   7
ATOM      7  C   UNL     1       1.468   9.991  18.105  0.00  0.00    +0.000 A 
ATOM      8  C   UNL     1       2.395  11.035  18.040  0.00  0.00    +0.000 A 
ATOM      9  C   UNL     1       2.075  12.320  18.481  0.00  0.00    +0.000 A 
ATOM     10  C   UNL     1       0.801  12.591  18.969  0.00  0.00    +0.000 A 
ATOM     11 CL   UNL     1       0.491  14.189  19.544  0.00  0.00    +0.000 Cl
ATOM     12  C   UNL     1      -0.158  11.573  18.984  0.00  0.00    +0.000 A 
ATOM     13 CL   UNL     1      -1.754  11.833  19.597  0.00  0.00    +0.000 Cl
ATOM     14  C   UNL     1       0.168  10.278  18.531  0.00  0.00    +0.000 A 
ENDBRANCH   4   7
BRANCH   1  18
ATOM     15  C   UNL     1       1.946   2.917  21.701  0.00  0.00    +0.000 C 
ATOM     16  C   UNL     1       2.456   3.789  20.615  0.00  0.00    +0.000 A 
ATOM     17  C   UNL     1       1.840   4.940  20.078  0.00  0.00    +0.000 A 
ATOM     18  C   UNL     1       2.697   5.386  19.095  0.00  0.00    +0.000 A 
ATOM     19  N   UNL     1       3.796   4.540  19.130  0.00  0.00    +0.000 N 
ATOM     20  N   UNL     1       3.608   3.507  19.990  0.00  0.00    +0.000 NA
BRANCH  19  21
ATOM     21  C   UNL     1       4.993   4.666  18.382  0.00  0.00    +0.000 A 
ATOM     22  C   UNL     1       5.074   4.186  17.067  0.00  0.00    +0.000 A 
ATOM     23  C   UNL     1       6.292   4.229  16.388  0.00  0.00    +0.000 A 
ATOM     24  C   UNL     1       7.423   4.743  17.018  0.00  0.00    +0.000 A 
ATOM     25  C   UNL     1       7.331   5.266  18.309  0.00  0.00    +0.000 A 
ATOM     26  C   UNL     1       6.111   5.254  18.985  0.00  0.00    +0.000 A 
ENDBRANCH  19  21
ENDBRANCH   1  18
TORSDOF 3
ENDMDL
MODEL 5
REMARK VINA RESULT:      -7.9      2.030      2.595
REMARK  Name = 
REMARK  4 active torsions:
REMARK  status: ('A' for Active; 'I' for Inactive)
REMARK    1  A    between atoms: C_1  and  C_2
REMARK    2  A    between atoms: C_4  and  N_5
REMARK    3  A    between atoms: N_8  and  C_9
REMARK    4  A    between atoms: N_17  and  C_18
REMARK                            x       y       z     vdW  Elec       q    Type
REMARK                         _______ _______ _______ _____ _____    ______ ____
ROOT
ATOM      1  N   UNL     1       2.513   6.527  18.240  0.00  0.00    +0.000 N 
ATOM      2  C   UNL     1       2.038   7.745  18.794  0.00  0.00    +0.000 C 
ATOM      3  O   UNL     1       1.875   7.810  20.005  0.00  0.00    +0.000 OA
ATOM      4  N   UNL     1       1.847   8.732  17.861  0.00  0.00    +0.000 N 
ATOM      5  H   UNL     1       2.865   6.469  17.296  0.00  0.00    +0.000 HD
ATOM      6  H   UNL     1       1.808   8.477  16.882  0.00  0.00    +0.000 HD
ENDROOT
BRANCH   4   7
ATOM      7  C   UNL     1       1.425  10.046  18.210  0.00  0.00    +0.000 A 
ATOM      8  C   UNL     1       0.095  10.330  18.536  0.00  0.00    +0.000 A 
ATOM      9  C   UNL     1      -0.337  11.640  18.749  0.00  0.00    +0.000 A 
ATOM     10  C   UNL     1       0.567  12.694  18.670  0.00  0.00    +0.000 A 
ATOM     11 CL   UNL     1      -0.047  14.291  18.895  0.00  0.00    +0.000 Cl
ATOM     12  C   UNL     1       1.914  12.423  18.405  0.00  0.00    +0.000 A 
ATOM     13 CL   UNL     1       3.089  13.684  18.271  0.00  0.00    +0.000 Cl
ATOM     14  C   UNL     1       2.348  11.097  18.197  0.00  0.00    +0.000 A 
ENDBRANCH   4   7
BRANCH   1  18
ATOM     15  C   UNL     1       1.998   2.962  21.687  0.00  0.00    +0.000 C 
ATOM     16  C   UNL     1       2.509   3.838  20.603  0.00  0.00    +0.000 A 
ATOM     17  C   UNL     1       1.917   5.016  20.101  0.00  0.00    +0.000 A 
ATOM     18  C   UNL     1       2.763   5.453  19.104  0.00  0.00    +0.000 A 
ATOM     19  N   UNL     1       3.836   4.573  19.098  0.00  0.00    +0.000 N 
ATOM     20  N   UNL     1       3.636   3.530  19.945  0.00  0.00    +0.000 NA
BRANCH  19  21
ATOM     21  C   UNL     1       5.017   4.674  18.323  0.00  0.00    +0.000 A 
ATOM     22  C   UNL     1       5.047   4.230  16.993  0.00  0.00    +0.000 A 
ATOM     23  C   UNL     1       6.247   4.246  16.283  0.00  0.00    +0.000 A 
ATOM     24  C   UNL     1       7.413   4.698  16.898  0.00  0.00    +0.000 A 
ATOM     25  C   UNL     1       7.374   5.186  18.205  0.00  0.00    +0.000 A 
ATOM     26  C   UNL     1       6.172   5.202  18.912  0.00  0.00    +0.000 A 
ENDBRANCH  19  21
ENDBRANCH   1  18
TORSDOF 3
ENDMDL
MODEL 6
REMARK VINA RESULT:      -7.9      1.833      2.389
REMARK  Name = 
REMARK  4 active torsions:
REMARK  status: ('A' for Active; 'I' for Inactive)
REMARK    1  A    between atoms: C_1  and  C_2
REMARK    2  A    between atoms: C_4  and  N_5
REMARK    3  A    between atoms: N_8  and  C_9
REMARK    4  A    between atoms: N_17  and  C_18
REMARK                            x       y       z     vdW  Elec       q    Type
REMARK                         _______ _______ _______ _____ _____    ______ ____
ROOT
ATOM      1  N   UNL     1       2.482   6.383  18.173  0.00  0.00    +0.000 N 
ATOM      2  C   UNL     1       2.075   7.636  18.704  0.00  0.00    +0.000 C 
ATOM      3  O   UNL     1       1.971   7.747  19.918  0.00  0.00    +0.000 OA
ATOM      4  N   UNL     1       1.875   8.597  17.747  0.00  0.00    +0.000 N 
ATOM      5  H   UNL     1       2.787   6.281  17.217  0.00  0.00    +0.000 HD
ATOM      6  H   UNL     1       1.782   8.310  16.780  0.00  0.00    +0.000 HD
ENDROOT
BRANCH   4   7
ATOM      7  C   UNL     1       1.515   9.936  18.068  0.00  0.00    +0.000 A 
ATOM      8  C   UNL     1       2.438  10.985  17.994  0.00  0.00    +0.000 A 
ATOM      9  C   UNL     1       2.115  12.270  18.434  0.00  0.00    +0.000 A 
ATOM     10  C   UNL     1       0.844  12.537  18.931  0.00  0.00    +0.000 A 
ATOM     11 CL   UNL     1       0.531  14.134  19.503  0.00  0.00    +0.000 Cl
ATOM     12  C   UNL     1      -0.111  11.515  18.955  0.00  0.00    +0.000 A 
ATOM     13 CL   UNL     1      -1.704  11.770  19.579  0.00  0.00    +0.000 Cl
ATOM     14  C   UNL     1       0.217  10.220  18.504  0.00  0.00    +0.000 A 
ENDBRANCH   4   7
BRANCH   1  18
ATOM     15  C   UNL     1       1.984   2.914  21.718  0.00  0.00    +0.000 C 
ATOM     16  C   UNL     1       2.488   3.757  20.605  0.00  0.00    +0.000 A 
ATOM     17  C   UNL     1       1.898   4.925  20.080  0.00  0.00    +0.000 A 
ATOM     18  C   UNL     1       2.735   5.331  19.062  0.00  0.00    +0.000 A 
ATOM     19  N   UNL     1       3.802   4.444  19.067  0.00  0.00    +0.000 N 
ATOM     20  N   UNL     1       3.605   3.425  19.944  0.00  0.00    +0.000 NA
BRANCH  19  21
ATOM     21  C   UNL     1       4.976   4.517  18.277  0.00  0.00    +0.000 A 
ATOM     22  C   UNL     1       6.148   5.100  18.780  0.00  0.00    +0.000 A 
ATOM     23  C   UNL     1       7.258   5.253  17.950  0.00  0.00    +0.000 A 
ATOM     24  C   UNL     1       7.199   4.830  16.624  0.00  0.00    +0.000 A 
ATOM     25  C   UNL     1       6.049   4.205  16.137  0.00  0.00    +0.000 A 
ATOM     26  C   UNL     1       4.945   4.021  16.968  0.00  0.00    +0.000 A 
ENDBRANCH  19  21
ENDBRANCH   1  18
TORSDOF 3
ENDMDL
MODEL 7
REMARK VINA RESULT:      -7.9      1.182      1.856
REMARK  Name = 
REMARK  4 active torsions:
REMARK  status: ('A' for Active; 'I' for Inactive)
REMARK    1  A    between atoms: C_1  and  C_2
REMARK    2  A    between atoms: C_4  and  N_5
REMARK    3  A    between atoms: N_8  and  C_9
REMARK    4  A    between atoms: N_17  and  C_18
REMARK                            x       y       z     vdW  Elec       q    Type
REMARK                         _______ _______ _______ _____ _____    ______ ____
ROOT
ATOM      1  N   UNL     1       2.798   6.790  18.033  0.00  0.00    +0.000 N 
ATOM      2  C   UNL     1       2.096   7.297  19.158  0.00  0.00    +0.000 C 
ATOM      3  O   UNL     1       1.927   6.561  20.121  0.00  0.00    +0.000 OA
ATOM      4  N   UNL     1       1.713   8.607  19.019  0.00  0.00    +0.000 N 
ATOM      5  H   UNL     1       3.151   7.393  17.306  0.00  0.00    +0.000 HD
ATOM      6  H   UNL     1       1.722   9.022  18.095  0.00  0.00    +0.000 HD
ENDROOT
BRANCH   4   7
ATOM      7  C   UNL     1       1.044   9.325  20.051  0.00  0.00    +0.000 A 
ATOM      8  C   UNL     1       1.102   8.919  21.387  0.00  0.00    +0.000 A 
ATOM      9  C   UNL     1       0.340   9.548  22.373  0.00  0.00    +0.000 A 
ATOM     10  C   UNL     1      -0.477  10.624  22.040  0.00  0.00    +0.000 A 
ATOM     11 CL   UNL     1      -1.428  11.322  23.298  0.00  0.00    +0.000 Cl
ATOM     12  C   UNL     1      -0.500  11.083  20.718  0.00  0.00    +0.000 A 
ATOM     13 CL   UNL     1      -1.508  12.400  20.229  0.00  0.00    +0.000 Cl
ATOM     14  C   UNL     1       0.276  10.448  19.727  0.00  0.00    +0.000 A 
ENDBRANCH   4   7
BRANCH   1  18
ATOM     15  C   UNL     1       3.002   1.811  17.896  0.00  0.00    +0.000 C 
ATOM     16  C   UNL     1       3.345   3.253  17.959  0.00  0.00    +0.000 A 
ATOM     17  C   UNL     1       2.455   4.344  18.053  0.00  0.00    +0.000 A 
ATOM     18  C   UNL     1       3.255   5.466  18.073  0.00  0.00    +0.000 A 
ATOM     19  N   UNL     1       4.564   5.005  18.058  0.00  0.00    +0.000 N 
ATOM     20  N   UNL     1       4.621   3.659  17.890  0.00  0.00    +0.000 NA
BRANCH  19  21
ATOM     21  C   UNL     1       5.743   5.781  18.182  0.00  0.00    +0.000 A 
ATOM     22  C   UNL     1       6.006   6.839  17.299  0.00  0.00    +0.000 A 
ATOM     23  C   UNL     1       7.219   7.522  17.378  0.00  0.00    +0.000 A 
ATOM     24  C   UNL     1       8.167   7.150  18.328  0.00  0.00    +0.000 A 
ATOM     25  C   UNL     1       7.886   6.130  19.239  0.00  0.00    +0.000 A 
ATOM     26  C   UNL     1       6.663   5.462  19.187  0.00  0.00    +0.000 A 
ENDBRANCH  19  21
ENDBRANCH   1  18
TORSDOF 3
ENDMDL
MODEL 8
REMARK VINA RESULT:      -7.9      2.027      2.756
REMARK  Name = 
REMARK  4 active torsions:
REMARK  status: ('A' for Active; 'I' for Inactive)
REMARK    1  A    between atoms: C_1  and  C_2
REMARK    2  A    between atoms: C_4  and  N_5
REMARK    3  A    between atoms: N_8  and  C_9
REMARK    4  A    between atoms: N_17  and  C_18
REMARK                            x       y       z     vdW  Elec       q    Type
REMARK                         _______ _______ _______ _____ _____    ______ ____
ROOT
ATOM      1  N   UNL     1       2.564   6.412  18.169  0.00  0.00    +0.000 N 
ATOM      2  C   UNL     1       2.089   7.620  18.743  0.00  0.00    +0.000 C 
ATOM      3  O   UNL     1       1.950   7.673  19.957  0.00  0.00    +0.000 OA
ATOM      4  N   UNL     1       1.871   8.614  17.823  0.00  0.00    +0.000 N 
ATOM      5  H   UNL     1       2.898   6.366  17.218  0.00  0.00    +0.000 HD
ATOM      6  H   UNL     1       1.815   8.367  16.842  0.00  0.00    +0.000 HD
ENDROOT
BRANCH   4   7
ATOM      7  C   UNL     1       1.445   9.921  18.192  0.00  0.00    +0.000 A 
ATOM      8  C   UNL     1       0.119  10.190  18.547  0.00  0.00    +0.000 A 
ATOM      9  C   UNL     1      -0.321  11.494  18.781  0.00  0.00    +0.000 A 
ATOM     10  C   UNL     1       0.572  12.557  18.693  0.00  0.00    +0.000 A 
ATOM     11 CL   UNL     1      -0.052  14.146  18.945  0.00  0.00    +0.000 Cl
ATOM     12  C   UNL     1       1.916  12.300  18.400  0.00  0.00    +0.000 A 
ATOM     13 CL   UNL     1       3.076  13.573  18.254  0.00  0.00    +0.000 Cl
ATOM     14  C   UNL     1       2.358  10.980  18.171  0.00  0.00    +0.000 A 
ENDBRANCH   4   7
BRANCH   1  18
ATOM     15  C   UNL     1       2.208   2.913  21.702  0.00  0.00    +0.000 C 
ATOM     16  C   UNL     1       2.652   3.747  20.558  0.00  0.00    +0.000 A 
ATOM     17  C   UNL     1       2.079   4.954  20.103  0.00  0.00    +0.000 A 
ATOM     18  C   UNL     1       2.840   5.332  19.018  0.00  0.00    +0.000 A 
ATOM     19  N   UNL     1       3.854   4.391  18.913  0.00  0.00    +0.000 N 
ATOM     20  N   UNL     1       3.684   3.369  19.791  0.00  0.00    +0.000 NA
BRANCH  19  21
ATOM     21  C   UNL     1       4.953   4.416  18.019  0.00  0.00    +0.000 A 
ATOM     22  C   UNL     1       6.213   4.867  18.438  0.00  0.00    +0.000 A 
ATOM     23  C   UNL     1       7.252   4.979  17.514  0.00  0.00    +0.000 A 
ATOM     24  C   UNL     1       7.034   4.647  16.178  0.00  0.00    +0.000 A 
ATOM     25  C   UNL     1       5.794   4.151  15.771  0.00  0.00    +0.000 A 
ATOM     26  C   UNL     1       4.759   4.007  16.694  0.00  0.00    +0.000 A 
ENDBRANCH  19  21
ENDBRANCH   1  18
TORSDOF 3
ENDMDL
MODEL 9
REMARK VINA RESULT:      -7.9      1.116      2.066
REMARK  Name = 
REMARK  4 active torsions:
REMARK  status: ('A' for Active; 'I' for Inactive)
REMARK    1  A    between atoms: C_1  and  C_2
REMARK    2  A    between atoms: C_4  and  N_5
REMARK    3  A    between atoms: N_8  and  C_9
REMARK    4  A    between atoms: N_17  and  C_18
REMARK                            x       y       z     vdW  Elec       q    Type
REMARK                         _______ _______ _______ _____ _____    ______ ____
ROOT
ATOM      1  N   UNL     1       2.918   6.681  18.228  0.00  0.00    +0.000 N 
ATOM      2  C   UNL     1       2.153   7.186  19.312  0.00  0.00    +0.000 C 
ATOM      3  O   UNL     1       1.914   6.441  20.253  0.00  0.00    +0.000 OA
ATOM      4  N   UNL     1       1.797   8.502  19.165  0.00  0.00    +0.000 N 
ATOM      5  H   UNL     1       3.325   7.288  17.532  0.00  0.00    +0.000 HD
ATOM      6  H   UNL     1       1.869   8.927  18.248  0.00  0.00    +0.000 HD
ENDROOT
BRANCH   4   7
ATOM      7  C   UNL     1       1.073   9.217  20.160  0.00  0.00    +0.000 A 
ATOM      8  C   UNL     1       1.160   8.885  21.516  0.00  0.00    +0.000 A 
ATOM      9  C   UNL     1       0.350   9.503  22.470  0.00  0.00    +0.000 A 
ATOM     10  C   UNL     1      -0.546  10.495  22.085  0.00  0.00    +0.000 A 
ATOM     11 CL   UNL     1      -1.551  11.180  23.309  0.00  0.00    +0.000 Cl
ATOM     12  C   UNL     1      -0.603  10.884  20.742  0.00  0.00    +0.000 A 
ATOM     13 CL   UNL     1      -1.708  12.094  20.190  0.00  0.00    +0.000 Cl
ATOM     14  C   UNL     1       0.222  10.261  19.783  0.00  0.00    +0.000 A 
ENDBRANCH   4   7
BRANCH   1  18
ATOM     15  C   UNL     1       3.027   1.697  18.256  0.00  0.00    +0.000 C 
ATOM     16  C   UNL     1       3.398   3.134  18.241  0.00  0.00    +0.000 A 
ATOM     17  C   UNL     1       2.537   4.244  18.362  0.00  0.00    +0.000 A 
ATOM     18  C   UNL     1       3.354   5.351  18.280  0.00  0.00    +0.000 A 
ATOM     19  N   UNL     1       4.650   4.865  18.183  0.00  0.00    +0.000 N 
ATOM     20  N   UNL     1       4.672   3.513  18.060  0.00  0.00    +0.000 NA
BRANCH  19  21
ATOM     21  C   UNL     1       5.848   5.621  18.189  0.00  0.00    +0.000 A 
ATOM     22  C   UNL     1       6.854   5.370  19.134  0.00  0.00    +0.000 A 
ATOM     23  C   UNL     1       7.978   6.194  19.185  0.00  0.00    +0.000 A 
ATOM     24  C   UNL     1       8.097   7.265  18.302  0.00  0.00    +0.000 A 
ATOM     25  C   UNL     1       7.120   7.484  17.329  0.00  0.00    +0.000 A 
ATOM     26  C   UNL     1       6.007   6.648  17.251  0.00  0.00    +0.000 A 
ENDBRANCH  19  21
ENDBRANCH   1  18
TORSDOF 3
ENDMDL
