MODEL 1
REMARK VINA RESULT:      -6.0      0.000      0.000
REMARK  Name = 
REMARK  6 active torsions:
REMARK  status: ('A' for Active; 'I' for Inactive)
REMARK    1  A    between atoms: C_1  and  C_2
REMARK    2  A    between atoms: C_2  and  O_4
REMARK    3  A    between atoms: O_4  and  C_5
REMARK    4  A    between atoms: C_5  and  O_6
REMARK    5  A    between atoms: O_6  and  C_7
REMARK    6  A    between atoms: C_7  and  C_9
REMARK                            x       y       z     vdW  Elec       q    Type
REMARK                         _______ _______ _______ _____ _____    ______ ____
ROOT
ATOM      1  C   UNL     1       4.353   3.464  18.402  0.00  0.00    +0.000 C 
ATOM      2  O   UNL     1       4.563   3.391  17.199  0.00  0.00    +0.000 OA
ENDROOT
BRANCH   1   3
ATOM      3  C   UNL     1       3.019   3.271  19.019  0.00  0.00    +0.000 C 
ATOM      4  C   UNL     1       2.968   2.969  20.330  0.00  0.00    +0.000 C 
ATOM      5  C   UNL     1       1.691   2.713  21.066  0.00  0.00    +0.000 C 
ATOM      6  N   UNL     1       0.484   3.058  20.312  0.00  0.00    +0.000 NA
ATOM      7  C   UNL     1       0.599   2.646  18.910  0.00  0.00    +0.000 C 
ATOM      8  C   UNL     1       1.763   3.352  18.199  0.00  0.00    +0.000 C 
ATOM      9  H   UNL     1       0.355   4.069  20.353  0.00  0.00    +0.000 HD
ENDBRANCH   1   3
BRANCH   1  10
ATOM     10  O   UNL     1       5.278   3.729  19.351  0.00  0.00    +0.000 OA
BRANCH  10  11
ATOM     11  C   UNL     1       5.752   5.076  19.337  0.00  0.00    +0.000 C 
BRANCH  11  12
ATOM     12  O   UNL     1       7.166   5.146  19.143  0.00  0.00    +0.000 OA
BRANCH  12  14
ATOM     13  C   UNL     1       7.356   6.660  17.368  0.00  0.00    +0.000 C 
ATOM     14  C   UNL     1       7.548   5.254  17.847  0.00  0.00    +0.000 C 
ATOM     15  O   UNL     1       7.990   4.350  17.154  0.00  0.00    +0.000 OA
ENDBRANCH  12  14
ENDBRANCH  11  12
ENDBRANCH  10  11
ENDBRANCH   1  10
TORSDOF 5
ENDMDL
MODEL 2
REMARK VINA RESULT:      -5.8      3.123      5.528
REMARK  Name = 
REMARK  6 active torsions:
REMARK  status: ('A' for Active; 'I' for Inactive)
REMARK    1  A    between atoms: C_1  and  C_2
REMARK    2  A    between atoms: C_2  and  O_4
REMARK    3  A    between atoms: O_4  and  C_5
REMARK    4  A    between atoms: C_5  and  O_6
REMARK    5  A    between atoms: O_6  and  C_7
REMARK    6  A    between atoms: C_7  and  C_9
REMARK                            x       y       z     vdW  Elec       q    Type
REMARK                         _______ _______ _______ _____ _____    ______ ____
ROOT
ATOM      1  C   UNL     1       3.538   4.423  17.566  0.00  0.00    +0.000 C 
ATOM      2  O   UNL     1       2.912   5.437  17.842  0.00  0.00    +0.000 OA
ENDROOT
BRANCH   1   3
ATOM      3  C   UNL     1       4.990   4.408  17.267  0.00  0.00    +0.000 C 
ATOM      4  C   UNL     1       5.838   4.792  18.239  0.00  0.00    +0.000 C 
ATOM      5  C   UNL     1       7.322   4.859  18.059  0.00  0.00    +0.000 C 
ATOM      6  N   UNL     1       7.804   4.238  16.823  0.00  0.00    +0.000 NA
ATOM      7  C   UNL     1       6.927   4.558  15.692  0.00  0.00    +0.000 C 
ATOM      8  C   UNL     1       5.501   4.032  15.906  0.00  0.00    +0.000 C 
ATOM      9  H   UNL     1       7.822   3.227  16.955  0.00  0.00    +0.000 HD
ENDBRANCH   1   3
BRANCH   1  10
ATOM     10  O   UNL     1       3.026   3.175  17.484  0.00  0.00    +0.000 OA
BRANCH  10  11
ATOM     11  C   UNL     1       2.134   2.844  18.549  0.00  0.00    +0.000 C 
BRANCH  11  12
ATOM     12  O   UNL     1       2.830   2.394  19.713  0.00  0.00    +0.000 OA
BRANCH  12  14
ATOM     13  C   UNL     1       1.191   3.801  20.615  0.00  0.00    +0.000 C 
ATOM     14  C   UNL     1       2.323   2.857  20.881  0.00  0.00    +0.000 C 
ATOM     15  O   UNL     1       2.716   2.559  22.000  0.00  0.00    +0.000 OA
ENDBRANCH  12  14
ENDBRANCH  11  12
ENDBRANCH  10  11
ENDBRANCH   1  10
TORSDOF 5
ENDMDL
MODEL 3
REMARK VINA RESULT:      -5.8      1.922      1.999
REMARK  Name = 
REMARK  6 active torsions:
REMARK  status: ('A' for Active; 'I' for Inactive)
REMARK    1  A    between atoms: C_1  and  C_2
REMARK    2  A    between atoms: C_2  and  O_4
REMARK    3  A    between atoms: O_4  and  C_5
REMARK    4  A    between atoms: C_5  and  O_6
REMARK    5  A    between atoms: O_6  and  C_7
REMARK    6  A    between atoms: C_7  and  C_9
REMARK                            x       y       z     vdW  Elec       q    Type
REMARK                         _______ _______ _______ _____ _____    ______ ____
ROOT
ATOM      1  C   UNL     1       3.057   6.211  18.380  0.00  0.00    +0.000 C 
ATOM      2  O   UNL     1       2.771   7.388  18.550  0.00  0.00    +0.000 OA
ENDROOT
BRANCH   1   3
ATOM      3  C   UNL     1       2.216   5.083  18.846  0.00  0.00    +0.000 C 
ATOM      4  C   UNL     1       2.043   4.932  20.171  0.00  0.00    +0.000 C 
ATOM      5  C   UNL     1       1.250   3.815  20.776  0.00  0.00    +0.000 C 
ATOM      6  N   UNL     1       0.470   3.041  19.808  0.00  0.00    +0.000 NA
ATOM      7  C   UNL     1       1.239   2.795  18.584  0.00  0.00    +0.000 C 
ATOM      8  C   UNL     1       1.622   4.102  17.876  0.00  0.00    +0.000 C 
ATOM      9  H   UNL     1      -0.370   3.568  19.574  0.00  0.00    +0.000 HD
ENDBRANCH   1   3
BRANCH   1  10
ATOM     10  O   UNL     1       4.164   5.749  17.758  0.00  0.00    +0.000 OA
BRANCH  10  11
ATOM     11  C   UNL     1       5.239   5.435  18.645  0.00  0.00    +0.000 C 
BRANCH  11  12
ATOM     12  O   UNL     1       6.073   4.395  18.131  0.00  0.00    +0.000 OA
BRANCH  12  14
ATOM     13  C   UNL     1       7.698   5.993  18.661  0.00  0.00    +0.000 C 
ATOM     14  C   UNL     1       7.343   4.781  17.858  0.00  0.00    +0.000 C 
ATOM     15  O   UNL     1       8.105   4.231  17.077  0.00  0.00    +0.000 OA
ENDBRANCH  12  14
ENDBRANCH  11  12
ENDBRANCH  10  11
ENDBRANCH   1  10
TORSDOF 5
ENDMDL
MODEL 4
REMARK VINA RESULT:      -5.8      2.013      2.931
REMARK  Name = 
REMARK  6 active torsions:
REMARK  status: ('A' for Active; 'I' for Inactive)
REMARK    1  A    between atoms: C_1  and  C_2
REMARK    2  A    between atoms: C_2  and  O_4
REMARK    3  A    between atoms: O_4  and  C_5
REMARK    4  A    between atoms: C_5  and  O_6
REMARK    5  A    between atoms: O_6  and  C_7
REMARK    6  A    between atoms: C_7  and  C_9
REMARK                            x       y       z     vdW  Elec       q    Type
REMARK                         _______ _______ _______ _____ _____    ______ ____
ROOT
ATOM      1  C   UNL     1       5.540   5.082  18.670  0.00  0.00    +0.000 C 
ATOM      2  O   UNL     1       6.141   4.969  19.729  0.00  0.00    +0.000 OA
ENDROOT
BRANCH   1   3
ATOM      3  C   UNL     1       4.281   4.364  18.357  0.00  0.00    +0.000 C 
ATOM      4  C   UNL     1       3.210   5.095  17.998  0.00  0.00    +0.000 C 
ATOM      5  C   UNL     1       1.871   4.500  17.693  0.00  0.00    +0.000 C 
ATOM      6  N   UNL     1       1.877   3.041  17.573  0.00  0.00    +0.000 NA
ATOM      7  C   UNL     1       2.717   2.428  18.606  0.00  0.00    +0.000 C 
ATOM      8  C   UNL     1       4.182   2.871  18.492  0.00  0.00    +0.000 C 
ATOM      9  H   UNL     1       2.244   2.793  16.655  0.00  0.00    +0.000 HD
ENDBRANCH   1   3
BRANCH   1  10
ATOM     10  O   UNL     1       5.912   5.857  17.629  0.00  0.00    +0.000 OA
BRANCH  10  11
ATOM     11  C   UNL     1       7.273   5.680  17.232  0.00  0.00    +0.000 C 
BRANCH  11  12
ATOM     12  O   UNL     1       7.442   4.546  16.381  0.00  0.00    +0.000 OA
BRANCH  12  14
ATOM     13  C   UNL     1       5.823   4.018  14.774  0.00  0.00    +0.000 C 
ATOM     14  C   UNL     1       7.087   4.758  15.090  0.00  0.00    +0.000 C 
ATOM     15  O   UNL     1       7.693   5.450  14.286  0.00  0.00    +0.000 OA
ENDBRANCH  12  14
ENDBRANCH  11  12
ENDBRANCH  10  11
ENDBRANCH   1  10
TORSDOF 5
ENDMDL
MODEL 5
REMARK VINA RESULT:      -5.7      2.536      3.055
REMARK  Name = 
REMARK  6 active torsions:
REMARK  status: ('A' for Active; 'I' for Inactive)
REMARK    1  A    between atoms: C_1  and  C_2
REMARK    2  A    between atoms: C_2  and  O_4
REMARK    3  A    between atoms: O_4  and  C_5
REMARK    4  A    between atoms: C_5  and  O_6
REMARK    5  A    between atoms: O_6  and  C_7
REMARK    6  A    between atoms: C_7  and  C_9
REMARK                            x       y       z     vdW  Elec       q    Type
REMARK                         _______ _______ _______ _____ _____    ______ ____
ROOT
ATOM      1  C   UNL     1       3.683   5.734  17.811  0.00  0.00    +0.000 C 
ATOM      2  O   UNL     1       3.086   6.756  18.120  0.00  0.00    +0.000 OA
ENDROOT
BRANCH   1   3
ATOM      3  C   UNL     1       3.091   4.377  17.889  0.00  0.00    +0.000 C 
ATOM      4  C   UNL     1       1.843   4.262  18.380  0.00  0.00    +0.000 C 
ATOM      5  C   UNL     1       1.143   2.950  18.548  0.00  0.00    +0.000 C 
ATOM      6  N   UNL     1       1.823   1.821  17.908  0.00  0.00    +0.000 NA
ATOM      7  C   UNL     1       3.273   1.893  18.110  0.00  0.00    +0.000 C 
ATOM      8  C   UNL     1       3.876   3.161  17.490  0.00  0.00    +0.000 C 
ATOM      9  H   UNL     1       1.623   1.848  16.909  0.00  0.00    +0.000 HD
ENDBRANCH   1   3
BRANCH   1  10
ATOM     10  O   UNL     1       4.955   5.669  17.359  0.00  0.00    +0.000 OA
BRANCH  10  11
ATOM     11  C   UNL     1       5.281   6.674  16.398  0.00  0.00    +0.000 C 
BRANCH  11  12
ATOM     12  O   UNL     1       5.445   6.130  15.087  0.00  0.00    +0.000 OA
BRANCH  12  14
ATOM     13  C   UNL     1       5.932   3.942  14.413  0.00  0.00    +0.000 C 
ATOM     14  C   UNL     1       6.451   5.228  14.978  0.00  0.00    +0.000 C 
ATOM     15  O   UNL     1       7.619   5.418  15.285  0.00  0.00    +0.000 OA
ENDBRANCH  12  14
ENDBRANCH  11  12
ENDBRANCH  10  11
ENDBRANCH   1  10
TORSDOF 5
ENDMDL
MODEL 6
REMARK VINA RESULT:      -5.7      1.245      1.956
REMARK  Name = 
REMARK  6 active torsions:
REMARK  status: ('A' for Active; 'I' for Inactive)
REMARK    1  A    between atoms: C_1  and  C_2
REMARK    2  A    between atoms: C_2  and  O_4
REMARK    3  A    between atoms: O_4  and  C_5
REMARK    4  A    between atoms: C_5  and  O_6
REMARK    5  A    between atoms: O_6  and  C_7
REMARK    6  A    between atoms: C_7  and  C_9
REMARK                            x       y       z     vdW  Elec       q    Type
REMARK                         _______ _______ _______ _____ _____    ______ ____
ROOT
ATOM      1  C   UNL     1       4.544   3.774  18.669  0.00  0.00    +0.000 C 
ATOM      2  O   UNL     1       5.536   3.789  19.384  0.00  0.00    +0.000 OA
ENDROOT
BRANCH   1   3
ATOM      3  C   UNL     1       3.163   3.600  19.180  0.00  0.00    +0.000 C 
ATOM      4  C   UNL     1       2.330   2.804  18.485  0.00  0.00    +0.000 C 
ATOM      5  C   UNL     1       0.902   2.572  18.868  0.00  0.00    +0.000 C 
ATOM      6  N   UNL     1       0.547   3.079  20.195  0.00  0.00    +0.000 NA
ATOM      7  C   UNL     1       1.152   4.392  20.439  0.00  0.00    +0.000 C 
ATOM      8  C   UNL     1       2.685   4.332  20.401  0.00  0.00    +0.000 C 
ATOM      9  H   UNL     1       0.887   2.420  20.895  0.00  0.00    +0.000 HD
ENDBRANCH   1   3
BRANCH   1  10
ATOM     10  O   UNL     1       4.537   3.907  17.325  0.00  0.00    +0.000 OA
BRANCH  10  11
ATOM     11  C   UNL     1       4.736   5.247  16.873  0.00  0.00    +0.000 C 
BRANCH  11  12
ATOM     12  O   UNL     1       5.857   5.356  15.994  0.00  0.00    +0.000 OA
BRANCH  12  14
ATOM     13  C   UNL     1       7.233   6.630  17.393  0.00  0.00    +0.000 C 
ATOM     14  C   UNL     1       7.060   5.361  16.619  0.00  0.00    +0.000 C 
ATOM     15  O   UNL     1       7.893   4.469  16.573  0.00  0.00    +0.000 OA
ENDBRANCH  12  14
ENDBRANCH  11  12
ENDBRANCH  10  11
ENDBRANCH   1  10
TORSDOF 5
ENDMDL
MODEL 7
REMARK VINA RESULT:      -5.7      3.083      5.629
REMARK  Name = 
REMARK  6 active torsions:
REMARK  status: ('A' for Active; 'I' for Inactive)
REMARK    1  A    between atoms: C_1  and  C_2
REMARK    2  A    between atoms: C_2  and  O_4
REMARK    3  A    between atoms: O_4  and  C_5
REMARK    4  A    between atoms: C_5  and  O_6
REMARK    5  A    between atoms: O_6  and  C_7
REMARK    6  A    between atoms: C_7  and  C_9
REMARK                            x       y       z     vdW  Elec       q    Type
REMARK                         _______ _______ _______ _____ _____    ______ ____
ROOT
ATOM      1  C   UNL     1       3.698   4.436  18.134  0.00  0.00    +0.000 C 
ATOM      2  O   UNL     1       2.667   4.287  17.493  0.00  0.00    +0.000 OA
ENDROOT
BRANCH   1   3
ATOM      3  C   UNL     1       5.043   4.534  17.518  0.00  0.00    +0.000 C 
ATOM      4  C   UNL     1       5.187   4.112  16.248  0.00  0.00    +0.000 C 
ATOM      5  C   UNL     1       6.495   4.121  15.521  0.00  0.00    +0.000 C 
ATOM      6  N   UNL     1       7.560   4.854  16.211  0.00  0.00    +0.000 NA
ATOM      7  C   UNL     1       7.540   4.584  17.652  0.00  0.00    +0.000 C 
ATOM      8  C   UNL     1       6.224   5.033  18.301  0.00  0.00    +0.000 C 
ATOM      9  H   UNL     1       7.418   5.851  16.056  0.00  0.00    +0.000 HD
ENDBRANCH   1   3
BRANCH   1  10
ATOM     10  O   UNL     1       3.787   4.528  19.479  0.00  0.00    +0.000 OA
BRANCH  10  11
ATOM     11  C   UNL     1       2.689   5.212  20.086  0.00  0.00    +0.000 C 
BRANCH  11  12
ATOM     12  O   UNL     1       2.373   4.681  21.374  0.00  0.00    +0.000 OA
BRANCH  12  14
ATOM     13  C   UNL     1       0.986   3.024  20.475  0.00  0.00    +0.000 C 
ATOM     14  C   UNL     1       2.130   3.347  21.385  0.00  0.00    +0.000 C 
ATOM     15  O   UNL     1       2.745   2.514  22.033  0.00  0.00    +0.000 OA
ENDBRANCH  12  14
ENDBRANCH  11  12
ENDBRANCH  10  11
ENDBRANCH   1  10
TORSDOF 5
ENDMDL
MODEL 8
REMARK VINA RESULT:      -5.6      3.161      5.609
REMARK  Name = 
REMARK  6 active torsions:
REMARK  status: ('A' for Active; 'I' for Inactive)
REMARK    1  A    between atoms: C_1  and  C_2
REMARK    2  A    between atoms: C_2  and  O_4
REMARK    3  A    between atoms: O_4  and  C_5
REMARK    4  A    between atoms: C_5  and  O_6
REMARK    5  A    between atoms: O_6  and  C_7
REMARK    6  A    between atoms: C_7  and  C_9
REMARK                            x       y       z     vdW  Elec       q    Type
REMARK                         _______ _______ _______ _____ _____    ______ ____
ROOT
ATOM      1  C   UNL     1       3.577   4.329  17.625  0.00  0.00    +0.000 C 
ATOM      2  O   UNL     1       2.820   5.263  17.852  0.00  0.00    +0.000 OA
ENDROOT
BRANCH   1   3
ATOM      3  C   UNL     1       4.964   4.495  17.128  0.00  0.00    +0.000 C 
ATOM      4  C   UNL     1       5.222   4.151  15.853  0.00  0.00    +0.000 C 
ATOM      5  C   UNL     1       6.585   4.232  15.238  0.00  0.00    +0.000 C 
ATOM      6  N   UNL     1       7.568   4.949  16.053  0.00  0.00    +0.000 NA
ATOM      7  C   UNL     1       7.440   4.596  17.470  0.00  0.00    +0.000 C 
ATOM      8  C   UNL     1       6.063   4.975  18.033  0.00  0.00    +0.000 C 
ATOM      9  H   UNL     1       7.412   5.950  15.943  0.00  0.00    +0.000 HD
ENDBRANCH   1   3
BRANCH   1  10
ATOM     10  O   UNL     1       3.284   3.019  17.780  0.00  0.00    +0.000 OA
BRANCH  10  11
ATOM     11  C   UNL     1       3.615   2.500  19.068  0.00  0.00    +0.000 C 
BRANCH  11  12
ATOM     12  O   UNL     1       3.420   3.465  20.103  0.00  0.00    +0.000 OA
BRANCH  12  14
ATOM     13  C   UNL     1       1.137   3.589  20.605  0.00  0.00    +0.000 C 
ATOM     14  C   UNL     1       2.493   3.114  21.028  0.00  0.00    +0.000 C 
ATOM     15  O   UNL     1       2.710   2.498  22.060  0.00  0.00    +0.000 OA
ENDBRANCH  12  14
ENDBRANCH  11  12
ENDBRANCH  10  11
ENDBRANCH   1  10
TORSDOF 5
ENDMDL
MODEL 9
REMARK VINA RESULT:      -5.6      1.843      2.205
REMARK  Name = 
REMARK  6 active torsions:
REMARK  status: ('A' for Active; 'I' for Inactive)
REMARK    1  A    between atoms: C_1  and  C_2
REMARK    2  A    between atoms: C_2  and  O_4
REMARK    3  A    between atoms: O_4  and  C_5
REMARK    4  A    between atoms: C_5  and  O_6
REMARK    5  A    between atoms: O_6  and  C_7
REMARK    6  A    between atoms: C_7  and  C_9
REMARK                            x       y       z     vdW  Elec       q    Type
REMARK                         _______ _______ _______ _____ _____    ______ ____
ROOT
ATOM      1  C   UNL     1       3.838   5.214  18.730  0.00  0.00    +0.000 C 
ATOM      2  O   UNL     1       4.770   5.538  19.453  0.00  0.00    +0.000 OA
ENDROOT
BRANCH   1   3
ATOM      3  C   UNL     1       2.681   4.409  19.189  0.00  0.00    +0.000 C 
ATOM      4  C   UNL     1       2.564   4.168  20.508  0.00  0.00    +0.000 C 
ATOM      5  C   UNL     1       1.466   3.339  21.099  0.00  0.00    +0.000 C 
ATOM      6  N   UNL     1       0.388   3.016  20.162  0.00  0.00    +0.000 NA
ATOM      7  C   UNL     1       0.921   2.666  18.842  0.00  0.00    +0.000 C 
ATOM      8  C   UNL     1       1.699   3.829  18.212  0.00  0.00    +0.000 C 
ATOM      9  H   UNL     1      -0.218   3.831  20.072  0.00  0.00    +0.000 HD
ENDBRANCH   1   3
BRANCH   1  10
ATOM     10  O   UNL     1       3.709   5.523  17.422  0.00  0.00    +0.000 OA
BRANCH  10  11
ATOM     11  C   UNL     1       4.951   5.600  16.719  0.00  0.00    +0.000 C 
BRANCH  11  12
ATOM     12  O   UNL     1       5.515   4.310  16.480  0.00  0.00    +0.000 OA
BRANCH  12  14
ATOM     13  C   UNL     1       6.399   4.133  14.321  0.00  0.00    +0.000 C 
ATOM     14  C   UNL     1       6.675   4.328  15.780  0.00  0.00    +0.000 C 
ATOM     15  O   UNL     1       7.792   4.484  16.249  0.00  0.00    +0.000 OA
ENDBRANCH  12  14
ENDBRANCH  11  12
ENDBRANCH  10  11
ENDBRANCH   1  10
TORSDOF 5
ENDMDL
