MODEL 1
REMARK VINA RESULT:      -8.0      0.000      0.000
REMARK  Name = 
REMARK  8 active torsions:
REMARK  status: ('A' for Active; 'I' for Inactive)
REMARK    1  A    between atoms: N_5  and  C_6
REMARK    2  A    between atoms: C_6  and  C_7
REMARK    3  A    between atoms: C_7  and  C_8
REMARK    4  A    between atoms: C_8  and  C_9
REMARK    5  A    between atoms: C_9  and  O_10
REMARK    6  A    between atoms: O_10  and  C_11
REMARK    7  A    between atoms: C_11  and  C_12
REMARK    8  A    between atoms: C_11  and  C_18
REMARK                            x       y       z     vdW  Elec       q    Type
REMARK                         _______ _______ _______ _____ _____    ______ ____
ROOT
ATOM      1  O   UNL     1       2.901   7.249  18.603  0.00  0.00    +0.000 OA
ENDROOT
BRANCH   1   2
ATOM      2  C   UNL     1       2.933   8.382  17.737  0.00  0.00    +0.000 C 
BRANCH   2   3
ATOM      3  C   UNL     1       1.622   9.150  17.862  0.00  0.00    +0.000 C 
BRANCH   3   4
ATOM      4  C   UNL     1       1.171   9.284  19.318  0.00  0.00    +0.000 C 
BRANCH   4   5
ATOM      5  C   UNL     1       0.461  10.611  19.600  0.00  0.00    +0.000 C 
BRANCH   5  10
ATOM      6  O   UNL     1      -3.883  11.483  16.418  0.00  0.00    +0.000 OA
ATOM      7  C   UNL     1      -2.880  11.272  17.087  0.00  0.00    +0.000 A 
ATOM      8  C   UNL     1      -2.659   9.970  17.736  0.00  0.00    +0.000 A 
ATOM      9  C   UNL     1      -1.584   9.810  18.510  0.00  0.00    +0.000 A 
ATOM     10  N   UNL     1      -0.675  10.824  18.707  0.00  0.00    +0.000 N 
ATOM     11  C   UNL     1      -0.816  12.074  18.105  0.00  0.00    +0.000 A 
ATOM     12  O   UNL     1      -0.044  13.014  18.270  0.00  0.00    +0.000 OA
ATOM     13  N   UNL     1      -1.910  12.211  17.288  0.00  0.00    +0.000 N 
ATOM     14  H   UNL     1      -2.042  13.113  16.861  0.00  0.00    +0.000 HD
ENDBRANCH   5  10
ENDBRANCH   4   5
ENDBRANCH   3   4
ENDBRANCH   2   3
ENDBRANCH   1   2
BRANCH   1  15
ATOM     15  C   UNL     1       3.006   6.005  17.876  0.00  0.00    +0.000 C 
BRANCH  15  16
ATOM     16  C   UNL     1       4.469   5.650  17.647  0.00  0.00    +0.000 A 
ATOM     17  C   UNL     1       4.949   5.360  16.360  0.00  0.00    +0.000 A 
ATOM     18  C   UNL     1       6.259   4.915  16.173  0.00  0.00    +0.000 A 
ATOM     19  C   UNL     1       7.107   4.762  17.268  0.00  0.00    +0.000 A 
ATOM     20  C   UNL     1       6.650   5.058  18.549  0.00  0.00    +0.000 A 
ATOM     21  C   UNL     1       5.338   5.499  18.740  0.00  0.00    +0.000 A 
ENDBRANCH  15  16
BRANCH  15  22
ATOM     22  C   UNL     1       2.223   4.921  18.607  0.00  0.00    +0.000 A 
ATOM     23  C   UNL     1       1.825   3.759  17.924  0.00  0.00    +0.000 A 
ATOM     24  C   UNL     1       1.113   2.754  18.582  0.00  0.00    +0.000 A 
ATOM     25  C   UNL     1       0.791   2.893  19.930  0.00  0.00    +0.000 A 
ATOM     26  C   UNL     1       1.177   4.038  20.621  0.00  0.00    +0.000 A 
ATOM     27  C   UNL     1       1.889   5.044  19.965  0.00  0.00    +0.000 A 
ENDBRANCH  15  22
ENDBRANCH   1  15
TORSDOF 8
ENDMDL
MODEL 2
REMARK VINA RESULT:      -7.9      0.684      1.167
REMARK  Name = 
REMARK  8 active torsions:
REMARK  status: ('A' for Active; 'I' for Inactive)
REMARK    1  A    between atoms: N_5  and  C_6
REMARK    2  A    between atoms: C_6  and  C_7
REMARK    3  A    between atoms: C_7  and  C_8
REMARK    4  A    between atoms: C_8  and  C_9
REMARK    5  A    between atoms: C_9  and  O_10
REMARK    6  A    between atoms: O_10  and  C_11
REMARK    7  A    between atoms: C_11  and  C_12
REMARK    8  A    between atoms: C_11  and  C_18
REMARK                            x       y       z     vdW  Elec       q    Type
REMARK                         _______ _______ _______ _____ _____    ______ ____
ROOT
ATOM      1  O   UNL     1       2.729   7.616  18.746  0.00  0.00    +0.000 OA
ENDROOT
BRANCH   1   2
ATOM      2  C   UNL     1       2.457   8.732  17.903  0.00  0.00    +0.000 C 
BRANCH   2   3
ATOM      3  C   UNL     1       1.032   9.214  18.144  0.00  0.00    +0.000 C 
BRANCH   3   4
ATOM      4  C   UNL     1       0.868   9.853  19.525  0.00  0.00    +0.000 C 
BRANCH   4   5
ATOM      5  C   UNL     1      -0.544  10.396  19.765  0.00  0.00    +0.000 C 
BRANCH   5  10
ATOM      6  O   UNL     1      -3.369  11.342  15.196  0.00  0.00    +0.000 OA
ATOM      7  C   UNL     1      -2.691  11.116  16.190  0.00  0.00    +0.000 A 
ATOM      8  C   UNL     1      -2.734   9.803  16.855  0.00  0.00    +0.000 A 
ATOM      9  C   UNL     1      -2.031   9.625  17.975  0.00  0.00    +0.000 A 
ATOM     10  N   UNL     1      -1.259  10.629  18.514  0.00  0.00    +0.000 N 
ATOM     11  C   UNL     1      -1.160  11.888  17.921  0.00  0.00    +0.000 A 
ATOM     12  O   UNL     1      -0.505  12.819  18.379  0.00  0.00    +0.000 OA
ATOM     13  N   UNL     1      -1.866  12.043  16.755  0.00  0.00    +0.000 N 
ATOM     14  H   UNL     1      -1.825  12.952  16.322  0.00  0.00    +0.000 HD
ENDBRANCH   5  10
ENDBRANCH   4   5
ENDBRANCH   3   4
ENDBRANCH   2   3
ENDBRANCH   1   2
BRANCH   1  15
ATOM     15  C   UNL     1       2.972   6.408  17.991  0.00  0.00    +0.000 C 
BRANCH  15  16
ATOM     16  C   UNL     1       4.469   6.172  17.844  0.00  0.00    +0.000 A 
ATOM     17  C   UNL     1       5.124   6.424  16.627  0.00  0.00    +0.000 A 
ATOM     18  C   UNL     1       6.469   6.089  16.461  0.00  0.00    +0.000 A 
ATOM     19  C   UNL     1       7.178   5.506  17.509  0.00  0.00    +0.000 A 
ATOM     20  C   UNL     1       6.546   5.262  18.726  0.00  0.00    +0.000 A 
ATOM     21  C   UNL     1       5.199   5.591  18.894  0.00  0.00    +0.000 A 
ENDBRANCH  15  16
BRANCH  15  22
ATOM     22  C   UNL     1       2.233   5.244  18.640  0.00  0.00    +0.000 A 
ATOM     23  C   UNL     1       1.895   5.297  20.003  0.00  0.00    +0.000 A 
ATOM     24  C   UNL     1       1.212   4.241  20.610  0.00  0.00    +0.000 A 
ATOM     25  C   UNL     1       0.853   3.120  19.865  0.00  0.00    +0.000 A 
ATOM     26  C   UNL     1       1.179   3.052  18.513  0.00  0.00    +0.000 A 
ATOM     27  C   UNL     1       1.863   4.106  17.905  0.00  0.00    +0.000 A 
ENDBRANCH  15  22
ENDBRANCH   1  15
TORSDOF 8
ENDMDL
MODEL 3
REMARK VINA RESULT:      -7.9      1.151      1.771
REMARK  Name = 
REMARK  8 active torsions:
REMARK  status: ('A' for Active; 'I' for Inactive)
REMARK    1  A    between atoms: N_5  and  C_6
REMARK    2  A    between atoms: C_6  and  C_7
REMARK    3  A    between atoms: C_7  and  C_8
REMARK    4  A    between atoms: C_8  and  C_9
REMARK    5  A    between atoms: C_9  and  O_10
REMARK    6  A    between atoms: O_10  and  C_11
REMARK    7  A    between atoms: C_11  and  C_12
REMARK    8  A    between atoms: C_11  and  C_18
REMARK                            x       y       z     vdW  Elec       q    Type
REMARK                         _______ _______ _______ _____ _____    ______ ____
ROOT
ATOM      1  O   UNL     1       2.457   7.022  19.893  0.00  0.00    +0.000 OA
ENDROOT
BRANCH   1   2
ATOM      2  C   UNL     1       1.792   8.237  19.557  0.00  0.00    +0.000 C 
BRANCH   2   3
ATOM      3  C   UNL     1       1.122   8.809  20.801  0.00  0.00    +0.000 C 
BRANCH   3   4
ATOM      4  C   UNL     1      -0.125   9.627  20.457  0.00  0.00    +0.000 C 
BRANCH   4   5
ATOM      5  C   UNL     1       0.142  10.698  19.394  0.00  0.00    +0.000 C 
BRANCH   5  10
ATOM      6  O   UNL     1      -4.185  11.191  16.110  0.00  0.00    +0.000 OA
ATOM      7  C   UNL     1      -3.183  11.109  16.810  0.00  0.00    +0.000 A 
ATOM      8  C   UNL     1      -2.302   9.932  16.738  0.00  0.00    +0.000 A 
ATOM      9  C   UNL     1      -1.260   9.856  17.568  0.00  0.00    +0.000 A 
ATOM     10  N   UNL     1      -0.984  10.851  18.478  0.00  0.00    +0.000 N 
ATOM     11  C   UNL     1      -1.768  12.000  18.581  0.00  0.00    +0.000 A 
ATOM     12  O   UNL     1      -1.573  12.901  19.392  0.00  0.00    +0.000 OA
ATOM     13  N   UNL     1      -2.816  12.075  17.699  0.00  0.00    +0.000 N 
ATOM     14  H   UNL     1      -3.408  12.887  17.772  0.00  0.00    +0.000 HD
ENDBRANCH   5  10
ENDBRANCH   4   5
ENDBRANCH   3   4
ENDBRANCH   2   3
ENDBRANCH   1   2
BRANCH   1  15
ATOM     15  C   UNL     1       2.636   6.163  18.745  0.00  0.00    +0.000 C 
BRANCH  15  16
ATOM     16  C   UNL     1       4.110   6.086  18.371  0.00  0.00    +0.000 A 
ATOM     17  C   UNL     1       5.024   5.387  19.175  0.00  0.00    +0.000 A 
ATOM     18  C   UNL     1       6.391   5.424  18.895  0.00  0.00    +0.000 A 
ATOM     19  C   UNL     1       6.861   6.152  17.804  0.00  0.00    +0.000 A 
ATOM     20  C   UNL     1       5.966   6.840  16.989  0.00  0.00    +0.000 A 
ATOM     21  C   UNL     1       4.597   6.809  17.269  0.00  0.00    +0.000 A 
ENDBRANCH  15  16
BRANCH  15  22
ATOM     22  C   UNL     1       2.006   4.804  19.023  0.00  0.00    +0.000 A 
ATOM     23  C   UNL     1       1.519   4.503  20.307  0.00  0.00    +0.000 A 
ATOM     24  C   UNL     1       0.933   3.264  20.575  0.00  0.00    +0.000 A 
ATOM     25  C   UNL     1       0.821   2.310  19.566  0.00  0.00    +0.000 A 
ATOM     26  C   UNL     1       1.298   2.592  18.288  0.00  0.00    +0.000 A 
ATOM     27  C   UNL     1       1.885   3.829  18.019  0.00  0.00    +0.000 A 
ENDBRANCH  15  22
ENDBRANCH   1  15
TORSDOF 8
ENDMDL
MODEL 4
REMARK VINA RESULT:      -7.9      0.970      1.375
REMARK  Name = 
REMARK  8 active torsions:
REMARK  status: ('A' for Active; 'I' for Inactive)
REMARK    1  A    between atoms: N_5  and  C_6
REMARK    2  A    between atoms: C_6  and  C_7
REMARK    3  A    between atoms: C_7  and  C_8
REMARK    4  A    between atoms: C_8  and  C_9
REMARK    5  A    between atoms: C_9  and  O_10
REMARK    6  A    between atoms: O_10  and  C_11
REMARK    7  A    between atoms: C_11  and  C_12
REMARK    8  A    between atoms: C_11  and  C_18
REMARK                            x       y       z     vdW  Elec       q    Type
REMARK                         _______ _______ _______ _____ _____    ______ ____
ROOT
ATOM      1  O   UNL     1       3.020   7.169  18.571  0.00  0.00    +0.000 OA
ENDROOT
BRANCH   1   2
ATOM      2  C   UNL     1       2.678   8.273  17.737  0.00  0.00    +0.000 C 
BRANCH   2   3
ATOM      3  C   UNL     1       1.935   9.319  18.560  0.00  0.00    +0.000 C 
BRANCH   3   4
ATOM      4  C   UNL     1       0.530   9.584  18.016  0.00  0.00    +0.000 C 
BRANCH   4   5
ATOM      5  C   UNL     1      -0.137  10.803  18.662  0.00  0.00    +0.000 C 
BRANCH   5  10
ATOM      6  O   UNL     1      -5.348  11.309  17.133  0.00  0.00    +0.000 OA
ATOM      7  C   UNL     1      -4.165  11.236  17.441  0.00  0.00    +0.000 A 
ATOM      8  C   UNL     1      -3.269  10.271  16.784  0.00  0.00    +0.000 A 
ATOM      9  C   UNL     1      -2.004  10.181  17.200  0.00  0.00    +0.000 A 
ATOM     10  N   UNL     1      -1.516  10.973  18.215  0.00  0.00    +0.000 N 
ATOM     11  C   UNL     1      -2.309  11.920  18.863  0.00  0.00    +0.000 A 
ATOM     12  O   UNL     1      -1.924  12.629  19.787  0.00  0.00    +0.000 OA
ATOM     13  N   UNL     1      -3.597  12.020  18.402  0.00  0.00    +0.000 N 
ATOM     14  H   UNL     1      -4.192  12.682  18.871  0.00  0.00    +0.000 HD
ENDBRANCH   5  10
ENDBRANCH   4   5
ENDBRANCH   3   4
ENDBRANCH   2   3
ENDBRANCH   1   2
BRANCH   1  15
ATOM     15  C   UNL     1       3.070   5.926  17.836  0.00  0.00    +0.000 C 
BRANCH  15  16
ATOM     16  C   UNL     1       4.516   5.527  17.574  0.00  0.00    +0.000 A 
ATOM     17  C   UNL     1       5.364   5.151  18.628  0.00  0.00    +0.000 A 
ATOM     18  C   UNL     1       6.720   4.908  18.398  0.00  0.00    +0.000 A 
ATOM     19  C   UNL     1       7.242   5.029  17.112  0.00  0.00    +0.000 A 
ATOM     20  C   UNL     1       6.412   5.388  16.054  0.00  0.00    +0.000 A 
ATOM     21  C   UNL     1       5.056   5.637  16.282  0.00  0.00    +0.000 A 
ENDBRANCH  15  16
BRANCH  15  22
ATOM     22  C   UNL     1       2.270   4.863  18.579  0.00  0.00    +0.000 A 
ATOM     23  C   UNL     1       1.886   3.682  17.919  0.00  0.00    +0.000 A 
ATOM     24  C   UNL     1       1.158   2.696  18.589  0.00  0.00    +0.000 A 
ATOM     25  C   UNL     1       0.807   2.872  19.925  0.00  0.00    +0.000 A 
ATOM     26  C   UNL     1       1.180   4.035  20.594  0.00  0.00    +0.000 A 
ATOM     27  C   UNL     1       1.907   5.022  19.926  0.00  0.00    +0.000 A 
ENDBRANCH  15  22
ENDBRANCH   1  15
TORSDOF 8
ENDMDL
MODEL 5
REMARK VINA RESULT:      -7.8      0.990      3.798
REMARK  Name = 
REMARK  8 active torsions:
REMARK  status: ('A' for Active; 'I' for Inactive)
REMARK    1  A    between atoms: N_5  and  C_6
REMARK    2  A    between atoms: C_6  and  C_7
REMARK    3  A    between atoms: C_7  and  C_8
REMARK    4  A    between atoms: C_8  and  C_9
REMARK    5  A    between atoms: C_9  and  O_10
REMARK    6  A    between atoms: O_10  and  C_11
REMARK    7  A    between atoms: C_11  and  C_12
REMARK    8  A    between atoms: C_11  and  C_18
REMARK                            x       y       z     vdW  Elec       q    Type
REMARK                         _______ _______ _______ _____ _____    ______ ____
ROOT
ATOM      1  O   UNL     1       2.294   6.556  17.896  0.00  0.00    +0.000 OA
ENDROOT
BRANCH   1   2
ATOM      2  C   UNL     1       2.536   7.957  17.786  0.00  0.00    +0.000 C 
BRANCH   2   3
ATOM      3  C   UNL     1       1.873   8.678  18.953  0.00  0.00    +0.000 C 
BRANCH   3   4
ATOM      4  C   UNL     1       1.177   9.967  18.510  0.00  0.00    +0.000 C 
BRANCH   4   5
ATOM      5  C   UNL     1      -0.108  10.248  19.296  0.00  0.00    +0.000 C 
BRANCH   5  10
ATOM      6  O   UNL     1      -4.388  11.466  16.142  0.00  0.00    +0.000 OA
ATOM      7  C   UNL     1      -3.395  11.223  16.816  0.00  0.00    +0.000 A 
ATOM      8  C   UNL     1      -2.600  10.007  16.585  0.00  0.00    +0.000 A 
ATOM      9  C   UNL     1      -1.566   9.751  17.389  0.00  0.00    +0.000 A 
ATOM     10  N   UNL     1      -1.220  10.598  18.417  0.00  0.00    +0.000 N 
ATOM     11  C   UNL     1      -1.921  11.775  18.676  0.00  0.00    +0.000 A 
ATOM     12  O   UNL     1      -1.664  12.547  19.595  0.00  0.00    +0.000 OA
ATOM     13  N   UNL     1      -2.961  12.038  17.821  0.00  0.00    +0.000 N 
ATOM     14  H   UNL     1      -3.494  12.872  18.003  0.00  0.00    +0.000 HD
ENDBRANCH   5  10
ENDBRANCH   4   5
ENDBRANCH   3   4
ENDBRANCH   2   3
ENDBRANCH   1   2
BRANCH   1  15
ATOM     15  C   UNL     1       3.146   5.931  18.881  0.00  0.00    +0.000 C 
BRANCH  15  16
ATOM     16  C   UNL     1       2.388   4.830  19.610  0.00  0.00    +0.000 A 
ATOM     17  C   UNL     1       2.622   4.569  20.970  0.00  0.00    +0.000 A 
ATOM     18  C   UNL     1       2.017   3.480  21.600  0.00  0.00    +0.000 A 
ATOM     19  C   UNL     1       1.165   2.643  20.882  0.00  0.00    +0.000 A 
ATOM     20  C   UNL     1       0.913   2.896  19.536  0.00  0.00    +0.000 A 
ATOM     21  C   UNL     1       1.520   3.982  18.902  0.00  0.00    +0.000 A 
ENDBRANCH  15  16
BRANCH  15  22
ATOM     22  C   UNL     1       4.428   5.449  18.214  0.00  0.00    +0.000 A 
ATOM     23  C   UNL     1       5.651   5.524  18.903  0.00  0.00    +0.000 A 
ATOM     24  C   UNL     1       6.834   5.081  18.306  0.00  0.00    +0.000 A 
ATOM     25  C   UNL     1       6.812   4.553  17.017  0.00  0.00    +0.000 A 
ATOM     26  C   UNL     1       5.609   4.472  16.320  0.00  0.00    +0.000 A 
ATOM     27  C   UNL     1       4.426   4.915  16.915  0.00  0.00    +0.000 A 
ENDBRANCH  15  22
ENDBRANCH   1  15
TORSDOF 8
ENDMDL
MODEL 6
REMARK VINA RESULT:      -7.8      4.322      7.846
REMARK  Name = 
REMARK  8 active torsions:
REMARK  status: ('A' for Active; 'I' for Inactive)
REMARK    1  A    between atoms: N_5  and  C_6
REMARK    2  A    between atoms: C_6  and  C_7
REMARK    3  A    between atoms: C_7  and  C_8
REMARK    4  A    between atoms: C_8  and  C_9
REMARK    5  A    between atoms: C_9  and  O_10
REMARK    6  A    between atoms: O_10  and  C_11
REMARK    7  A    between atoms: C_11  and  C_12
REMARK    8  A    between atoms: C_11  and  C_18
REMARK                            x       y       z     vdW  Elec       q    Type
REMARK                         _______ _______ _______ _____ _____    ______ ____
ROOT
ATOM      1  O   UNL     1       4.487   5.959  19.440  0.00  0.00    +0.000 OA
ENDROOT
BRANCH   1   2
ATOM      2  C   UNL     1       5.368   4.892  19.096  0.00  0.00    +0.000 C 
BRANCH   2   3
ATOM      3  C   UNL     1       6.759   5.451  18.823  0.00  0.00    +0.000 C 
BRANCH   3   4
ATOM      4  C   UNL     1       7.347   4.914  17.517  0.00  0.00    +0.000 C 
BRANCH   4   5
ATOM      5  C   UNL     1       7.020   5.799  16.310  0.00  0.00    +0.000 C 
BRANCH   5  10
ATOM      6  O   UNL     1       5.437   3.018  11.893  0.00  0.00    +0.000 OA
ATOM      7  C   UNL     1       5.824   3.599  12.899  0.00  0.00    +0.000 A 
ATOM      8  C   UNL     1       5.053   3.543  14.151  0.00  0.00    +0.000 A 
ATOM      9  C   UNL     1       5.479   4.248  15.202  0.00  0.00    +0.000 A 
ATOM     10  N   UNL     1       6.623   5.012  15.146  0.00  0.00    +0.000 N 
ATOM     11  C   UNL     1       7.407   5.090  13.996  0.00  0.00    +0.000 A 
ATOM     12  O   UNL     1       8.420   5.777  13.894  0.00  0.00    +0.000 OA
ATOM     13  N   UNL     1       6.971   4.336  12.937  0.00  0.00    +0.000 N 
ATOM     14  H   UNL     1       7.512   4.395  12.089  0.00  0.00    +0.000 HD
ENDBRANCH   5  10
ENDBRANCH   4   5
ENDBRANCH   3   4
ENDBRANCH   2   3
ENDBRANCH   1   2
BRANCH   1  15
ATOM     15  C   UNL     1       3.265   5.927  18.668  0.00  0.00    +0.000 C 
BRANCH  15  16
ATOM     16  C   UNL     1       2.427   4.717  19.059  0.00  0.00    +0.000 A 
ATOM     17  C   UNL     1       1.996   3.795  18.093  0.00  0.00    +0.000 A 
ATOM     18  C   UNL     1       1.126   2.758  18.437  0.00  0.00    +0.000 A 
ATOM     19  C   UNL     1       0.683   2.626  19.751  0.00  0.00    +0.000 A 
ATOM     20  C   UNL     1       1.112   3.525  20.724  0.00  0.00    +0.000 A 
ATOM     21  C   UNL     1       1.979   4.566  20.382  0.00  0.00    +0.000 A 
ENDBRANCH  15  16
BRANCH  15  22
ATOM     22  C   UNL     1       2.531   7.253  18.823  0.00  0.00    +0.000 A 
ATOM     23  C   UNL     1       1.930   7.585  20.049  0.00  0.00    +0.000 A 
ATOM     24  C   UNL     1       1.258   8.800  20.209  0.00  0.00    +0.000 A 
ATOM     25  C   UNL     1       1.181   9.700  19.149  0.00  0.00    +0.000 A 
ATOM     26  C   UNL     1       1.771   9.387  17.927  0.00  0.00    +0.000 A 
ATOM     27  C   UNL     1       2.442   8.174  17.766  0.00  0.00    +0.000 A 
ENDBRANCH  15  22
ENDBRANCH   1  15
TORSDOF 8
ENDMDL
MODEL 7
REMARK VINA RESULT:      -7.8      1.033      3.758
REMARK  Name = 
REMARK  8 active torsions:
REMARK  status: ('A' for Active; 'I' for Inactive)
REMARK    1  A    between atoms: N_5  and  C_6
REMARK    2  A    between atoms: C_6  and  C_7
REMARK    3  A    between atoms: C_7  and  C_8
REMARK    4  A    between atoms: C_8  and  C_9
REMARK    5  A    between atoms: C_9  and  O_10
REMARK    6  A    between atoms: O_10  and  C_11
REMARK    7  A    between atoms: C_11  and  C_12
REMARK    8  A    between atoms: C_11  and  C_18
REMARK                            x       y       z     vdW  Elec       q    Type
REMARK                         _______ _______ _______ _____ _____    ______ ____
ROOT
ATOM      1  O   UNL     1       2.463   7.011  17.701  0.00  0.00    +0.000 OA
ENDROOT
BRANCH   1   2
ATOM      2  C   UNL     1       2.512   8.420  17.915  0.00  0.00    +0.000 C 
BRANCH   2   3
ATOM      3  C   UNL     1       1.520   8.800  19.007  0.00  0.00    +0.000 C 
BRANCH   3   4
ATOM      4  C   UNL     1       0.947  10.204  18.799  0.00  0.00    +0.000 C 
BRANCH   4   5
ATOM      5  C   UNL     1      -0.340  10.444  19.595  0.00  0.00    +0.000 C 
BRANCH   5  10
ATOM      6  O   UNL     1      -4.660  11.548  16.452  0.00  0.00    +0.000 OA
ATOM      7  C   UNL     1      -3.662  11.341  17.131  0.00  0.00    +0.000 A 
ATOM      8  C   UNL     1      -2.683  10.310  16.747  0.00  0.00    +0.000 A 
ATOM      9  C   UNL     1      -1.647  10.073  17.554  0.00  0.00    +0.000 A 
ATOM     10  N   UNL     1      -1.466  10.774  18.725  0.00  0.00    +0.000 N 
ATOM     11  C   UNL     1      -2.346  11.775  19.134  0.00  0.00    +0.000 A 
ATOM     12  O   UNL     1      -2.237  12.408  20.181  0.00  0.00    +0.000 OA
ATOM     13  N   UNL     1      -3.387  12.026  18.278  0.00  0.00    +0.000 N 
ATOM     14  H   UNL     1      -4.047  12.731  18.566  0.00  0.00    +0.000 HD
ENDBRANCH   5  10
ENDBRANCH   4   5
ENDBRANCH   3   4
ENDBRANCH   2   3
ENDBRANCH   1   2
BRANCH   1  15
ATOM     15  C   UNL     1       3.266   6.286  18.659  0.00  0.00    +0.000 C 
BRANCH  15  16
ATOM     16  C   UNL     1       2.504   5.071  19.171  0.00  0.00    +0.000 A 
ATOM     17  C   UNL     1       1.916   4.159  18.281  0.00  0.00    +0.000 A 
ATOM     18  C   UNL     1       1.115   3.118  18.755  0.00  0.00    +0.000 A 
ATOM     19  C   UNL     1       0.899   2.971  20.123  0.00  0.00    +0.000 A 
ATOM     20  C   UNL     1       1.486   3.860  21.020  0.00  0.00    +0.000 A 
ATOM     21  C   UNL     1       2.284   4.906  20.548  0.00  0.00    +0.000 A 
ENDBRANCH  15  16
BRANCH  15  22
ATOM     22  C   UNL     1       4.614   5.943  18.037  0.00  0.00    +0.000 A 
ATOM     23  C   UNL     1       5.683   5.537  18.855  0.00  0.00    +0.000 A 
ATOM     24  C   UNL     1       6.923   5.213  18.299  0.00  0.00    +0.000 A 
ATOM     25  C   UNL     1       7.111   5.285  16.921  0.00  0.00    +0.000 A 
ATOM     26  C   UNL     1       6.063   5.684  16.096  0.00  0.00    +0.000 A 
ATOM     27  C   UNL     1       4.824   6.009  16.650  0.00  0.00    +0.000 A 
ENDBRANCH  15  22
ENDBRANCH   1  15
TORSDOF 8
ENDMDL
MODEL 8
REMARK VINA RESULT:      -7.8      1.232      1.587
REMARK  Name = 
REMARK  8 active torsions:
REMARK  status: ('A' for Active; 'I' for Inactive)
REMARK    1  A    between atoms: N_5  and  C_6
REMARK    2  A    between atoms: C_6  and  C_7
REMARK    3  A    between atoms: C_7  and  C_8
REMARK    4  A    between atoms: C_8  and  C_9
REMARK    5  A    between atoms: C_9  and  O_10
REMARK    6  A    between atoms: O_10  and  C_11
REMARK    7  A    between atoms: C_11  and  C_12
REMARK    8  A    between atoms: C_11  and  C_18
REMARK                            x       y       z     vdW  Elec       q    Type
REMARK                         _______ _______ _______ _____ _____    ______ ____
ROOT
ATOM      1  O   UNL     1       2.566   6.914  18.939  0.00  0.00    +0.000 OA
ENDROOT
BRANCH   1   2
ATOM      2  C   UNL     1       2.211   8.144  18.312  0.00  0.00    +0.000 C 
BRANCH   2   3
ATOM      3  C   UNL     1       1.514   9.046  19.324  0.00  0.00    +0.000 C 
BRANCH   3   4
ATOM      4  C   UNL     1       0.738  10.177  18.646  0.00  0.00    +0.000 C 
BRANCH   4   5
ATOM      5  C   UNL     1      -0.456  10.659  19.476  0.00  0.00    +0.000 C 
BRANCH   5  10
ATOM      6  O   UNL     1      -4.990  11.348  16.522  0.00  0.00    +0.000 OA
ATOM      7  C   UNL     1      -3.947  11.232  17.154  0.00  0.00    +0.000 A 
ATOM      8  C   UNL     1      -2.960  10.197  16.805  0.00  0.00    +0.000 A 
ATOM      9  C   UNL     1      -1.871  10.064  17.564  0.00  0.00    +0.000 A 
ATOM     10  N   UNL     1      -1.642  10.875  18.652  0.00  0.00    +0.000 N 
ATOM     11  C   UNL     1      -2.528  11.886  19.023  0.00  0.00    +0.000 A 
ATOM     12  O   UNL     1      -2.377  12.617  19.998  0.00  0.00    +0.000 OA
ATOM     13  N   UNL     1      -3.627  12.028  18.214  0.00  0.00    +0.000 N 
ATOM     14  H   UNL     1      -4.290  12.739  18.476  0.00  0.00    +0.000 HD
ENDBRANCH   5  10
ENDBRANCH   4   5
ENDBRANCH   3   4
ENDBRANCH   2   3
ENDBRANCH   1   2
BRANCH   1  15
ATOM     15  C   UNL     1       3.146   5.975  18.007  0.00  0.00    +0.000 C 
BRANCH  15  16
ATOM     16  C   UNL     1       4.665   6.019  18.092  0.00  0.00    +0.000 A 
ATOM     17  C   UNL     1       5.435   6.517  17.029  0.00  0.00    +0.000 A 
ATOM     18  C   UNL     1       6.828   6.441  17.062  0.00  0.00    +0.000 A 
ATOM     19  C   UNL     1       7.471   5.873  18.160  0.00  0.00    +0.000 A 
ATOM     20  C   UNL     1       6.722   5.386  19.229  0.00  0.00    +0.000 A 
ATOM     21  C   UNL     1       5.327   5.457  19.197  0.00  0.00    +0.000 A 
ENDBRANCH  15  16
BRANCH  15  22
ATOM     22  C   UNL     1       2.562   4.589  18.251  0.00  0.00    +0.000 A 
ATOM     23  C   UNL     1       1.631   4.389  19.285  0.00  0.00    +0.000 A 
ATOM     24  C   UNL     1       1.082   3.126  19.517  0.00  0.00    +0.000 A 
ATOM     25  C   UNL     1       1.452   2.046  18.718  0.00  0.00    +0.000 A 
ATOM     26  C   UNL     1       2.372   2.226  17.689  0.00  0.00    +0.000 A 
ATOM     27  C   UNL     1       2.922   3.488  17.457  0.00  0.00    +0.000 A 
ENDBRANCH  15  22
ENDBRANCH   1  15
TORSDOF 8
ENDMDL
MODEL 9
REMARK VINA RESULT:      -7.8      2.546      3.166
REMARK  Name = 
REMARK  8 active torsions:
REMARK  status: ('A' for Active; 'I' for Inactive)
REMARK    1  A    between atoms: N_5  and  C_6
REMARK    2  A    between atoms: C_6  and  C_7
REMARK    3  A    between atoms: C_7  and  C_8
REMARK    4  A    between atoms: C_8  and  C_9
REMARK    5  A    between atoms: C_9  and  O_10
REMARK    6  A    between atoms: O_10  and  C_11
REMARK    7  A    between atoms: C_11  and  C_12
REMARK    8  A    between atoms: C_11  and  C_18
REMARK                            x       y       z     vdW  Elec       q    Type
REMARK                         _______ _______ _______ _____ _____    ______ ____
ROOT
ATOM      1  O   UNL     1       3.113   7.172  18.647  0.00  0.00    +0.000 OA
ENDROOT
BRANCH   1   2
ATOM      2  C   UNL     1       2.945   8.337  17.842  0.00  0.00    +0.000 C 
BRANCH   2   3
ATOM      3  C   UNL     1       1.475   8.741  17.838  0.00  0.00    +0.000 C 
BRANCH   3   4
ATOM      4  C   UNL     1       1.184   9.856  18.845  0.00  0.00    +0.000 C 
BRANCH   4   5
ATOM      5  C   UNL     1       0.753   9.320  20.214  0.00  0.00    +0.000 C 
BRANCH   5  10
ATOM      6  O   UNL     1      -1.342  13.265  23.346  0.00  0.00    +0.000 OA
ATOM      7  C   UNL     1      -0.826  12.380  22.675  0.00  0.00    +0.000 A 
ATOM      8  C   UNL     1      -0.065  12.698  21.456  0.00  0.00    +0.000 A 
ATOM      9  C   UNL     1       0.421  11.696  20.720  0.00  0.00    +0.000 A 
ATOM     10  N   UNL     1       0.239  10.380  21.078  0.00  0.00    +0.000 N 
ATOM     11  C   UNL     1      -0.456  10.014  22.231  0.00  0.00    +0.000 A 
ATOM     12  O   UNL     1      -0.663   8.854  22.575  0.00  0.00    +0.000 OA
ATOM     13  N   UNL     1      -0.921  11.056  22.990  0.00  0.00    +0.000 N 
ATOM     14  H   UNL     1      -1.444  10.813  23.816  0.00  0.00    +0.000 HD
ENDBRANCH   5  10
ENDBRANCH   4   5
ENDBRANCH   3   4
ENDBRANCH   2   3
ENDBRANCH   1   2
BRANCH   1  15
ATOM     15  C   UNL     1       3.147   5.963  17.855  0.00  0.00    +0.000 C 
BRANCH  15  16
ATOM     16  C   UNL     1       4.588   5.566  17.563  0.00  0.00    +0.000 A 
ATOM     17  C   UNL     1       4.963   5.082  16.300  0.00  0.00    +0.000 A 
ATOM     18  C   UNL     1       6.255   4.603  16.076  0.00  0.00    +0.000 A 
ATOM     19  C   UNL     1       7.190   4.610  17.108  0.00  0.00    +0.000 A 
ATOM     20  C   UNL     1       6.838   5.100  18.364  0.00  0.00    +0.000 A 
ATOM     21  C   UNL     1       5.544   5.575  18.592  0.00  0.00    +0.000 A 
ENDBRANCH  15  16
BRANCH  15  22
ATOM     22  C   UNL     1       2.344   4.873  18.553  0.00  0.00    +0.000 A 
ATOM     23  C   UNL     1       2.010   5.007  19.912  0.00  0.00    +0.000 A 
ATOM     24  C   UNL     1       1.269   4.019  20.565  0.00  0.00    +0.000 A 
ATOM     25  C   UNL     1       0.848   2.887  19.870  0.00  0.00    +0.000 A 
ATOM     26  C   UNL     1       1.169   2.739  18.524  0.00  0.00    +0.000 A 
ATOM     27  C   UNL     1       1.911   3.725  17.870  0.00  0.00    +0.000 A 
ENDBRANCH  15  22
ENDBRANCH   1  15
TORSDOF 8
ENDMDL
