MODEL 1
REMARK VINA RESULT:     -10.6      0.000      0.000
REMARK  Name = 
REMARK  4 active torsions:
REMARK  status: ('A' for Active; 'I' for Inactive)
REMARK    1  A    between atoms: C_4  and  C_5
REMARK    2  A    between atoms: C_5  and  N_6
REMARK    3  A    between atoms: N_9  and  C_10
REMARK    4  A    between atoms: N_21  and  C_22
REMARK                            x       y       z     vdW  Elec       q    Type
REMARK                         _______ _______ _______ _____ _____    ______ ____
ROOT
ATOM      1  N   UNL     1       8.377   5.493  20.271  0.00  0.00    +0.000 N 
ATOM      2  C   UNL     1       8.061   6.081  19.062  0.00  0.00    +0.000 A 
ATOM      3  N   UNL     1       7.652   5.316  18.062  0.00  0.00    +0.000 NA
ATOM      4  C   UNL     1       7.356   5.980  16.936  0.00  0.00    +0.000 A 
ATOM      5  N   UNL     1       7.502   7.296  16.779  0.00  0.00    +0.000 NA
ATOM      6  C   UNL     1       7.976   7.954  17.828  0.00  0.00    +0.000 A 
ATOM      7  N   UNL     1       8.150   9.319  17.645  0.00  0.00    +0.000 N 
ATOM      8  N   UNL     1       8.253   7.381  18.990  0.00  0.00    +0.000 NA
ATOM      9  H   UNL     1       8.715   4.548  20.135  0.00  0.00    +0.000 HD
ATOM     10  H   UNL     1       8.957   6.120  20.810  0.00  0.00    +0.000 HD
ATOM     11  H   UNL     1       7.852   9.588  16.719  0.00  0.00    +0.000 HD
ENDROOT
BRANCH   7  12
ATOM     12  C   UNL     1       8.814  10.289  18.402  0.00  0.00    +0.000 A 
ATOM     13  C   UNL     1       9.293  10.066  19.701  0.00  0.00    +0.000 A 
ATOM     14  C   UNL     1       9.922  11.079  20.429  0.00  0.00    +0.000 A 
ATOM     15  C   UNL     1      10.078  12.337  19.862  0.00  0.00    +0.000 A 
ATOM     16  C   UNL     1       9.606  12.577  18.569  0.00  0.00    +0.000 A 
ATOM     17  C   UNL     1       8.948  11.573  17.861  0.00  0.00    +0.000 A 
ATOM     18  O   UNL     1       9.776  13.773  17.922  0.00  0.00    +0.000 OA
ATOM     19  C   UNL     1      10.878  14.481  18.502  0.00  0.00    +0.000 C 
ATOM     20  C   UNL     1      10.694  14.575  20.008  0.00  0.00    +0.000 C 
ATOM     21  O   UNL     1      10.731  13.278  20.615  0.00  0.00    +0.000 OA
ENDBRANCH   7  12
BRANCH   4  22
ATOM     22  C   UNL     1       6.806   5.211  15.742  0.00  0.00    +0.000 C 
BRANCH  22  23
ATOM     23  N   UNL     1       5.359   5.380  15.480  0.00  0.00    +0.000 NA
ATOM     24  C   UNL     1       4.625   4.096  15.425  0.00  0.00    +0.000 C 
ATOM     25  C   UNL     1       4.445   3.362  16.775  0.00  0.00    +0.000 C 
ATOM     26  N   UNL     1       3.850   4.269  17.771  0.00  0.00    +0.000 N 
ATOM     27  C   UNL     1       4.494   5.584  17.903  0.00  0.00    +0.000 C 
ATOM     28  C   UNL     1       4.721   6.233  16.510  0.00  0.00    +0.000 C 
BRANCH  26  29
ATOM     29  C   UNL     1       3.026   3.753  18.766  0.00  0.00    +0.000 A 
ATOM     30  C   UNL     1       3.589   3.192  19.926  0.00  0.00    +0.000 A 
ATOM     31  C   UNL     1       2.807   2.842  21.036  0.00  0.00    +0.000 A 
ATOM     32  C   UNL     1       1.428   3.016  21.007  0.00  0.00    +0.000 A 
ATOM     33  C   UNL     1       0.830   3.502  19.852  0.00  0.00    +0.000 A 
ATOM     34  C   UNL     1       1.618   3.858  18.755  0.00  0.00    +0.000 A 
ATOM     35  F   UNL     1       0.978   4.312  17.664  0.00  0.00    +0.000 F 
ENDBRANCH  26  29
ENDBRANCH  22  23
ENDBRANCH   4  22
TORSDOF 4
ENDMDL
MODEL 2
REMARK VINA RESULT:      -9.2      5.564      7.216
REMARK  Name = 
REMARK  4 active torsions:
REMARK  status: ('A' for Active; 'I' for Inactive)
REMARK    1  A    between atoms: C_4  and  C_5
REMARK    2  A    between atoms: C_5  and  N_6
REMARK    3  A    between atoms: N_9  and  C_10
REMARK    4  A    between atoms: N_21  and  C_22
REMARK                            x       y       z     vdW  Elec       q    Type
REMARK                         _______ _______ _______ _____ _____    ______ ____
ROOT
ATOM      1  N   UNL     1       1.421   8.412  22.080  0.00  0.00    +0.000 N 
ATOM      2  C   UNL     1       1.633   8.373  20.715  0.00  0.00    +0.000 A 
ATOM      3  N   UNL     1       2.114   7.266  20.171  0.00  0.00    +0.000 NA
ATOM      4  C   UNL     1       2.270   7.320  18.841  0.00  0.00    +0.000 A 
ATOM      5  N   UNL     1       2.026   8.400  18.099  0.00  0.00    +0.000 NA
ATOM      6  C   UNL     1       1.604   9.470  18.758  0.00  0.00    +0.000 A 
ATOM      7  N   UNL     1       1.380  10.597  17.980  0.00  0.00    +0.000 N 
ATOM      8  N   UNL     1       1.384   9.489  20.064  0.00  0.00    +0.000 NA
ATOM      9  H   UNL     1       2.073   7.807  22.564  0.00  0.00    +0.000 HD
ATOM     10  H   UNL     1       1.367   9.374  22.385  0.00  0.00    +0.000 HD
ATOM     11  H   UNL     1       1.560  10.393  17.008  0.00  0.00    +0.000 HD
ENDROOT
BRANCH   7  12
ATOM     12  C   UNL     1       1.158  11.938  18.313  0.00  0.00    +0.000 A 
ATOM     13  C   UNL     1      -0.108  12.463  18.614  0.00  0.00    +0.000 A 
ATOM     14  C   UNL     1      -0.282  13.817  18.909  0.00  0.00    +0.000 A 
ATOM     15  C   UNL     1       0.816  14.668  18.904  0.00  0.00    +0.000 A 
ATOM     16  C   UNL     1       2.083  14.161  18.606  0.00  0.00    +0.000 A 
ATOM     17  C   UNL     1       2.246  12.817  18.278  0.00  0.00    +0.000 A 
ATOM     18  O   UNL     1       3.220  14.927  18.640  0.00  0.00    +0.000 OA
ATOM     19  C   UNL     1       3.005  16.070  19.477  0.00  0.00    +0.000 C 
ATOM     20  C   UNL     1       1.744  16.796  19.040  0.00  0.00    +0.000 C 
ATOM     21  O   UNL     1       0.584  15.979  19.233  0.00  0.00    +0.000 OA
ENDBRANCH   7  12
BRANCH   4  22
ATOM     22  C   UNL     1       2.749   6.080  18.098  0.00  0.00    +0.000 C 
BRANCH  22  23
ATOM     23  N   UNL     1       4.179   5.737  18.274  0.00  0.00    +0.000 NA
ATOM     24  C   UNL     1       4.488   4.334  17.914  0.00  0.00    +0.000 C 
ATOM     25  C   UNL     1       4.441   3.998  16.405  0.00  0.00    +0.000 C 
ATOM     26  N   UNL     1       5.286   4.937  15.648  0.00  0.00    +0.000 N 
ATOM     27  C   UNL     1       5.073   6.364  15.935  0.00  0.00    +0.000 C 
ATOM     28  C   UNL     1       5.048   6.624  17.466  0.00  0.00    +0.000 C 
BRANCH  26  29
ATOM     29  C   UNL     1       5.918   4.510  14.485  0.00  0.00    +0.000 A 
ATOM     30  C   UNL     1       5.243   3.666  13.586  0.00  0.00    +0.000 A 
ATOM     31  C   UNL     1       5.757   3.370  12.315  0.00  0.00    +0.000 A 
ATOM     32  C   UNL     1       6.984   3.890  11.916  0.00  0.00    +0.000 A 
ATOM     33  C   UNL     1       7.711   4.672  12.804  0.00  0.00    +0.000 A 
ATOM     34  C   UNL     1       7.185   4.968  14.064  0.00  0.00    +0.000 A 
ATOM     35  F   UNL     1       7.943   5.720  14.880  0.00  0.00    +0.000 F 
ENDBRANCH  26  29
ENDBRANCH  22  23
ENDBRANCH   4  22
TORSDOF 4
ENDMDL
MODEL 3
REMARK VINA RESULT:      -9.1      8.107     11.489
REMARK  Name = 
REMARK  4 active torsions:
REMARK  status: ('A' for Active; 'I' for Inactive)
REMARK    1  A    between atoms: C_4  and  C_5
REMARK    2  A    between atoms: C_5  and  N_6
REMARK    3  A    between atoms: N_9  and  C_10
REMARK    4  A    between atoms: N_21  and  C_22
REMARK                            x       y       z     vdW  Elec       q    Type
REMARK                         _______ _______ _______ _____ _____    ______ ____
ROOT
ATOM      1  N   UNL     1      -1.154  10.192  17.328  0.00  0.00    +0.000 N 
ATOM      2  C   UNL     1      -0.477  10.255  18.531  0.00  0.00    +0.000 A 
ATOM      3  N   UNL     1      -0.553  11.361  19.254  0.00  0.00    +0.000 NA
ATOM      4  C   UNL     1       0.125  11.321  20.409  0.00  0.00    +0.000 A 
ATOM      5  N   UNL     1       0.873  10.292  20.806  0.00  0.00    +0.000 NA
ATOM      6  C   UNL     1       0.924   9.261  19.974  0.00  0.00    +0.000 A 
ATOM      7  N   UNL     1       1.728   8.206  20.383  0.00  0.00    +0.000 N 
ATOM      8  N   UNL     1       0.252   9.202  18.834  0.00  0.00    +0.000 NA
ATOM      9  H   UNL     1      -1.235  11.111  16.911  0.00  0.00    +0.000 HD
ATOM     10  H   UNL     1      -0.761   9.456  16.758  0.00  0.00    +0.000 HD
ATOM     11  H   UNL     1       2.130   8.402  21.288  0.00  0.00    +0.000 HD
ENDROOT
BRANCH   7  12
ATOM     12  C   UNL     1       2.208   7.077  19.711  0.00  0.00    +0.000 A 
ATOM     13  C   UNL     1       2.864   7.132  18.473  0.00  0.00    +0.000 A 
ATOM     14  C   UNL     1       3.297   5.972  17.826  0.00  0.00    +0.000 A 
ATOM     15  C   UNL     1       3.075   4.734  18.415  0.00  0.00    +0.000 A 
ATOM     16  C   UNL     1       2.423   4.661  19.648  0.00  0.00    +0.000 A 
ATOM     17  C   UNL     1       1.962   5.819  20.272  0.00  0.00    +0.000 A 
ATOM     18  O   UNL     1       2.221   3.481  20.317  0.00  0.00    +0.000 OA
ATOM     19  C   UNL     1       3.169   2.506  19.869  0.00  0.00    +0.000 C 
ATOM     20  C   UNL     1       3.130   2.409  18.353  0.00  0.00    +0.000 C 
ATOM     21  O   UNL     1       3.552   3.636  17.746  0.00  0.00    +0.000 OA
ENDBRANCH   7  12
BRANCH   4  22
ATOM     22  C   UNL     1       0.050  12.511  21.357  0.00  0.00    +0.000 C 
BRANCH  22  23
ATOM     23  N   UNL     1       1.244  13.385  21.386  0.00  0.00    +0.000 NA
ATOM     24  C   UNL     1       1.943  13.455  20.082  0.00  0.00    +0.000 C 
ATOM     25  C   UNL     1       1.214  14.238  18.965  0.00  0.00    +0.000 C 
ATOM     26  N   UNL     1       0.848  15.582  19.442  0.00  0.00    +0.000 N 
ATOM     27  C   UNL     1       0.156  15.635  20.738  0.00  0.00    +0.000 C 
ATOM     28  C   UNL     1       0.891  14.765  21.795  0.00  0.00    +0.000 C 
BRANCH  26  29
ATOM     29  C   UNL     1       0.799  16.642  18.541  0.00  0.00    +0.000 A 
ATOM     30  C   UNL     1       1.952  17.012  17.826  0.00  0.00    +0.000 A 
ATOM     31  C   UNL     1       1.908  17.935  16.772  0.00  0.00    +0.000 A 
ATOM     32  C   UNL     1       0.707  18.541  16.419  0.00  0.00    +0.000 A 
ATOM     33  C   UNL     1      -0.439  18.252  17.148  0.00  0.00    +0.000 A 
ATOM     34  C   UNL     1      -0.386  17.324  18.191  0.00  0.00    +0.000 A 
ATOM     35  F   UNL     1      -1.527  17.096  18.864  0.00  0.00    +0.000 F 
ENDBRANCH  26  29
ENDBRANCH  22  23
ENDBRANCH   4  22
TORSDOF 4
ENDMDL
MODEL 4
REMARK VINA RESULT:      -9.0      1.372      1.486
REMARK  Name = 
REMARK  4 active torsions:
REMARK  status: ('A' for Active; 'I' for Inactive)
REMARK    1  A    between atoms: C_4  and  C_5
REMARK    2  A    between atoms: C_5  and  N_6
REMARK    3  A    between atoms: N_9  and  C_10
REMARK    4  A    between atoms: N_21  and  C_22
REMARK                            x       y       z     vdW  Elec       q    Type
REMARK                         _______ _______ _______ _____ _____    ______ ____
ROOT
ATOM      1  N   UNL     1       8.208   5.346  20.382  0.00  0.00    +0.000 N 
ATOM      2  C   UNL     1       7.975   5.841  19.114  0.00  0.00    +0.000 A 
ATOM      3  N   UNL     1       7.667   4.998  18.141  0.00  0.00    +0.000 NA
ATOM      4  C   UNL     1       7.445   5.575  16.951  0.00  0.00    +0.000 A 
ATOM      5  N   UNL     1       7.569   6.880  16.714  0.00  0.00    +0.000 NA
ATOM      6  C   UNL     1       7.940   7.622  17.749  0.00  0.00    +0.000 A 
ATOM      7  N   UNL     1       8.094   8.976  17.484  0.00  0.00    +0.000 N 
ATOM      8  N   UNL     1       8.138   7.139  18.966  0.00  0.00    +0.000 NA
ATOM      9  H   UNL     1       8.580   4.406  20.339  0.00  0.00    +0.000 HD
ATOM     10  H   UNL     1       8.726   6.027  20.920  0.00  0.00    +0.000 HD
ATOM     11  H   UNL     1       7.865   9.173  16.522  0.00  0.00    +0.000 HD
ENDROOT
BRANCH   7  12
ATOM     12  C   UNL     1       8.670  10.016  18.222  0.00  0.00    +0.000 A 
ATOM     13  C   UNL     1       9.216   9.849  19.503  0.00  0.00    +0.000 A 
ATOM     14  C   UNL     1       9.751  10.927  20.212  0.00  0.00    +0.000 A 
ATOM     15  C   UNL     1       9.744  12.194  19.644  0.00  0.00    +0.000 A 
ATOM     16  C   UNL     1       9.203  12.379  18.369  0.00  0.00    +0.000 A 
ATOM     17  C   UNL     1       8.639  11.306  17.680  0.00  0.00    +0.000 A 
ATOM     18  O   UNL     1       9.215  13.586  17.721  0.00  0.00    +0.000 OA
ATOM     19  C   UNL     1      10.250  14.414  18.265  0.00  0.00    +0.000 C 
ATOM     20  C   UNL     1      10.108  14.488  19.776  0.00  0.00    +0.000 C 
ATOM     21  O   UNL     1      10.313  13.204  20.377  0.00  0.00    +0.000 OA
ENDBRANCH   7  12
BRANCH   4  22
ATOM     22  C   UNL     1       7.013   4.710  15.775  0.00  0.00    +0.000 C 
BRANCH  22  23
ATOM     23  N   UNL     1       5.622   4.908  15.307  0.00  0.00    +0.000 NA
ATOM     24  C   UNL     1       4.678   3.909  15.856  0.00  0.00    +0.000 C 
ATOM     25  C   UNL     1       4.348   4.045  17.361  0.00  0.00    +0.000 C 
ATOM     26  N   UNL     1       3.902   5.415  17.662  0.00  0.00    +0.000 N 
ATOM     27  C   UNL     1       4.761   6.494  17.153  0.00  0.00    +0.000 C 
ATOM     28  C   UNL     1       5.123   6.258  15.661  0.00  0.00    +0.000 C 
BRANCH  26  29
ATOM     29  C   UNL     1       2.982   5.631  18.684  0.00  0.00    +0.000 A 
ATOM     30  C   UNL     1       2.563   4.559  19.492  0.00  0.00    +0.000 A 
ATOM     31  C   UNL     1       1.797   4.757  20.650  0.00  0.00    +0.000 A 
ATOM     32  C   UNL     1       1.402   6.038  21.020  0.00  0.00    +0.000 A 
ATOM     33  C   UNL     1       1.739   7.113  20.208  0.00  0.00    +0.000 A 
ATOM     34  C   UNL     1       2.510   6.907  19.062  0.00  0.00    +0.000 A 
ATOM     35  F   UNL     1       2.794   7.987  18.314  0.00  0.00    +0.000 F 
ENDBRANCH  26  29
ENDBRANCH  22  23
ENDBRANCH   4  22
TORSDOF 4
ENDMDL
MODEL 5
REMARK VINA RESULT:      -8.9      4.533     10.470
REMARK  Name = 
REMARK  4 active torsions:
REMARK  status: ('A' for Active; 'I' for Inactive)
REMARK    1  A    between atoms: C_4  and  C_5
REMARK    2  A    between atoms: C_5  and  N_6
REMARK    3  A    between atoms: N_9  and  C_10
REMARK    4  A    between atoms: N_21  and  C_22
REMARK                            x       y       z     vdW  Elec       q    Type
REMARK                         _______ _______ _______ _____ _____    ______ ____
ROOT
ATOM      1  N   UNL     1       8.745   5.403  19.801  0.00  0.00    +0.000 N 
ATOM      2  C   UNL     1       8.089   6.324  19.007  0.00  0.00    +0.000 A 
ATOM      3  N   UNL     1       8.594   7.541  18.882  0.00  0.00    +0.000 NA
ATOM      4  C   UNL     1       7.895   8.356  18.080  0.00  0.00    +0.000 A 
ATOM      5  N   UNL     1       6.749   8.024  17.485  0.00  0.00    +0.000 NA
ATOM      6  C   UNL     1       6.306   6.798  17.729  0.00  0.00    +0.000 A 
ATOM      7  N   UNL     1       5.099   6.472  17.127  0.00  0.00    +0.000 N 
ATOM      8  N   UNL     1       6.956   5.917  18.474  0.00  0.00    +0.000 NA
ATOM      9  H   UNL     1       9.244   5.865  20.551  0.00  0.00    +0.000 HD
ATOM     10  H   UNL     1       8.107   4.662  20.055  0.00  0.00    +0.000 HD
ATOM     11  H   UNL     1       4.767   7.243  16.568  0.00  0.00    +0.000 HD
ENDROOT
BRANCH   7  12
ATOM     12  C   UNL     1       4.218   5.401  17.312  0.00  0.00    +0.000 A 
ATOM     13  C   UNL     1       4.205   4.258  16.500  0.00  0.00    +0.000 A 
ATOM     14  C   UNL     1       3.282   3.229  16.706  0.00  0.00    +0.000 A 
ATOM     15  C   UNL     1       2.354   3.335  17.734  0.00  0.00    +0.000 A 
ATOM     16  C   UNL     1       2.353   4.467  18.552  0.00  0.00    +0.000 A 
ATOM     17  C   UNL     1       3.252   5.506  18.320  0.00  0.00    +0.000 A 
ATOM     18  O   UNL     1       1.507   4.615  19.620  0.00  0.00    +0.000 OA
ATOM     19  C   UNL     1       1.054   3.328  20.056  0.00  0.00    +0.000 C 
ATOM     20  C   UNL     1       0.484   2.557  18.877  0.00  0.00    +0.000 C 
ATOM     21  O   UNL     1       1.498   2.277  17.905  0.00  0.00    +0.000 OA
ENDBRANCH   7  12
BRANCH   4  22
ATOM     22  C   UNL     1       8.421   9.759  17.804  0.00  0.00    +0.000 C 
BRANCH  22  23
ATOM     23  N   UNL     1       9.656  10.135  18.528  0.00  0.00    +0.000 NA
ATOM     24  C   UNL     1      10.515  11.067  17.763  0.00  0.00    +0.000 C 
ATOM     25  C   UNL     1       9.984  12.512  17.618  0.00  0.00    +0.000 C 
ATOM     26  N   UNL     1       9.648  13.067  18.940  0.00  0.00    +0.000 N 
ATOM     27  C   UNL     1       8.805  12.218  19.794  0.00  0.00    +0.000 C 
ATOM     28  C   UNL     1       9.344  10.762  19.835  0.00  0.00    +0.000 C 
BRANCH  26  29
ATOM     29  C   UNL     1       9.782  14.433  19.167  0.00  0.00    +0.000 A 
ATOM     30  C   UNL     1       8.695  15.295  18.937  0.00  0.00    +0.000 A 
ATOM     31  C   UNL     1       8.715  16.639  19.336  0.00  0.00    +0.000 A 
ATOM     32  C   UNL     1       9.842  17.171  19.954  0.00  0.00    +0.000 A 
ATOM     33  C   UNL     1      10.960  16.368  20.134  0.00  0.00    +0.000 A 
ATOM     34  C   UNL     1      10.926  15.027  19.742  0.00  0.00    +0.000 A 
ATOM     35  F   UNL     1      12.044  14.306  19.935  0.00  0.00    +0.000 F 
ENDBRANCH  26  29
ENDBRANCH  22  23
ENDBRANCH   4  22
TORSDOF 4
ENDMDL
MODEL 6
REMARK VINA RESULT:      -8.9      5.451      8.085
REMARK  Name = 
REMARK  4 active torsions:
REMARK  status: ('A' for Active; 'I' for Inactive)
REMARK    1  A    between atoms: C_4  and  C_5
REMARK    2  A    between atoms: C_5  and  N_6
REMARK    3  A    between atoms: N_9  and  C_10
REMARK    4  A    between atoms: N_21  and  C_22
REMARK                            x       y       z     vdW  Elec       q    Type
REMARK                         _______ _______ _______ _____ _____    ______ ____
ROOT
ATOM      1  N   UNL     1       1.201   4.403  21.116  0.00  0.00    +0.000 N 
ATOM      2  C   UNL     1       2.073   5.211  20.412  0.00  0.00    +0.000 A 
ATOM      3  N   UNL     1       3.273   4.746  20.103  0.00  0.00    +0.000 NA
ATOM      4  C   UNL     1       4.040   5.598  19.408  0.00  0.00    +0.000 A 
ATOM      5  N   UNL     1       3.681   6.841  19.085  0.00  0.00    +0.000 NA
ATOM      6  C   UNL     1       2.479   7.220  19.499  0.00  0.00    +0.000 A 
ATOM      7  N   UNL     1       2.127   8.525  19.182  0.00  0.00    +0.000 N 
ATOM      8  N   UNL     1       1.643   6.428  20.153  0.00  0.00    +0.000 NA
ATOM      9  H   UNL     1       1.707   3.761  21.713  0.00  0.00    +0.000 HD
ATOM     10  H   UNL     1       0.486   4.972  21.546  0.00  0.00    +0.000 HD
ATOM     11  H   UNL     1       2.862   8.967  18.651  0.00  0.00    +0.000 HD
ENDROOT
BRANCH   7  12
ATOM     12  C   UNL     1       1.081   9.346  19.618  0.00  0.00    +0.000 A 
ATOM     13  C   UNL     1       0.135   9.919  18.756  0.00  0.00    +0.000 A 
ATOM     14  C   UNL     1      -0.873  10.759  19.237  0.00  0.00    +0.000 A 
ATOM     15  C   UNL     1      -0.944  11.038  20.596  0.00  0.00    +0.000 A 
ATOM     16  C   UNL     1      -0.009  10.476  21.468  0.00  0.00    +0.000 A 
ATOM     17  C   UNL     1       1.015   9.667  20.978  0.00  0.00    +0.000 A 
ATOM     18  O   UNL     1      -0.051  10.657  22.826  0.00  0.00    +0.000 OA
ATOM     19  C   UNL     1      -1.379  11.019  23.222  0.00  0.00    +0.000 C 
ATOM     20  C   UNL     1      -1.860  12.197  22.392  0.00  0.00    +0.000 C 
ATOM     21  O   UNL     1      -1.974  11.843  21.009  0.00  0.00    +0.000 OA
ENDBRANCH   7  12
BRANCH   4  22
ATOM     22  C   UNL     1       5.414   5.145  18.934  0.00  0.00    +0.000 C 
BRANCH  22  23
ATOM     23  N   UNL     1       6.134   6.091  18.052  0.00  0.00    +0.000 NA
ATOM     24  C   UNL     1       7.389   5.530  17.502  0.00  0.00    +0.000 C 
ATOM     25  C   UNL     1       7.225   4.427  16.431  0.00  0.00    +0.000 C 
ATOM     26  N   UNL     1       6.336   4.892  15.353  0.00  0.00    +0.000 N 
ATOM     27  C   UNL     1       5.060   5.481  15.785  0.00  0.00    +0.000 C 
ATOM     28  C   UNL     1       5.284   6.521  16.917  0.00  0.00    +0.000 C 
BRANCH  26  29
ATOM     29  C   UNL     1       6.528   4.429  14.055  0.00  0.00    +0.000 A 
ATOM     30  C   UNL     1       5.633   3.496  13.501  0.00  0.00    +0.000 A 
ATOM     31  C   UNL     1       5.666   3.151  12.143  0.00  0.00    +0.000 A 
ATOM     32  C   UNL     1       6.620   3.710  11.299  0.00  0.00    +0.000 A 
ATOM     33  C   UNL     1       7.564   4.582  11.826  0.00  0.00    +0.000 A 
ATOM     34  C   UNL     1       7.516   4.928  13.179  0.00  0.00    +0.000 A 
ATOM     35  F   UNL     1       8.463   5.768  13.628  0.00  0.00    +0.000 F 
ENDBRANCH  26  29
ENDBRANCH  22  23
ENDBRANCH   4  22
TORSDOF 4
ENDMDL
MODEL 7
REMARK VINA RESULT:      -8.8      5.465      8.117
REMARK  Name = 
REMARK  4 active torsions:
REMARK  status: ('A' for Active; 'I' for Inactive)
REMARK    1  A    between atoms: C_4  and  C_5
REMARK    2  A    between atoms: C_5  and  N_6
REMARK    3  A    between atoms: N_9  and  C_10
REMARK    4  A    between atoms: N_21  and  C_22
REMARK                            x       y       z     vdW  Elec       q    Type
REMARK                         _______ _______ _______ _____ _____    ______ ____
ROOT
ATOM      1  N   UNL     1       0.765   3.663  20.920  0.00  0.00    +0.000 N 
ATOM      2  C   UNL     1       1.726   4.544  20.463  0.00  0.00    +0.000 A 
ATOM      3  N   UNL     1       2.866   4.065  19.993  0.00  0.00    +0.000 NA
ATOM      4  C   UNL     1       3.728   4.996  19.560  0.00  0.00    +0.000 A 
ATOM      5  N   UNL     1       3.513   6.310  19.633  0.00  0.00    +0.000 NA
ATOM      6  C   UNL     1       2.361   6.677  20.177  0.00  0.00    +0.000 A 
ATOM      7  N   UNL     1       2.160   8.047  20.273  0.00  0.00    +0.000 N 
ATOM      8  N   UNL     1       1.438   5.822  20.591  0.00  0.00    +0.000 NA
ATOM      9  H   UNL     1       1.192   2.821  21.284  0.00  0.00    +0.000 HD
ATOM     10  H   UNL     1       0.118   4.152  21.522  0.00  0.00    +0.000 HD
ATOM     11  H   UNL     1       2.943   8.545  19.876  0.00  0.00    +0.000 HD
ENDROOT
BRANCH   7  12
ATOM     12  C   UNL     1       1.213   8.810  20.965  0.00  0.00    +0.000 A 
ATOM     13  C   UNL     1       0.778   8.513  22.266  0.00  0.00    +0.000 A 
ATOM     14  C   UNL     1      -0.195   9.288  22.902  0.00  0.00    +0.000 A 
ATOM     15  C   UNL     1      -0.750  10.374  22.238  0.00  0.00    +0.000 A 
ATOM     16  C   UNL     1      -0.329  10.683  20.942  0.00  0.00    +0.000 A 
ATOM     17  C   UNL     1       0.616   9.886  20.299  0.00  0.00    +0.000 A 
ATOM     18  O   UNL     1      -0.788  11.772  20.248  0.00  0.00    +0.000 OA
ATOM     19  C   UNL     1      -1.293  12.749  21.166  0.00  0.00    +0.000 C 
ATOM     20  C   UNL     1      -2.300  12.103  22.102  0.00  0.00    +0.000 C 
ATOM     21  O   UNL     1      -1.676  11.113  22.928  0.00  0.00    +0.000 OA
ENDBRANCH   7  12
BRANCH   4  22
ATOM     22  C   UNL     1       5.044   4.557  18.931  0.00  0.00    +0.000 C 
BRANCH  22  23
ATOM     23  N   UNL     1       5.782   5.605  18.189  0.00  0.00    +0.000 NA
ATOM     24  C   UNL     1       7.091   5.140  17.679  0.00  0.00    +0.000 C 
ATOM     25  C   UNL     1       7.041   4.136  16.503  0.00  0.00    +0.000 C 
ATOM     26  N   UNL     1       6.207   4.670  15.413  0.00  0.00    +0.000 N 
ATOM     27  C   UNL     1       4.883   5.173  15.808  0.00  0.00    +0.000 C 
ATOM     28  C   UNL     1       4.992   6.110  17.042  0.00  0.00    +0.000 C 
BRANCH  26  29
ATOM     29  C   UNL     1       6.501   4.335  14.095  0.00  0.00    +0.000 A 
ATOM     30  C   UNL     1       5.727   3.373  13.423  0.00  0.00    +0.000 A 
ATOM     31  C   UNL     1       5.855   3.146  12.046  0.00  0.00    +0.000 A 
ATOM     32  C   UNL     1       6.788   3.859  11.300  0.00  0.00    +0.000 A 
ATOM     33  C   UNL     1       7.618   4.768  11.943  0.00  0.00    +0.000 A 
ATOM     34  C   UNL     1       7.476   4.994  13.315  0.00  0.00    +0.000 A 
ATOM     35  F   UNL     1       8.317   5.878  13.878  0.00  0.00    +0.000 F 
ENDBRANCH  26  29
ENDBRANCH  22  23
ENDBRANCH   4  22
TORSDOF 4
ENDMDL
MODEL 8
REMARK VINA RESULT:      -8.8      5.886      7.461
REMARK  Name = 
REMARK  4 active torsions:
REMARK  status: ('A' for Active; 'I' for Inactive)
REMARK    1  A    between atoms: C_4  and  C_5
REMARK    2  A    between atoms: C_5  and  N_6
REMARK    3  A    between atoms: N_9  and  C_10
REMARK    4  A    between atoms: N_21  and  C_22
REMARK                            x       y       z     vdW  Elec       q    Type
REMARK                         _______ _______ _______ _____ _____    ______ ____
ROOT
ATOM      1  N   UNL     1       1.206   8.436  21.952  0.00  0.00    +0.000 N 
ATOM      2  C   UNL     1       1.575   8.416  20.621  0.00  0.00    +0.000 A 
ATOM      3  N   UNL     1       2.016   7.285  20.093  0.00  0.00    +0.000 NA
ATOM      4  C   UNL     1       2.334   7.363  18.793  0.00  0.00    +0.000 A 
ATOM      5  N   UNL     1       2.280   8.482  18.072  0.00  0.00    +0.000 NA
ATOM      6  C   UNL     1       1.881   9.568  18.720  0.00  0.00    +0.000 A 
ATOM      7  N   UNL     1       1.855  10.734  17.967  0.00  0.00    +0.000 N 
ATOM      8  N   UNL     1       1.508   9.569  19.991  0.00  0.00    +0.000 NA
ATOM      9  H   UNL     1       1.738   7.757  22.484  0.00  0.00    +0.000 HD
ATOM     10  H   UNL     1       1.204   9.388  22.288  0.00  0.00    +0.000 HD
ATOM     11  H   UNL     1       2.131  10.542  17.016  0.00  0.00    +0.000 HD
ENDROOT
BRANCH   7  12
ATOM     12  C   UNL     1       1.718  12.079  18.326  0.00  0.00    +0.000 A 
ATOM     13  C   UNL     1       2.712  13.045  18.111  0.00  0.00    +0.000 A 
ATOM     14  C   UNL     1       2.538  14.371  18.517  0.00  0.00    +0.000 A 
ATOM     15  C   UNL     1       1.360  14.746  19.149  0.00  0.00    +0.000 A 
ATOM     16  C   UNL     1       0.360  13.797  19.372  0.00  0.00    +0.000 A 
ATOM     17  C   UNL     1       0.553  12.469  18.996  0.00  0.00    +0.000 A 
ATOM     18  O   UNL     1      -0.850  14.106  19.935  0.00  0.00    +0.000 OA
ATOM     19  C   UNL     1      -1.114  15.504  19.771  0.00  0.00    +0.000 C 
ATOM     20  C   UNL     1       0.066  16.314  20.280  0.00  0.00    +0.000 C 
ATOM     21  O   UNL     1       1.238  16.068  19.494  0.00  0.00    +0.000 OA
ENDBRANCH   7  12
BRANCH   4  22
ATOM     22  C   UNL     1       2.784   6.105  18.061  0.00  0.00    +0.000 C 
BRANCH  22  23
ATOM     23  N   UNL     1       4.209   5.740  18.227  0.00  0.00    +0.000 NA
ATOM     24  C   UNL     1       4.493   4.333  17.864  0.00  0.00    +0.000 C 
ATOM     25  C   UNL     1       4.431   3.998  16.356  0.00  0.00    +0.000 C 
ATOM     26  N   UNL     1       5.284   4.924  15.593  0.00  0.00    +0.000 N 
ATOM     27  C   UNL     1       5.095   6.353  15.881  0.00  0.00    +0.000 C 
ATOM     28  C   UNL     1       5.086   6.614  17.412  0.00  0.00    +0.000 C 
BRANCH  26  29
ATOM     29  C   UNL     1       5.900   4.487  14.424  0.00  0.00    +0.000 A 
ATOM     30  C   UNL     1       5.200   3.666  13.522  0.00  0.00    +0.000 A 
ATOM     31  C   UNL     1       5.702   3.365  12.248  0.00  0.00    +0.000 A 
ATOM     32  C   UNL     1       6.941   3.854  11.848  0.00  0.00    +0.000 A 
ATOM     33  C   UNL     1       7.692   4.610  12.738  0.00  0.00    +0.000 A 
ATOM     34  C   UNL     1       7.178   4.913  14.002  0.00  0.00    +0.000 A 
ATOM     35  F   UNL     1       7.959   5.639  14.820  0.00  0.00    +0.000 F 
ENDBRANCH  26  29
ENDBRANCH  22  23
ENDBRANCH   4  22
TORSDOF 4
ENDMDL
MODEL 9
REMARK VINA RESULT:      -8.7      5.244      8.025
REMARK  Name = 
REMARK  4 active torsions:
REMARK  status: ('A' for Active; 'I' for Inactive)
REMARK    1  A    between atoms: C_4  and  C_5
REMARK    2  A    between atoms: C_5  and  N_6
REMARK    3  A    between atoms: N_9  and  C_10
REMARK    4  A    between atoms: N_21  and  C_22
REMARK                            x       y       z     vdW  Elec       q    Type
REMARK                         _______ _______ _______ _____ _____    ______ ____
ROOT
ATOM      1  N   UNL     1       0.713   4.071  20.602  0.00  0.00    +0.000 N 
ATOM      2  C   UNL     1       1.739   4.884  20.159  0.00  0.00    +0.000 A 
ATOM      3  N   UNL     1       2.943   4.361  19.983  0.00  0.00    +0.000 NA
ATOM      4  C   UNL     1       3.866   5.224  19.538  0.00  0.00    +0.000 A 
ATOM      5  N   UNL     1       3.645   6.522  19.332  0.00  0.00    +0.000 NA
ATOM      6  C   UNL     1       2.417   6.948  19.599  0.00  0.00    +0.000 A 
ATOM      7  N   UNL     1       2.205   8.306  19.408  0.00  0.00    +0.000 N 
ATOM      8  N   UNL     1       1.436   6.154  20.001  0.00  0.00    +0.000 NA
ATOM      9  H   UNL     1       1.071   3.321  21.180  0.00  0.00    +0.000 HD
ATOM     10  H   UNL     1      -0.026   4.642  20.986  0.00  0.00    +0.000 HD
ATOM     11  H   UNL     1       3.045   8.747  19.064  0.00  0.00    +0.000 HD
ENDROOT
BRANCH   7  12
ATOM     12  C   UNL     1       1.155   9.152  19.779  0.00  0.00    +0.000 A 
ATOM     13  C   UNL     1       0.238   9.697  18.868  0.00  0.00    +0.000 A 
ATOM     14  C   UNL     1      -0.775  10.564  19.285  0.00  0.00    +0.000 A 
ATOM     15  C   UNL     1      -0.882  10.899  20.629  0.00  0.00    +0.000 A 
ATOM     16  C   UNL     1       0.023  10.365  21.550  0.00  0.00    +0.000 A 
ATOM     17  C   UNL     1       1.053   9.529  21.123  0.00  0.00    +0.000 A 
ATOM     18  O   UNL     1      -0.057  10.603  22.898  0.00  0.00    +0.000 OA
ATOM     19  C   UNL     1      -1.392  10.990  23.240  0.00  0.00    +0.000 C 
ATOM     20  C   UNL     1      -1.839  12.138  22.349  0.00  0.00    +0.000 C 
ATOM     21  O   UNL     1      -1.917  11.728  20.979  0.00  0.00    +0.000 OA
ENDBRANCH   7  12
BRANCH   4  22
ATOM     22  C   UNL     1       5.270   4.719  19.230  0.00  0.00    +0.000 C 
BRANCH  22  23
ATOM     23  N   UNL     1       6.183   5.701  18.603  0.00  0.00    +0.000 NA
ATOM     24  C   UNL     1       7.380   5.074  17.996  0.00  0.00    +0.000 C 
ATOM     25  C   UNL     1       7.134   4.257  16.706  0.00  0.00    +0.000 C 
ATOM     26  N   UNL     1       6.405   5.071  15.719  0.00  0.00    +0.000 N 
ATOM     27  C   UNL     1       5.200   5.753  16.217  0.00  0.00    +0.000 C 
ATOM     28  C   UNL     1       5.491   6.486  17.555  0.00  0.00    +0.000 C 
BRANCH  26  29
ATOM     29  C   UNL     1       6.620   4.863  14.360  0.00  0.00    +0.000 A 
ATOM     30  C   UNL     1       7.673   5.525  13.704  0.00  0.00    +0.000 A 
ATOM     31  C   UNL     1       8.052   5.201  12.394  0.00  0.00    +0.000 A 
ATOM     32  C   UNL     1       7.367   4.220  11.687  0.00  0.00    +0.000 A 
ATOM     33  C   UNL     1       6.278   3.593  12.278  0.00  0.00    +0.000 A 
ATOM     34  C   UNL     1       5.914   3.916  13.588  0.00  0.00    +0.000 A 
ATOM     35  F   UNL     1       4.845   3.281  14.098  0.00  0.00    +0.000 F 
ENDBRANCH  26  29
ENDBRANCH  22  23
ENDBRANCH   4  22
TORSDOF 4
ENDMDL
