MODEL 1
REMARK VINA RESULT:      -7.9      0.000      0.000
REMARK  Name = 
REMARK  5 active torsions:
REMARK  status: ('A' for Active; 'I' for Inactive)
REMARK    1  A    between atoms: C_1  and  C_2
REMARK    2  A    between atoms: C_7  and  N_8
REMARK    3  A    between atoms: N_8  and  C_9
REMARK    4  A    between atoms: N_22  and  C_23
REMARK    5  A    between atoms: C_23  and  C_24
REMARK                            x       y       z     vdW  Elec       q    Type
REMARK                         _______ _______ _______ _____ _____    ______ ____
ROOT
ATOM      1  C   UNL     1       3.511   7.053  17.675  0.00  0.00    +0.000 A 
ATOM      2  N   UNL     1       3.531   5.842  18.293  0.00  0.00    +0.000 NA
ATOM      3  C   UNL     1       2.701   5.637  19.308  0.00  0.00    +0.000 A 
ATOM      4  N   UNL     1       2.554   4.378  19.813  0.00  0.00    +0.000 N 
ATOM      5  C   UNL     1       1.284   3.943  20.355  0.00  0.00    +0.000 C 
ATOM      6  C   UNL     1       0.560   3.060  19.343  0.00  0.00    +0.000 C 
ATOM      7  C   UNL     1       1.346   1.873  18.773  0.00  0.00    +0.000 C 
ATOM      8  N   UNL     1       2.493   1.387  19.549  0.00  0.00    +0.000 NA
ATOM      9  C   UNL     1       3.687   2.232  19.309  0.00  0.00    +0.000 C 
ATOM     10  C   UNL     1       3.726   3.561  20.081  0.00  0.00    +0.000 C 
ATOM     11  N   UNL     1       1.931   6.606  19.820  0.00  0.00    +0.000 NA
ATOM     12  C   UNL     1       2.018   7.847  19.293  0.00  0.00    +0.000 A 
ATOM     13  C   UNL     1       1.296   8.927  19.839  0.00  0.00    +0.000 A 
ATOM     14  N   UNL     1       0.563   8.780  21.028  0.00  0.00    +0.000 N 
ATOM     15  N   UNL     1       1.323  10.168  19.293  0.00  0.00    +0.000 NA
ATOM     16  C   UNL     1       2.066  10.327  18.203  0.00  0.00    +0.000 A 
ATOM     17  N   UNL     1       2.805   9.384  17.600  0.00  0.00    +0.000 NA
ATOM     18  C   UNL     1       2.785   8.152  18.175  0.00  0.00    +0.000 A 
ATOM     19  H   UNL     1       2.718   0.451  19.208  0.00  0.00    +0.000 HD
ATOM     20  H   UNL     1       0.541   7.835  21.402  0.00  0.00    +0.000 HD
ENDROOT
BRANCH   1  21
ATOM     21  N   UNL     1       4.257   7.191  16.448  0.00  0.00    +0.000 N 
ATOM     22  H   UNL     1       3.617   7.463  15.696  0.00  0.00    +0.000 HD
BRANCH  21  29
ATOM     23  C   UNL     1       7.098   7.116  17.509  0.00  0.00    +0.000 C 
ATOM     24  C   UNL     1       6.549   6.191  16.464  0.00  0.00    +0.000 A 
ATOM     25  C   UNL     1       7.450   5.237  15.935  0.00  0.00    +0.000 A 
ATOM     26  C   UNL     1       7.058   4.327  14.957  0.00  0.00    +0.000 A 
ATOM     27  C   UNL     1       5.762   4.359  14.481  0.00  0.00    +0.000 A 
ATOM     28  C   UNL     1       4.862   5.303  14.983  0.00  0.00    +0.000 A 
ATOM     29  C   UNL     1       5.211   6.219  15.989  0.00  0.00    +0.000 A 
ENDBRANCH  21  29
ENDBRANCH   1  21
BRANCH  14  30
ATOM     30  C   UNL     1      -0.588   9.648  21.220  0.00  0.00    +0.000 C 
BRANCH  30  31
ATOM     31  C   UNL     1      -0.380  10.571  22.390  0.00  0.00    +0.000 C 
ATOM     32  C   UNL     1      -0.573  12.053  22.218  0.00  0.00    +0.000 C 
ATOM     33  C   UNL     1      -1.565  11.273  23.027  0.00  0.00    +0.000 C 
ENDBRANCH  30  31
ENDBRANCH  14  30
TORSDOF 4
ENDMDL
MODEL 2
REMARK VINA RESULT:      -7.1      4.332      8.495
REMARK  Name = 
REMARK  5 active torsions:
REMARK  status: ('A' for Active; 'I' for Inactive)
REMARK    1  A    between atoms: C_1  and  C_2
REMARK    2  A    between atoms: C_7  and  N_8
REMARK    3  A    between atoms: N_8  and  C_9
REMARK    4  A    between atoms: N_22  and  C_23
REMARK    5  A    between atoms: C_23  and  C_24
REMARK                            x       y       z     vdW  Elec       q    Type
REMARK                         _______ _______ _______ _____ _____    ______ ____
ROOT
ATOM      1  C   UNL     1      -0.334  11.465  18.853  0.00  0.00    +0.000 A 
ATOM      2  N   UNL     1      -0.294  12.555  19.665  0.00  0.00    +0.000 NA
ATOM      3  C   UNL     1      -1.435  13.170  19.952  0.00  0.00    +0.000 A 
ATOM      4  N   UNL     1      -1.455  14.134  20.918  0.00  0.00    +0.000 N 
ATOM      5  C   UNL     1      -2.627  14.327  21.746  0.00  0.00    +0.000 C 
ATOM      6  C   UNL     1      -2.408  13.693  23.115  0.00  0.00    +0.000 C 
ATOM      7  C   UNL     1      -1.135  14.095  23.870  0.00  0.00    +0.000 C 
ATOM      8  N   UNL     1      -0.493  15.358  23.486  0.00  0.00    +0.000 NA
ATOM      9  C   UNL     1       0.339  15.179  22.272  0.00  0.00    +0.000 C 
ATOM     10  C   UNL     1      -0.427  15.162  20.939  0.00  0.00    +0.000 C 
ATOM     11  N   UNL     1      -2.601  12.833  19.387  0.00  0.00    +0.000 NA
ATOM     12  C   UNL     1      -2.613  11.839  18.472  0.00  0.00    +0.000 A 
ATOM     13  C   UNL     1      -3.792  11.492  17.781  0.00  0.00    +0.000 A 
ATOM     14  N   UNL     1      -4.963  12.252  17.924  0.00  0.00    +0.000 N 
ATOM     15  N   UNL     1      -3.840  10.461  16.902  0.00  0.00    +0.000 NA
ATOM     16  C   UNL     1      -2.716   9.779  16.716  0.00  0.00    +0.000 A 
ATOM     17  N   UNL     1      -1.534  10.019  17.301  0.00  0.00    +0.000 NA
ATOM     18  C   UNL     1      -1.497  11.071  18.162  0.00  0.00    +0.000 A 
ATOM     19  H   UNL     1       0.139  15.622  24.244  0.00  0.00    +0.000 HD
ATOM     20  H   UNL     1      -4.906  13.003  18.607  0.00  0.00    +0.000 HD
ENDROOT
BRANCH   1  21
ATOM     21  N   UNL     1       0.872  10.684  18.722  0.00  0.00    +0.000 N 
ATOM     22  H   UNL     1       1.067  10.534  17.728  0.00  0.00    +0.000 HD
BRANCH  21  29
ATOM     23  C   UNL     1       2.599   8.436  17.641  0.00  0.00    +0.000 C 
ATOM     24  C   UNL     1       1.919   8.427  18.978  0.00  0.00    +0.000 A 
ATOM     25  C   UNL     1       2.094   7.264  19.762  0.00  0.00    +0.000 A 
ATOM     26  C   UNL     1       1.509   7.136  21.019  0.00  0.00    +0.000 A 
ATOM     27  C   UNL     1       0.728   8.165  21.512  0.00  0.00    +0.000 A 
ATOM     28  C   UNL     1       0.535   9.316  20.744  0.00  0.00    +0.000 A 
ATOM     29  C   UNL     1       1.130   9.494  19.485  0.00  0.00    +0.000 A 
ENDBRANCH  21  29
ENDBRANCH   1  21
BRANCH  14  30
ATOM     30  C   UNL     1      -6.234  11.574  17.720  0.00  0.00    +0.000 C 
BRANCH  30  31
ATOM     31  C   UNL     1      -6.785  11.055  19.021  0.00  0.00    +0.000 C 
ATOM     32  C   UNL     1      -6.287  11.621  20.324  0.00  0.00    +0.000 C 
ATOM     33  C   UNL     1      -7.682  11.934  19.872  0.00  0.00    +0.000 C 
ENDBRANCH  30  31
ENDBRANCH  14  30
TORSDOF 4
ENDMDL
MODEL 3
REMARK VINA RESULT:      -7.0      4.271     10.876
REMARK  Name = 
REMARK  5 active torsions:
REMARK  status: ('A' for Active; 'I' for Inactive)
REMARK    1  A    between atoms: C_1  and  C_2
REMARK    2  A    between atoms: C_7  and  N_8
REMARK    3  A    between atoms: N_8  and  C_9
REMARK    4  A    between atoms: N_22  and  C_23
REMARK    5  A    between atoms: C_23  and  C_24
REMARK                            x       y       z     vdW  Elec       q    Type
REMARK                         _______ _______ _______ _____ _____    ______ ____
ROOT
ATOM      1  C   UNL     1      -3.134  12.451  19.805  0.00  0.00    +0.000 A 
ATOM      2  N   UNL     1      -2.507  13.023  20.866  0.00  0.00    +0.000 NA
ATOM      3  C   UNL     1      -1.208  12.802  21.028  0.00  0.00    +0.000 A 
ATOM      4  N   UNL     1      -0.514  13.519  21.958  0.00  0.00    +0.000 N 
ATOM      5  C   UNL     1       0.876  13.863  21.741  0.00  0.00    +0.000 C 
ATOM      6  C   UNL     1       0.990  15.316  21.294  0.00  0.00    +0.000 C 
ATOM      7  C   UNL     1       0.299  16.367  22.172  0.00  0.00    +0.000 C 
ATOM      8  N   UNL     1       0.014  16.001  23.564  0.00  0.00    +0.000 NA
ATOM      9  C   UNL     1      -1.221  15.185  23.652  0.00  0.00    +0.000 C 
ATOM     10  C   UNL     1      -1.061  13.699  23.293  0.00  0.00    +0.000 C 
ATOM     11  N   UNL     1      -0.519  11.950  20.259  0.00  0.00    +0.000 NA
ATOM     12  C   UNL     1      -1.176  11.274  19.291  0.00  0.00    +0.000 A 
ATOM     13  C   UNL     1      -0.526  10.304  18.503  0.00  0.00    +0.000 A 
ATOM     14  N   UNL     1       0.793   9.913  18.781  0.00  0.00    +0.000 N 
ATOM     15  N   UNL     1      -1.151   9.655  17.489  0.00  0.00    +0.000 NA
ATOM     16  C   UNL     1      -2.420   9.978  17.263  0.00  0.00    +0.000 A 
ATOM     17  N   UNL     1      -3.148  10.871  17.949  0.00  0.00    +0.000 NA
ATOM     18  C   UNL     1      -2.513  11.494  18.978  0.00  0.00    +0.000 A 
ATOM     19  H   UNL     1      -0.165  16.867  24.076  0.00  0.00    +0.000 HD
ATOM     20  H   UNL     1       1.245  10.431  19.529  0.00  0.00    +0.000 HD
ENDROOT
BRANCH   1  21
ATOM     21  N   UNL     1      -4.485  12.869  19.520  0.00  0.00    +0.000 N 
ATOM     22  H   UNL     1      -4.501  13.885  19.391  0.00  0.00    +0.000 HD
BRANCH  21  29
ATOM     23  C   UNL     1      -6.510  10.932  18.357  0.00  0.00    +0.000 C 
ATOM     24  C   UNL     1      -6.590  11.535  19.728  0.00  0.00    +0.000 A 
ATOM     25  C   UNL     1      -7.714  11.175  20.507  0.00  0.00    +0.000 A 
ATOM     26  C   UNL     1      -7.900  11.673  21.794  0.00  0.00    +0.000 A 
ATOM     27  C   UNL     1      -6.973  12.550  22.323  0.00  0.00    +0.000 A 
ATOM     28  C   UNL     1      -5.863  12.926  21.562  0.00  0.00    +0.000 A 
ATOM     29  C   UNL     1      -5.625  12.425  20.272  0.00  0.00    +0.000 A 
ENDBRANCH  21  29
ENDBRANCH   1  21
BRANCH  14  30
ATOM     30  C   UNL     1       1.597   9.421  17.672  0.00  0.00    +0.000 C 
BRANCH  30  31
ATOM     31  C   UNL     1       2.625   8.431  18.147  0.00  0.00    +0.000 C 
ATOM     32  C   UNL     1       2.296   7.495  19.279  0.00  0.00    +0.000 C 
ATOM     33  C   UNL     1       2.431   6.948  17.890  0.00  0.00    +0.000 C 
ENDBRANCH  30  31
ENDBRANCH  14  30
TORSDOF 4
ENDMDL
MODEL 4
REMARK VINA RESULT:      -6.8      4.587      8.670
REMARK  Name = 
REMARK  5 active torsions:
REMARK  status: ('A' for Active; 'I' for Inactive)
REMARK    1  A    between atoms: C_1  and  C_2
REMARK    2  A    between atoms: C_7  and  N_8
REMARK    3  A    between atoms: N_8  and  C_9
REMARK    4  A    between atoms: N_22  and  C_23
REMARK    5  A    between atoms: C_23  and  C_24
REMARK                            x       y       z     vdW  Elec       q    Type
REMARK                         _______ _______ _______ _____ _____    ______ ____
ROOT
ATOM      1  C   UNL     1      -0.537  11.933  18.810  0.00  0.00    +0.000 A 
ATOM      2  N   UNL     1      -0.605  13.016  19.629  0.00  0.00    +0.000 NA
ATOM      3  C   UNL     1      -1.793  13.386  20.090  0.00  0.00    +0.000 A 
ATOM      4  N   UNL     1      -1.870  14.336  21.066  0.00  0.00    +0.000 N 
ATOM      5  C   UNL     1      -2.924  14.292  22.059  0.00  0.00    +0.000 C 
ATOM      6  C   UNL     1      -2.383  13.731  23.370  0.00  0.00    +0.000 C 
ATOM      7  C   UNL     1      -1.124  14.396  23.940  0.00  0.00    +0.000 C 
ATOM      8  N   UNL     1      -0.819  15.760  23.493  0.00  0.00    +0.000 NA
ATOM      9  C   UNL     1      -0.153  15.743  22.168  0.00  0.00    +0.000 C 
ATOM     10  C   UNL     1      -1.084  15.553  20.960  0.00  0.00    +0.000 C 
ATOM     11  N   UNL     1      -2.935  12.810  19.692  0.00  0.00    +0.000 NA
ATOM     12  C   UNL     1      -2.875  11.825  18.769  0.00  0.00    +0.000 A 
ATOM     13  C   UNL     1      -4.044  11.235  18.249  0.00  0.00    +0.000 A 
ATOM     14  N   UNL     1      -5.314  11.739  18.575  0.00  0.00    +0.000 N 
ATOM     15  N   UNL     1      -4.007  10.207  17.366  0.00  0.00    +0.000 NA
ATOM     16  C   UNL     1      -2.806   9.769  17.006  0.00  0.00    +0.000 A 
ATOM     17  N   UNL     1      -1.626  10.254  17.420  0.00  0.00    +0.000 NA
ATOM     18  C   UNL     1      -1.682  11.300  18.286  0.00  0.00    +0.000 A 
ATOM     19  H   UNL     1      -0.151  16.156  24.156  0.00  0.00    +0.000 HD
ATOM     20  H   UNL     1      -5.314  12.492  19.256  0.00  0.00    +0.000 HD
ENDROOT
BRANCH   1  21
ATOM     21  N   UNL     1       0.772  11.416  18.491  0.00  0.00    +0.000 N 
ATOM     22  H   UNL     1       0.994  11.646  17.519  0.00  0.00    +0.000 HD
BRANCH  21  29
ATOM     23  C   UNL     1       0.437  10.273  21.281  0.00  0.00    +0.000 C 
ATOM     24  C   UNL     1       1.063   9.547  20.127  0.00  0.00    +0.000 A 
ATOM     25  C   UNL     1       1.545   8.244  20.393  0.00  0.00    +0.000 A 
ATOM     26  C   UNL     1       2.149   7.474  19.403  0.00  0.00    +0.000 A 
ATOM     27  C   UNL     1       2.294   7.995  18.131  0.00  0.00    +0.000 A 
ATOM     28  C   UNL     1       1.835   9.286  17.855  0.00  0.00    +0.000 A 
ATOM     29  C   UNL     1       1.196  10.083  18.818  0.00  0.00    +0.000 A 
ENDBRANCH  21  29
ENDBRANCH   1  21
BRANCH  14  30
ATOM     30  C   UNL     1      -6.434  10.811  18.543  0.00  0.00    +0.000 C 
BRANCH  30  31
ATOM     31  C   UNL     1      -6.580  10.095  19.858  0.00  0.00    +0.000 C 
ATOM     32  C   UNL     1      -7.916  10.067  20.550  0.00  0.00    +0.000 C 
ATOM     33  C   UNL     1      -7.379   8.807  19.940  0.00  0.00    +0.000 C 
ENDBRANCH  30  31
ENDBRANCH  14  30
TORSDOF 4
ENDMDL
MODEL 5
REMARK VINA RESULT:      -6.8      4.235     10.867
REMARK  Name = 
REMARK  5 active torsions:
REMARK  status: ('A' for Active; 'I' for Inactive)
REMARK    1  A    between atoms: C_1  and  C_2
REMARK    2  A    between atoms: C_7  and  N_8
REMARK    3  A    between atoms: N_8  and  C_9
REMARK    4  A    between atoms: N_22  and  C_23
REMARK    5  A    between atoms: C_23  and  C_24
REMARK                            x       y       z     vdW  Elec       q    Type
REMARK                         _______ _______ _______ _____ _____    ______ ____
ROOT
ATOM      1  C   UNL     1      -3.102  12.492  19.713  0.00  0.00    +0.000 A 
ATOM      2  N   UNL     1      -2.503  13.054  20.796  0.00  0.00    +0.000 NA
ATOM      3  C   UNL     1      -1.218  12.799  21.011  0.00  0.00    +0.000 A 
ATOM      4  N   UNL     1      -0.543  13.504  21.965  0.00  0.00    +0.000 N 
ATOM      5  C   UNL     1       0.863  13.809  21.801  0.00  0.00    +0.000 C 
ATOM      6  C   UNL     1       1.034  15.256  21.351  0.00  0.00    +0.000 C 
ATOM      7  C   UNL     1       0.337  16.331  22.196  0.00  0.00    +0.000 C 
ATOM      8  N   UNL     1      -0.014  15.982  23.577  0.00  0.00    +0.000 NA
ATOM      9  C   UNL     1      -1.272  15.199  23.620  0.00  0.00    +0.000 C 
ATOM     10  C   UNL     1      -1.138  13.707  23.275  0.00  0.00    +0.000 C 
ATOM     11  N   UNL     1      -0.522  11.925  20.275  0.00  0.00    +0.000 NA
ATOM     12  C   UNL     1      -1.158  11.260  19.285  0.00  0.00    +0.000 A 
ATOM     13  C   UNL     1      -0.503  10.268  18.529  0.00  0.00    +0.000 A 
ATOM     14  N   UNL     1       0.793   9.844  18.862  0.00  0.00    +0.000 N 
ATOM     15  N   UNL     1      -1.104   9.630  17.495  0.00  0.00    +0.000 NA
ATOM     16  C   UNL     1      -2.353   9.984  17.216  0.00  0.00    +0.000 A 
ATOM     17  N   UNL     1      -3.084  10.901  17.867  0.00  0.00    +0.000 NA
ATOM     18  C   UNL     1      -2.474  11.513  18.917  0.00  0.00    +0.000 A 
ATOM     19  H   UNL     1      -0.189  16.855  24.077  0.00  0.00    +0.000 HD
ATOM     20  H   UNL     1       1.228  10.355  19.625  0.00  0.00    +0.000 HD
ENDROOT
BRANCH   1  21
ATOM     21  N   UNL     1      -4.429  12.944  19.372  0.00  0.00    +0.000 N 
ATOM     22  H   UNL     1      -4.431  13.967  19.321  0.00  0.00    +0.000 HD
BRANCH  21  29
ATOM     23  C   UNL     1      -5.663  14.364  21.752  0.00  0.00    +0.000 C 
ATOM     24  C   UNL     1      -6.191  13.101  21.139  0.00  0.00    +0.000 A 
ATOM     25  C   UNL     1      -7.337  12.539  21.749  0.00  0.00    +0.000 A 
ATOM     26  C   UNL     1      -7.917  11.366  21.273  0.00  0.00    +0.000 A 
ATOM     27  C   UNL     1      -7.356  10.726  20.184  0.00  0.00    +0.000 A 
ATOM     28  C   UNL     1      -6.217  11.260  19.577  0.00  0.00    +0.000 A 
ATOM     29  C   UNL     1      -5.619  12.455  20.010  0.00  0.00    +0.000 A 
ENDBRANCH  21  29
ENDBRANCH   1  21
BRANCH  14  30
ATOM     30  C   UNL     1       1.627   9.324  17.789  0.00  0.00    +0.000 C 
BRANCH  30  31
ATOM     31  C   UNL     1       2.623   8.325  18.314  0.00  0.00    +0.000 C 
ATOM     32  C   UNL     1       2.379   6.853  18.125  0.00  0.00    +0.000 C 
ATOM     33  C   UNL     1       3.475   7.520  17.351  0.00  0.00    +0.000 C 
ENDBRANCH  30  31
ENDBRANCH  14  30
TORSDOF 4
ENDMDL
MODEL 6
REMARK VINA RESULT:      -6.6      4.158      8.399
REMARK  Name = 
REMARK  5 active torsions:
REMARK  status: ('A' for Active; 'I' for Inactive)
REMARK    1  A    between atoms: C_1  and  C_2
REMARK    2  A    between atoms: C_7  and  N_8
REMARK    3  A    between atoms: N_8  and  C_9
REMARK    4  A    between atoms: N_22  and  C_23
REMARK    5  A    between atoms: C_23  and  C_24
REMARK                            x       y       z     vdW  Elec       q    Type
REMARK                         _______ _______ _______ _____ _____    ______ ____
ROOT
ATOM      1  C   UNL     1      -0.033  11.336  18.411  0.00  0.00    +0.000 A 
ATOM      2  N   UNL     1       0.339  12.575  18.828  0.00  0.00    +0.000 NA
ATOM      3  C   UNL     1      -0.609  13.423  19.211  0.00  0.00    +0.000 A 
ATOM      4  N   UNL     1      -0.258  14.592  19.822  0.00  0.00    +0.000 N 
ATOM      5  C   UNL     1      -1.110  15.182  20.833  0.00  0.00    +0.000 C 
ATOM      6  C   UNL     1      -0.550  14.892  22.221  0.00  0.00    +0.000 C 
ATOM      7  C   UNL     1       0.920  15.258  22.465  0.00  0.00    +0.000 C 
ATOM      8  N   UNL     1       1.523  16.257  21.575  0.00  0.00    +0.000 NA
ATOM      9  C   UNL     1       1.939  15.638  20.294  0.00  0.00    +0.000 C 
ATOM     10  C   UNL     1       0.813  15.406  19.272  0.00  0.00    +0.000 C 
ATOM     11  N   UNL     1      -1.914  13.150  19.093  0.00  0.00    +0.000 NA
ATOM     12  C   UNL     1      -2.282  11.971  18.546  0.00  0.00    +0.000 A 
ATOM     13  C   UNL     1      -3.637  11.659  18.320  0.00  0.00    +0.000 A 
ATOM     14  N   UNL     1      -4.644  12.613  18.535  0.00  0.00    +0.000 N 
ATOM     15  N   UNL     1      -4.032  10.460  17.825  0.00  0.00    +0.000 NA
ATOM     16  C   UNL     1      -3.077   9.576  17.560  0.00  0.00    +0.000 A 
ATOM     17  N   UNL     1      -1.758   9.759  17.720  0.00  0.00    +0.000 NA
ATOM     18  C   UNL     1      -1.378  10.976  18.194  0.00  0.00    +0.000 A 
ATOM     19  H   UNL     1       2.372  16.597  22.030  0.00  0.00    +0.000 HD
ATOM     20  H   UNL     1      -4.323  13.493  18.928  0.00  0.00    +0.000 HD
ENDROOT
BRANCH   1  21
ATOM     21  N   UNL     1       1.009  10.359  18.205  0.00  0.00    +0.000 N 
ATOM     22  H   UNL     1       0.962  10.020  17.240  0.00  0.00    +0.000 HD
BRANCH  21  29
ATOM     23  C   UNL     1       2.767   8.009  17.436  0.00  0.00    +0.000 C 
ATOM     24  C   UNL     1       2.080   8.168  18.760  0.00  0.00    +0.000 A 
ATOM     25  C   UNL     1       2.264   7.121  19.692  0.00  0.00    +0.000 A 
ATOM     26  C   UNL     1       1.673   7.153  20.952  0.00  0.00    +0.000 A 
ATOM     27  C   UNL     1       0.878   8.228  21.302  0.00  0.00    +0.000 A 
ATOM     28  C   UNL     1       0.676   9.266  20.388  0.00  0.00    +0.000 A 
ATOM     29  C   UNL     1       1.276   9.283  19.119  0.00  0.00    +0.000 A 
ENDBRANCH  21  29
ENDBRANCH   1  21
BRANCH  14  30
ATOM     30  C   UNL     1      -5.971  12.125  18.877  0.00  0.00    +0.000 C 
BRANCH  30  31
ATOM     31  C   UNL     1      -6.092  11.881  20.357  0.00  0.00    +0.000 C 
ATOM     32  C   UNL     1      -6.736  12.919  21.236  0.00  0.00    +0.000 C 
ATOM     33  C   UNL     1      -7.453  11.628  20.978  0.00  0.00    +0.000 C 
ENDBRANCH  30  31
ENDBRANCH  14  30
TORSDOF 4
ENDMDL
MODEL 7
REMARK VINA RESULT:      -6.4      8.227     12.497
REMARK  Name = 
REMARK  5 active torsions:
REMARK  status: ('A' for Active; 'I' for Inactive)
REMARK    1  A    between atoms: C_1  and  C_2
REMARK    2  A    between atoms: C_7  and  N_8
REMARK    3  A    between atoms: N_8  and  C_9
REMARK    4  A    between atoms: N_22  and  C_23
REMARK    5  A    between atoms: C_23  and  C_24
REMARK                            x       y       z     vdW  Elec       q    Type
REMARK                         _______ _______ _______ _____ _____    ______ ____
ROOT
ATOM      1  C   UNL     1      -3.857  13.515  22.242  0.00  0.00    +0.000 A 
ATOM      2  N   UNL     1      -2.561  13.916  22.166  0.00  0.00    +0.000 NA
ATOM      3  C   UNL     1      -1.927  13.788  21.007  0.00  0.00    +0.000 A 
ATOM      4  N   UNL     1      -0.700  14.363  20.844  0.00  0.00    +0.000 N 
ATOM      5  C   UNL     1      -0.287  14.871  19.552  0.00  0.00    +0.000 C 
ATOM      6  C   UNL     1      -0.429  16.389  19.518  0.00  0.00    +0.000 C 
ATOM      7  C   UNL     1       0.244  17.172  20.652  0.00  0.00    +0.000 C 
ATOM      8  N   UNL     1       1.333  16.508  21.378  0.00  0.00    +0.000 NA
ATOM      9  C   UNL     1       0.795  15.581  22.402  0.00  0.00    +0.000 C 
ATOM     10  C   UNL     1       0.314  14.219  21.876  0.00  0.00    +0.000 C 
ATOM     11  N   UNL     1      -2.472  13.176  19.948  0.00  0.00    +0.000 NA
ATOM     12  C   UNL     1      -3.711  12.652  20.071  0.00  0.00    +0.000 A 
ATOM     13  C   UNL     1      -4.307  11.925  19.021  0.00  0.00    +0.000 A 
ATOM     14  N   UNL     1      -3.584  11.610  17.859  0.00  0.00    +0.000 N 
ATOM     15  N   UNL     1      -5.570  11.440  19.101  0.00  0.00    +0.000 NA
ATOM     16  C   UNL     1      -6.236  11.682  20.225  0.00  0.00    +0.000 A 
ATOM     17  N   UNL     1      -5.775  12.347  21.294  0.00  0.00    +0.000 NA
ATOM     18  C   UNL     1      -4.498  12.805  21.206  0.00  0.00    +0.000 A 
ATOM     19  H   UNL     1       1.853  17.232  21.876  0.00  0.00    +0.000 HD
ATOM     20  H   UNL     1      -2.650  12.006  17.815  0.00  0.00    +0.000 HD
ENDROOT
BRANCH   1  21
ATOM     21  N   UNL     1      -4.594  13.855  23.435  0.00  0.00    +0.000 N 
ATOM     22  H   UNL     1      -5.438  13.276  23.482  0.00  0.00    +0.000 HD
BRANCH  21  29
ATOM     23  C   UNL     1      -2.817  15.332  25.400  0.00  0.00    +0.000 C 
ATOM     24  C   UNL     1      -4.056  15.898  24.771  0.00  0.00    +0.000 A 
ATOM     25  C   UNL     1      -4.412  17.211  25.158  0.00  0.00    +0.000 A 
ATOM     26  C   UNL     1      -5.542  17.842  24.646  0.00  0.00    +0.000 A 
ATOM     27  C   UNL     1      -6.346  17.169  23.746  0.00  0.00    +0.000 A 
ATOM     28  C   UNL     1      -6.016  15.866  23.363  0.00  0.00    +0.000 A 
ATOM     29  C   UNL     1      -4.870  15.206  23.835  0.00  0.00    +0.000 A 
ENDBRANCH  21  29
ENDBRANCH   1  21
BRANCH  14  30
ATOM     30  C   UNL     1      -4.337  11.428  16.628  0.00  0.00    +0.000 C 
BRANCH  30  31
ATOM     31  C   UNL     1      -3.423  11.094  15.480  0.00  0.00    +0.000 C 
ATOM     32  C   UNL     1      -2.726   9.761  15.442  0.00  0.00    +0.000 C 
ATOM     33  C   UNL     1      -3.829  10.041  14.465  0.00  0.00    +0.000 C 
ENDBRANCH  30  31
ENDBRANCH  14  30
TORSDOF 4
ENDMDL
MODEL 8
REMARK VINA RESULT:      -6.4      7.430      9.184
REMARK  Name = 
REMARK  5 active torsions:
REMARK  status: ('A' for Active; 'I' for Inactive)
REMARK    1  A    between atoms: C_1  and  C_2
REMARK    2  A    between atoms: C_7  and  N_8
REMARK    3  A    between atoms: N_8  and  C_9
REMARK    4  A    between atoms: N_22  and  C_23
REMARK    5  A    between atoms: C_23  and  C_24
REMARK                            x       y       z     vdW  Elec       q    Type
REMARK                         _______ _______ _______ _____ _____    ______ ____
ROOT
ATOM      1  C   UNL     1       7.562  14.830  20.169  0.00  0.00    +0.000 A 
ATOM      2  N   UNL     1       7.713  14.657  21.508  0.00  0.00    +0.000 NA
ATOM      3  C   UNL     1       6.630  14.433  22.242  0.00  0.00    +0.000 A 
ATOM      4  N   UNL     1       6.768  14.057  23.547  0.00  0.00    +0.000 N 
ATOM      5  C   UNL     1       5.807  13.168  24.165  0.00  0.00    +0.000 C 
ATOM      6  C   UNL     1       6.376  11.755  24.239  0.00  0.00    +0.000 C 
ATOM      7  C   UNL     1       7.758  11.598  24.885  0.00  0.00    +0.000 C 
ATOM      8  N   UNL     1       8.208  12.666  25.785  0.00  0.00    +0.000 NA
ATOM      9  C   UNL     1       8.750  13.811  25.015  0.00  0.00    +0.000 C 
ATOM     10  C   UNL     1       7.702  14.760  24.411  0.00  0.00    +0.000 C 
ATOM     11  N   UNL     1       5.391  14.485  21.738  0.00  0.00    +0.000 NA
ATOM     12  C   UNL     1       5.237  14.797  20.433  0.00  0.00    +0.000 A 
ATOM     13  C   UNL     1       3.957  14.948  19.861  0.00  0.00    +0.000 A 
ATOM     14  N   UNL     1       2.801  14.908  20.657  0.00  0.00    +0.000 N 
ATOM     15  N   UNL     1       3.778  15.204  18.542  0.00  0.00    +0.000 NA
ATOM     16  C   UNL     1       4.873  15.306  17.797  0.00  0.00    +0.000 A 
ATOM     17  N   UNL     1       6.139  15.195  18.225  0.00  0.00    +0.000 NA
ATOM     18  C   UNL     1       6.301  14.963  19.554  0.00  0.00    +0.000 A 
ATOM     19  H   UNL     1       8.978  12.291  26.342  0.00  0.00    +0.000 HD
ATOM     20  H   UNL     1       2.963  14.691  21.637  0.00  0.00    +0.000 HD
ENDROOT
BRANCH   1  21
ATOM     21  N   UNL     1       8.756  14.858  19.358  0.00  0.00    +0.000 N 
ATOM     22  H   UNL     1       8.528  15.255  18.443  0.00  0.00    +0.000 HD
BRANCH  21  29
ATOM     23  C   UNL     1       8.250  12.626  17.367  0.00  0.00    +0.000 C 
ATOM     24  C   UNL     1       9.410  12.681  18.316  0.00  0.00    +0.000 A 
ATOM     25  C   UNL     1      10.306  11.587  18.275  0.00  0.00    +0.000 A 
ATOM     26  C   UNL     1      11.418  11.523  19.111  0.00  0.00    +0.000 A 
ATOM     27  C   UNL     1      11.650  12.545  20.012  0.00  0.00    +0.000 A 
ATOM     28  C   UNL     1      10.767  13.626  20.075  0.00  0.00    +0.000 A 
ATOM     29  C   UNL     1       9.651  13.741  19.231  0.00  0.00    +0.000 A 
ENDBRANCH  21  29
ENDBRANCH   1  21
BRANCH  14  30
ATOM     30  C   UNL     1       1.566  14.468  20.027  0.00  0.00    +0.000 C 
BRANCH  30  31
ATOM     31  C   UNL     1       1.437  12.969  20.078  0.00  0.00    +0.000 C 
ATOM     32  C   UNL     1       0.176  12.309  19.590  0.00  0.00    +0.000 C 
ATOM     33  C   UNL     1       1.438  12.160  18.795  0.00  0.00    +0.000 C 
ENDBRANCH  30  31
ENDBRANCH  14  30
TORSDOF 4
ENDMDL
MODEL 9
REMARK VINA RESULT:      -6.3      1.132      1.443
REMARK  Name = 
REMARK  5 active torsions:
REMARK  status: ('A' for Active; 'I' for Inactive)
REMARK    1  A    between atoms: C_1  and  C_2
REMARK    2  A    between atoms: C_7  and  N_8
REMARK    3  A    between atoms: N_8  and  C_9
REMARK    4  A    between atoms: N_22  and  C_23
REMARK    5  A    between atoms: C_23  and  C_24
REMARK                            x       y       z     vdW  Elec       q    Type
REMARK                         _______ _______ _______ _____ _____    ______ ____
ROOT
ATOM      1  C   UNL     1       3.685   7.275  17.769  0.00  0.00    +0.000 A 
ATOM      2  N   UNL     1       3.597   6.116  18.473  0.00  0.00    +0.000 NA
ATOM      3  C   UNL     1       2.609   5.982  19.350  0.00  0.00    +0.000 A 
ATOM      4  N   UNL     1       2.375   4.764  19.919  0.00  0.00    +0.000 N 
ATOM      5  C   UNL     1       1.031   4.361  20.275  0.00  0.00    +0.000 C 
ATOM      6  C   UNL     1       0.480   3.398  19.228  0.00  0.00    +0.000 C 
ATOM      7  C   UNL     1       1.345   2.177  18.889  0.00  0.00    +0.000 C 
ATOM      8  N   UNL     1       2.345   1.762  19.879  0.00  0.00    +0.000 NA
ATOM      9  C   UNL     1       3.567   2.595  19.775  0.00  0.00    +0.000 C 
ATOM     10  C   UNL     1       3.483   3.980  20.439  0.00  0.00    +0.000 C 
ATOM     11  N   UNL     1       1.770   6.981  19.651  0.00  0.00    +0.000 NA
ATOM     12  C   UNL     1       1.948   8.179  19.052  0.00  0.00    +0.000 A 
ATOM     13  C   UNL     1       1.150   9.291  19.386  0.00  0.00    +0.000 A 
ATOM     14  N   UNL     1       0.230   9.229  20.445  0.00  0.00    +0.000 N 
ATOM     15  N   UNL     1       1.273  10.487  18.758  0.00  0.00    +0.000 NA
ATOM     16  C   UNL     1       2.187  10.568  17.797  0.00  0.00    +0.000 A 
ATOM     17  N   UNL     1       3.011   9.588  17.399  0.00  0.00    +0.000 NA
ATOM     18  C   UNL     1       2.891   8.404  18.056  0.00  0.00    +0.000 A 
ATOM     19  H   UNL     1       2.619   0.804  19.653  0.00  0.00    +0.000 HD
ATOM     20  H   UNL     1       0.142   8.316  20.882  0.00  0.00    +0.000 HD
ENDROOT
BRANCH   1  21
ATOM     21  N   UNL     1       4.624   7.325  16.675  0.00  0.00    +0.000 N 
ATOM     22  H   UNL     1       4.186   7.796  15.879  0.00  0.00    +0.000 HD
BRANCH  21  29
ATOM     23  C   UNL     1       7.336   6.693  17.879  0.00  0.00    +0.000 C 
ATOM     24  C   UNL     1       6.678   5.902  16.788  0.00  0.00    +0.000 A 
ATOM     25  C   UNL     1       7.407   4.799  16.286  0.00  0.00    +0.000 A 
ATOM     26  C   UNL     1       6.902   3.992  15.270  0.00  0.00    +0.000 A 
ATOM     27  C   UNL     1       5.663   4.278  14.728  0.00  0.00    +0.000 A 
ATOM     28  C   UNL     1       4.935   5.372  15.204  0.00  0.00    +0.000 A 
ATOM     29  C   UNL     1       5.397   6.193  16.245  0.00  0.00    +0.000 A 
ENDBRANCH  21  29
ENDBRANCH   1  21
BRANCH  14  30
ATOM     30  C   UNL     1      -0.933  10.100  20.377  0.00  0.00    +0.000 C 
BRANCH  30  31
ATOM     31  C   UNL     1      -1.233  10.491  18.955  0.00  0.00    +0.000 C 
ATOM     32  C   UNL     1      -2.495  10.004  18.295  0.00  0.00    +0.000 C 
ATOM     33  C   UNL     1      -2.366  11.454  18.653  0.00  0.00    +0.000 C 
ENDBRANCH  30  31
ENDBRANCH  14  30
TORSDOF 4
ENDMDL
