MODEL 1
REMARK VINA RESULT:      -7.2      0.000      0.000
REMARK  Name = 
REMARK  9 active torsions:
REMARK  status: ('A' for Active; 'I' for Inactive)
REMARK    1  A    between atoms: C_1  and  C_2
REMARK    2  A    between atoms: N_4  and  C_5
REMARK    3  A    between atoms: C_5  and  C_6
REMARK    4  A    between atoms: C_13  and  N_14
REMARK    5  A    between atoms: N_14  and  C_15
REMARK    6  A    between atoms: C_15  and  C_16
REMARK    7  A    between atoms: C_20  and  O_21
REMARK    8  A    between atoms: O_21  and  C_22
REMARK    9  A    between atoms: C_22  and  C_23
REMARK                            x       y       z     vdW  Elec       q    Type
REMARK                         _______ _______ _______ _____ _____    ______ ____
ROOT
ATOM      1  N   UNL     1       4.340   4.140  19.788  0.00  0.00    +0.000 NA
ATOM      2  H   UNL     1       4.518   3.809  20.734  0.00  0.00    +0.000 HD
ENDROOT
BRANCH   1   9
ATOM      3  C   UNL     1       1.206   4.428  17.592  0.00  0.00    +0.000 C 
ATOM      4  C   UNL     1       2.554   4.827  18.216  0.00  0.00    +0.000 C 
ATOM      5  C   UNL     1       2.531   6.317  18.617  0.00  0.00    +0.000 C 
ATOM      6  N   UNL     1       1.646   6.601  19.767  0.00  0.00    +0.000 NA
ATOM      7  C   UNL     1       1.963   5.755  20.927  0.00  0.00    +0.000 C 
ATOM      8  C   UNL     1       1.946   4.266  20.575  0.00  0.00    +0.000 C 
ATOM      9  C   UNL     1       2.918   3.937  19.432  0.00  0.00    +0.000 C 
BRANCH   6  10
ATOM     10  C   UNL     1       1.745   8.039  20.104  0.00  0.00    +0.000 C 
BRANCH  10  11
ATOM     11  C   UNL     1       1.234   8.457  21.501  0.00  0.00    +0.000 C 
ATOM     12  C   UNL     1      -0.278   8.349  21.655  0.00  0.00    +0.000 C 
ATOM     13  C   UNL     1      -0.689   9.670  22.253  0.00  0.00    +0.000 C 
ATOM     14  C   UNL     1       0.413  10.608  21.824  0.00  0.00    +0.000 C 
ATOM     15  O   UNL     1       1.602   9.831  21.737  0.00  0.00    +0.000 OA
ENDBRANCH  10  11
ENDBRANCH   6  10
ENDBRANCH   1   9
BRANCH   1  16
ATOM     16  C   UNL     1       5.281   3.483  18.882  0.00  0.00    +0.000 C 
BRANCH  16  17
ATOM     17  C   UNL     1       6.021   4.494  18.041  0.00  0.00    +0.000 A 
ATOM     18  C   UNL     1       6.739   5.537  18.632  0.00  0.00    +0.000 A 
ATOM     19  C   UNL     1       7.406   6.432  17.812  0.00  0.00    +0.000 A 
ATOM     20  N   UNL     1       7.418   6.358  16.462  0.00  0.00    +0.000 NA
ATOM     21  C   UNL     1       6.719   5.345  15.911  0.00  0.00    +0.000 A 
ATOM     22  C   UNL     1       6.008   4.410  16.645  0.00  0.00    +0.000 A 
BRANCH  21  23
ATOM     23  O   UNL     1       6.650   5.218  14.540  0.00  0.00    +0.000 OA
BRANCH  23  24
ATOM     24  C   UNL     1       6.325   3.897  14.112  0.00  0.00    +0.000 C 
BRANCH  24  25
ATOM     25  C   UNL     1       6.193   3.932  12.616  0.00  0.00    +0.000 C 
ATOM     26  C   UNL     1       6.405   2.662  11.831  0.00  0.00    +0.000 C 
ATOM     27  C   UNL     1       5.034   3.273  11.912  0.00  0.00    +0.000 C 
ENDBRANCH  24  25
ENDBRANCH  23  24
ENDBRANCH  21  23
ENDBRANCH  16  17
ENDBRANCH   1  16
TORSDOF 8
ENDMDL
MODEL 2
REMARK VINA RESULT:      -7.2      1.199      1.516
REMARK  Name = 
REMARK  9 active torsions:
REMARK  status: ('A' for Active; 'I' for Inactive)
REMARK    1  A    between atoms: C_1  and  C_2
REMARK    2  A    between atoms: N_4  and  C_5
REMARK    3  A    between atoms: C_5  and  C_6
REMARK    4  A    between atoms: C_13  and  N_14
REMARK    5  A    between atoms: N_14  and  C_15
REMARK    6  A    between atoms: C_15  and  C_16
REMARK    7  A    between atoms: C_20  and  O_21
REMARK    8  A    between atoms: O_21  and  C_22
REMARK    9  A    between atoms: C_22  and  C_23
REMARK                            x       y       z     vdW  Elec       q    Type
REMARK                         _______ _______ _______ _____ _____    ______ ____
ROOT
ATOM      1  N   UNL     1       4.391   4.562  19.898  0.00  0.00    +0.000 NA
ATOM      2  H   UNL     1       4.580   4.309  20.866  0.00  0.00    +0.000 HD
ENDROOT
BRANCH   1   9
ATOM      3  C   UNL     1       1.293   4.317  17.647  0.00  0.00    +0.000 C 
ATOM      4  C   UNL     1       2.686   4.771  18.114  0.00  0.00    +0.000 C 
ATOM      5  C   UNL     1       2.851   6.289  17.892  0.00  0.00    +0.000 C 
ATOM      6  N   UNL     1       2.019   7.108  18.800  0.00  0.00    +0.000 NA
ATOM      7  C   UNL     1       2.242   6.762  20.212  0.00  0.00    +0.000 C 
ATOM      8  C   UNL     1       2.040   5.269  20.477  0.00  0.00    +0.000 C 
ATOM      9  C   UNL     1       2.952   4.402  19.597  0.00  0.00    +0.000 C 
BRANCH   6  10
ATOM     10  C   UNL     1       2.297   8.540  18.544  0.00  0.00    +0.000 C 
BRANCH  10  11
ATOM     11  C   UNL     1       1.100   9.508  18.672  0.00  0.00    +0.000 C 
ATOM     12  C   UNL     1       1.482  10.974  18.506  0.00  0.00    +0.000 C 
ATOM     13  C   UNL     1       0.831  11.666  19.676  0.00  0.00    +0.000 C 
ATOM     14  C   UNL     1       0.694  10.566  20.702  0.00  0.00    +0.000 C 
ATOM     15  O   UNL     1       0.515   9.353  19.980  0.00  0.00    +0.000 OA
ENDBRANCH  10  11
ENDBRANCH   6  10
ENDBRANCH   1   9
BRANCH   1  16
ATOM     16  C   UNL     1       5.272   3.777  19.033  0.00  0.00    +0.000 C 
BRANCH  16  17
ATOM     17  C   UNL     1       6.052   4.670  18.099  0.00  0.00    +0.000 A 
ATOM     18  C   UNL     1       6.709   5.810  18.571  0.00  0.00    +0.000 A 
ATOM     19  C   UNL     1       7.416   6.589  17.670  0.00  0.00    +0.000 A 
ATOM     20  N   UNL     1       7.523   6.313  16.352  0.00  0.00    +0.000 NA
ATOM     21  C   UNL     1       6.882   5.210  15.916  0.00  0.00    +0.000 A 
ATOM     22  C   UNL     1       6.137   4.376  16.734  0.00  0.00    +0.000 A 
BRANCH  21  23
ATOM     23  O   UNL     1       6.911   4.875  14.578  0.00  0.00    +0.000 OA
BRANCH  23  24
ATOM     24  C   UNL     1       6.087   3.756  14.259  0.00  0.00    +0.000 C 
BRANCH  24  25
ATOM     25  C   UNL     1       5.831   3.797  12.780  0.00  0.00    +0.000 C 
ATOM     26  C   UNL     1       7.003   3.742  11.831  0.00  0.00    +0.000 C 
ATOM     27  C   UNL     1       6.047   2.584  11.910  0.00  0.00    +0.000 C 
ENDBRANCH  24  25
ENDBRANCH  23  24
ENDBRANCH  21  23
ENDBRANCH  16  17
ENDBRANCH   1  16
TORSDOF 8
ENDMDL
MODEL 3
REMARK VINA RESULT:      -7.0      1.224      1.589
REMARK  Name = 
REMARK  9 active torsions:
REMARK  status: ('A' for Active; 'I' for Inactive)
REMARK    1  A    between atoms: C_1  and  C_2
REMARK    2  A    between atoms: N_4  and  C_5
REMARK    3  A    between atoms: C_5  and  C_6
REMARK    4  A    between atoms: C_13  and  N_14
REMARK    5  A    between atoms: N_14  and  C_15
REMARK    6  A    between atoms: C_15  and  C_16
REMARK    7  A    between atoms: C_20  and  O_21
REMARK    8  A    between atoms: O_21  and  C_22
REMARK    9  A    between atoms: C_22  and  C_23
REMARK                            x       y       z     vdW  Elec       q    Type
REMARK                         _______ _______ _______ _____ _____    ______ ____
ROOT
ATOM      1  N   UNL     1       4.701   2.872  18.619  0.00  0.00    +0.000 NA
ATOM      2  H   UNL     1       4.585   3.154  17.647  0.00  0.00    +0.000 HD
ENDROOT
BRANCH   1   9
ATOM      3  C   UNL     1       0.894   2.405  18.725  0.00  0.00    +0.000 C 
ATOM      4  C   UNL     1       2.258   2.889  18.209  0.00  0.00    +0.000 C 
ATOM      5  C   UNL     1       2.166   4.365  17.770  0.00  0.00    +0.000 C 
ATOM      6  N   UNL     1       1.995   5.304  18.900  0.00  0.00    +0.000 NA
ATOM      7  C   UNL     1       3.038   5.129  19.921  0.00  0.00    +0.000 C 
ATOM      8  C   UNL     1       3.126   3.684  20.415  0.00  0.00    +0.000 C 
ATOM      9  C   UNL     1       3.380   2.700  19.263  0.00  0.00    +0.000 C 
BRANCH   6  10
ATOM     10  C   UNL     1       1.977   6.688  18.376  0.00  0.00    +0.000 C 
BRANCH  10  11
ATOM     11  C   UNL     1       2.238   7.816  19.398  0.00  0.00    +0.000 C 
ATOM     12  C   UNL     1       1.342   7.744  20.628  0.00  0.00    +0.000 C 
ATOM     13  C   UNL     1       0.804   9.144  20.784  0.00  0.00    +0.000 C 
ATOM     14  C   UNL     1       0.887   9.708  19.386  0.00  0.00    +0.000 C 
ATOM     15  O   UNL     1       2.002   9.086  18.758  0.00  0.00    +0.000 OA
ENDBRANCH  10  11
ENDBRANCH   6  10
ENDBRANCH   1   9
BRANCH   1  16
ATOM     16  C   UNL     1       5.566   3.846  19.284  0.00  0.00    +0.000 C 
BRANCH  16  17
ATOM     17  C   UNL     1       6.196   4.784  18.284  0.00  0.00    +0.000 A 
ATOM     18  C   UNL     1       7.058   5.804  18.695  0.00  0.00    +0.000 A 
ATOM     19  C   UNL     1       7.613   6.633  17.733  0.00  0.00    +0.000 A 
ATOM     20  N   UNL     1       7.383   6.513  16.407  0.00  0.00    +0.000 NA
ATOM     21  C   UNL     1       6.548   5.523  16.030  0.00  0.00    +0.000 A 
ATOM     22  C   UNL     1       5.931   4.655  16.917  0.00  0.00    +0.000 A 
BRANCH  21  23
ATOM     23  O   UNL     1       6.231   5.354  14.699  0.00  0.00    +0.000 OA
BRANCH  23  24
ATOM     24  C   UNL     1       6.213   3.987  14.293  0.00  0.00    +0.000 C 
BRANCH  24  25
ATOM     25  C   UNL     1       5.868   3.960  12.831  0.00  0.00    +0.000 C 
ATOM     26  C   UNL     1       6.961   3.702  11.825  0.00  0.00    +0.000 C 
ATOM     27  C   UNL     1       5.884   2.675  12.042  0.00  0.00    +0.000 C 
ENDBRANCH  24  25
ENDBRANCH  23  24
ENDBRANCH  21  23
ENDBRANCH  16  17
ENDBRANCH   1  16
TORSDOF 8
ENDMDL
MODEL 4
REMARK VINA RESULT:      -7.0      1.620      1.968
REMARK  Name = 
REMARK  9 active torsions:
REMARK  status: ('A' for Active; 'I' for Inactive)
REMARK    1  A    between atoms: C_1  and  C_2
REMARK    2  A    between atoms: N_4  and  C_5
REMARK    3  A    between atoms: C_5  and  C_6
REMARK    4  A    between atoms: C_13  and  N_14
REMARK    5  A    between atoms: N_14  and  C_15
REMARK    6  A    between atoms: C_15  and  C_16
REMARK    7  A    between atoms: C_20  and  O_21
REMARK    8  A    between atoms: O_21  and  C_22
REMARK    9  A    between atoms: C_22  and  C_23
REMARK                            x       y       z     vdW  Elec       q    Type
REMARK                         _______ _______ _______ _____ _____    ______ ____
ROOT
ATOM      1  N   UNL     1       4.193   2.928  17.913  0.00  0.00    +0.000 NA
ATOM      2  H   UNL     1       3.965   3.482  17.089  0.00  0.00    +0.000 HD
ENDROOT
BRANCH   1   9
ATOM      3  C   UNL     1       0.450   3.078  18.743  0.00  0.00    +0.000 C 
ATOM      4  C   UNL     1       1.795   3.504  18.132  0.00  0.00    +0.000 C 
ATOM      5  C   UNL     1       1.995   5.025  18.301  0.00  0.00    +0.000 C 
ATOM      6  N   UNL     1       2.234   5.433  19.702  0.00  0.00    +0.000 NA
ATOM      7  C   UNL     1       3.349   4.690  20.308  0.00  0.00    +0.000 C 
ATOM      8  C   UNL     1       3.159   3.176  20.201  0.00  0.00    +0.000 C 
ATOM      9  C   UNL     1       2.986   2.723  18.743  0.00  0.00    +0.000 C 
BRANCH   6  10
ATOM     10  C   UNL     1       2.471   6.893  19.743  0.00  0.00    +0.000 C 
BRANCH  10  11
ATOM     11  C   UNL     1       1.662   7.752  18.744  0.00  0.00    +0.000 C 
ATOM     12  C   UNL     1       2.534   8.545  17.779  0.00  0.00    +0.000 C 
ATOM     13  C   UNL     1       1.975   9.945  17.833  0.00  0.00    +0.000 C 
ATOM     14  C   UNL     1       1.318  10.007  19.191  0.00  0.00    +0.000 C 
ATOM     15  O   UNL     1       0.860   8.692  19.485  0.00  0.00    +0.000 OA
ENDBRANCH  10  11
ENDBRANCH   6  10
ENDBRANCH   1   9
BRANCH   1  16
ATOM     16  C   UNL     1       5.298   3.579  18.617  0.00  0.00    +0.000 C 
BRANCH  16  17
ATOM     17  C   UNL     1       6.053   4.509  17.699  0.00  0.00    +0.000 A 
ATOM     18  C   UNL     1       6.650   5.675  18.186  0.00  0.00    +0.000 A 
ATOM     19  C   UNL     1       7.337   6.489  17.300  0.00  0.00    +0.000 A 
ATOM     20  N   UNL     1       7.479   6.223  15.983  0.00  0.00    +0.000 NA
ATOM     21  C   UNL     1       6.896   5.094  15.532  0.00  0.00    +0.000 A 
ATOM     22  C   UNL     1       6.175   4.225  16.335  0.00  0.00    +0.000 A 
BRANCH  21  23
ATOM     23  O   UNL     1       6.962   4.767  14.194  0.00  0.00    +0.000 OA
BRANCH  23  24
ATOM     24  C   UNL     1       6.140   3.655  13.844  0.00  0.00    +0.000 C 
BRANCH  24  25
ATOM     25  C   UNL     1       6.069   3.607  12.345  0.00  0.00    +0.000 C 
ATOM     26  C   UNL     1       5.858   2.279  11.663  0.00  0.00    +0.000 C 
ATOM     27  C   UNL     1       4.774   3.320  11.626  0.00  0.00    +0.000 C 
ENDBRANCH  24  25
ENDBRANCH  23  24
ENDBRANCH  21  23
ENDBRANCH  16  17
ENDBRANCH   1  16
TORSDOF 8
ENDMDL
MODEL 5
REMARK VINA RESULT:      -7.0      4.476      7.605
REMARK  Name = 
REMARK  9 active torsions:
REMARK  status: ('A' for Active; 'I' for Inactive)
REMARK    1  A    between atoms: C_1  and  C_2
REMARK    2  A    between atoms: N_4  and  C_5
REMARK    3  A    between atoms: C_5  and  C_6
REMARK    4  A    between atoms: C_13  and  N_14
REMARK    5  A    between atoms: N_14  and  C_15
REMARK    6  A    between atoms: C_15  and  C_16
REMARK    7  A    between atoms: C_20  and  O_21
REMARK    8  A    between atoms: O_21  and  C_22
REMARK    9  A    between atoms: C_22  and  C_23
REMARK                            x       y       z     vdW  Elec       q    Type
REMARK                         _______ _______ _______ _____ _____    ______ ____
ROOT
ATOM      1  N   UNL     1       7.381   7.757  17.177  0.00  0.00    +0.000 NA
ATOM      2  H   UNL     1       6.496   8.194  17.427  0.00  0.00    +0.000 HD
ENDROOT
BRANCH   1   9
ATOM      3  C   UNL     1       5.599   4.800  15.505  0.00  0.00    +0.000 C 
ATOM      4  C   UNL     1       5.759   6.163  16.197  0.00  0.00    +0.000 C 
ATOM      5  C   UNL     1       4.666   6.345  17.271  0.00  0.00    +0.000 C 
ATOM      6  N   UNL     1       4.844   5.462  18.444  0.00  0.00    +0.000 NA
ATOM      7  C   UNL     1       6.183   5.599  19.036  0.00  0.00    +0.000 C 
ATOM      8  C   UNL     1       7.294   5.377  18.008  0.00  0.00    +0.000 C 
ATOM      9  C   UNL     1       7.170   6.338  16.817  0.00  0.00    +0.000 C 
BRANCH   6  10
ATOM     10  C   UNL     1       3.782   5.758  19.432  0.00  0.00    +0.000 C 
BRANCH  10  11
ATOM     11  C   UNL     1       2.699   4.674  19.627  0.00  0.00    +0.000 C 
ATOM     12  C   UNL     1       2.037   4.714  20.999  0.00  0.00    +0.000 C 
ATOM     13  C   UNL     1       2.078   3.285  21.477  0.00  0.00    +0.000 C 
ATOM     14  C   UNL     1       3.243   2.695  20.720  0.00  0.00    +0.000 C 
ATOM     15  O   UNL     1       3.308   3.377  19.472  0.00  0.00    +0.000 OA
ENDBRANCH  10  11
ENDBRANCH   6  10
ENDBRANCH   1   9
BRANCH   1  16
ATOM     16  C   UNL     1       8.325   7.960  18.276  0.00  0.00    +0.000 C 
BRANCH  16  17
ATOM     17  C   UNL     1       8.625   9.426  18.471  0.00  0.00    +0.000 A 
ATOM     18  C   UNL     1       8.218  10.377  17.531  0.00  0.00    +0.000 A 
ATOM     19  C   UNL     1       8.515  11.710  17.764  0.00  0.00    +0.000 A 
ATOM     20  N   UNL     1       9.170  12.159  18.857  0.00  0.00    +0.000 NA
ATOM     21  C   UNL     1       9.555  11.227  19.751  0.00  0.00    +0.000 A 
ATOM     22  C   UNL     1       9.320   9.870  19.601  0.00  0.00    +0.000 A 
BRANCH  21  23
ATOM     23  O   UNL     1      10.261  11.597  20.877  0.00  0.00    +0.000 OA
BRANCH  23  24
ATOM     24  C   UNL     1       9.543  12.492  21.724  0.00  0.00    +0.000 C 
BRANCH  24  25
ATOM     25  C   UNL     1       8.478  11.693  22.419  0.00  0.00    +0.000 C 
ATOM     26  C   UNL     1       8.298  11.850  23.907  0.00  0.00    +0.000 C 
ATOM     27  C   UNL     1       7.235  12.347  22.967  0.00  0.00    +0.000 C 
ENDBRANCH  24  25
ENDBRANCH  23  24
ENDBRANCH  21  23
ENDBRANCH  16  17
ENDBRANCH   1  16
TORSDOF 8
ENDMDL
MODEL 6
REMARK VINA RESULT:      -7.0      3.033      7.276
REMARK  Name = 
REMARK  9 active torsions:
REMARK  status: ('A' for Active; 'I' for Inactive)
REMARK    1  A    between atoms: C_1  and  C_2
REMARK    2  A    between atoms: N_4  and  C_5
REMARK    3  A    between atoms: C_5  and  C_6
REMARK    4  A    between atoms: C_13  and  N_14
REMARK    5  A    between atoms: N_14  and  C_15
REMARK    6  A    between atoms: C_15  and  C_16
REMARK    7  A    between atoms: C_20  and  O_21
REMARK    8  A    between atoms: O_21  and  C_22
REMARK    9  A    between atoms: C_22  and  C_23
REMARK                            x       y       z     vdW  Elec       q    Type
REMARK                         _______ _______ _______ _____ _____    ______ ____
ROOT
ATOM      1  N   UNL     1       3.784   6.351  18.742  0.00  0.00    +0.000 NA
ATOM      2  H   UNL     1       4.195   6.840  19.536  0.00  0.00    +0.000 HD
ENDROOT
BRANCH   1   9
ATOM      3  C   UNL     1       5.240   4.330  15.824  0.00  0.00    +0.000 C 
ATOM      4  C   UNL     1       4.182   4.861  16.805  0.00  0.00    +0.000 C 
ATOM      5  C   UNL     1       3.275   3.708  17.283  0.00  0.00    +0.000 C 
ATOM      6  N   UNL     1       3.964   2.751  18.175  0.00  0.00    +0.000 NA
ATOM      7  C   UNL     1       4.596   3.425  19.320  0.00  0.00    +0.000 C 
ATOM      8  C   UNL     1       5.540   4.545  18.880  0.00  0.00    +0.000 C 
ATOM      9  C   UNL     1       4.823   5.591  18.014  0.00  0.00    +0.000 C 
BRANCH   6  10
ATOM     10  C   UNL     1       2.994   1.725  18.620  0.00  0.00    +0.000 C 
BRANCH  10  11
ATOM     11  C   UNL     1       1.682   2.243  19.250  0.00  0.00    +0.000 C 
ATOM     12  C   UNL     1       1.420   3.720  18.983  0.00  0.00    +0.000 C 
ATOM     13  C   UNL     1       1.076   4.290  20.336  0.00  0.00    +0.000 C 
ATOM     14  C   UNL     1       1.751   3.342  21.297  0.00  0.00    +0.000 C 
ATOM     15  O   UNL     1       1.750   2.061  20.678  0.00  0.00    +0.000 OA
ENDBRANCH  10  11
ENDBRANCH   6  10
ENDBRANCH   1   9
BRANCH   1  16
ATOM     16  C   UNL     1       3.068   7.325  17.918  0.00  0.00    +0.000 C 
BRANCH  16  17
ATOM     17  C   UNL     1       2.121   8.151  18.753  0.00  0.00    +0.000 A 
ATOM     18  C   UNL     1       1.910   7.862  20.104  0.00  0.00    +0.000 A 
ATOM     19  C   UNL     1       1.035   8.658  20.825  0.00  0.00    +0.000 A 
ATOM     20  N   UNL     1       0.371   9.714  20.306  0.00  0.00    +0.000 NA
ATOM     21  C   UNL     1       0.587   9.977  19.001  0.00  0.00    +0.000 A 
ATOM     22  C   UNL     1       1.430   9.230  18.194  0.00  0.00    +0.000 A 
BRANCH  21  23
ATOM     23  O   UNL     1      -0.079  11.015  18.384  0.00  0.00    +0.000 OA
BRANCH  23  24
ATOM     24  C   UNL     1      -1.424  11.167  18.832  0.00  0.00    +0.000 C 
BRANCH  24  25
ATOM     25  C   UNL     1      -2.310  11.073  17.622  0.00  0.00    +0.000 C 
ATOM     26  C   UNL     1      -2.217   9.855  16.738  0.00  0.00    +0.000 C 
ATOM     27  C   UNL     1      -3.454  10.093  17.559  0.00  0.00    +0.000 C 
ENDBRANCH  24  25
ENDBRANCH  23  24
ENDBRANCH  21  23
ENDBRANCH  16  17
ENDBRANCH   1  16
TORSDOF 8
ENDMDL
MODEL 7
REMARK VINA RESULT:      -6.9      2.184      4.184
REMARK  Name = 
REMARK  9 active torsions:
REMARK  status: ('A' for Active; 'I' for Inactive)
REMARK    1  A    between atoms: C_1  and  C_2
REMARK    2  A    between atoms: N_4  and  C_5
REMARK    3  A    between atoms: C_5  and  C_6
REMARK    4  A    between atoms: C_13  and  N_14
REMARK    5  A    between atoms: N_14  and  C_15
REMARK    6  A    between atoms: C_15  and  C_16
REMARK    7  A    between atoms: C_20  and  O_21
REMARK    8  A    between atoms: O_21  and  C_22
REMARK    9  A    between atoms: C_22  and  C_23
REMARK                            x       y       z     vdW  Elec       q    Type
REMARK                         _______ _______ _______ _____ _____    ______ ____
ROOT
ATOM      1  N   UNL     1       4.414   3.011  18.292  0.00  0.00    +0.000 NA
ATOM      2  H   UNL     1       4.239   3.523  17.429  0.00  0.00    +0.000 HD
ENDROOT
BRANCH   1   9
ATOM      3  C   UNL     1       0.615   2.845  18.799  0.00  0.00    +0.000 C 
ATOM      4  C   UNL     1       1.955   3.279  18.183  0.00  0.00    +0.000 C 
ATOM      5  C   UNL     1       1.956   4.802  17.936  0.00  0.00    +0.000 C 
ATOM      6  N   UNL     1       2.000   5.598  19.182  0.00  0.00    +0.000 NA
ATOM      7  C   UNL     1       3.128   5.209  20.043  0.00  0.00    +0.000 C 
ATOM      8  C   UNL     1       3.130   3.710  20.347  0.00  0.00    +0.000 C 
ATOM      9  C   UNL     1       3.162   2.865  19.065  0.00  0.00    +0.000 C 
BRANCH   6  10
ATOM     10  C   UNL     1       2.058   7.035  18.831  0.00  0.00    +0.000 C 
BRANCH  10  11
ATOM     11  C   UNL     1       1.980   8.036  20.006  0.00  0.00    +0.000 C 
ATOM     12  C   UNL     1       0.999   7.620  21.095  0.00  0.00    +0.000 C 
ATOM     13  C   UNL     1       0.173   8.856  21.348  0.00  0.00    +0.000 C 
ATOM     14  C   UNL     1       0.278   9.619  20.049  0.00  0.00    +0.000 C 
ATOM     15  O   UNL     1       1.553   9.315  19.497  0.00  0.00    +0.000 OA
ENDBRANCH  10  11
ENDBRANCH   6  10
ENDBRANCH   1   9
BRANCH   1  16
ATOM     16  C   UNL     1       5.490   3.684  19.020  0.00  0.00    +0.000 C 
BRANCH  16  17
ATOM     17  C   UNL     1       6.211   4.670  18.133  0.00  0.00    +0.000 A 
ATOM     18  C   UNL     1       6.167   4.555  16.741  0.00  0.00    +0.000 A 
ATOM     19  C   UNL     1       6.842   5.492  15.975  0.00  0.00    +0.000 A 
ATOM     20  N   UNL     1       7.540   6.527  16.490  0.00  0.00    +0.000 NA
ATOM     21  C   UNL     1       7.572   6.621  17.834  0.00  0.00    +0.000 A 
ATOM     22  C   UNL     1       6.944   5.725  18.685  0.00  0.00    +0.000 A 
BRANCH  21  23
ATOM     23  O   UNL     1       8.293   7.627  18.442  0.00  0.00    +0.000 OA
BRANCH  23  24
ATOM     24  C   UNL     1       7.965   8.928  17.956  0.00  0.00    +0.000 C 
BRANCH  24  25
ATOM     25  C   UNL     1       9.130   9.825  18.262  0.00  0.00    +0.000 C 
ATOM     26  C   UNL     1       8.964  11.317  18.118  0.00  0.00    +0.000 C 
ATOM     27  C   UNL     1       9.142  10.711  19.483  0.00  0.00    +0.000 C 
ENDBRANCH  24  25
ENDBRANCH  23  24
ENDBRANCH  21  23
ENDBRANCH  16  17
ENDBRANCH   1  16
TORSDOF 8
ENDMDL
MODEL 8
REMARK VINA RESULT:      -6.8      2.982      7.195
REMARK  Name = 
REMARK  9 active torsions:
REMARK  status: ('A' for Active; 'I' for Inactive)
REMARK    1  A    between atoms: C_1  and  C_2
REMARK    2  A    between atoms: N_4  and  C_5
REMARK    3  A    between atoms: C_5  and  C_6
REMARK    4  A    between atoms: C_13  and  N_14
REMARK    5  A    between atoms: N_14  and  C_15
REMARK    6  A    between atoms: C_15  and  C_16
REMARK    7  A    between atoms: C_20  and  O_21
REMARK    8  A    between atoms: O_21  and  C_22
REMARK    9  A    between atoms: C_22  and  C_23
REMARK                            x       y       z     vdW  Elec       q    Type
REMARK                         _______ _______ _______ _____ _____    ______ ____
ROOT
ATOM      1  N   UNL     1       3.639   6.528  17.027  0.00  0.00    +0.000 NA
ATOM      2  H   UNL     1       3.129   6.083  17.788  0.00  0.00    +0.000 HD
ENDROOT
BRANCH   1   9
ATOM      3  C   UNL     1       6.067   3.845  15.750  0.00  0.00    +0.000 C 
ATOM      4  C   UNL     1       4.753   4.449  16.273  0.00  0.00    +0.000 C 
ATOM      5  C   UNL     1       4.131   3.522  17.339  0.00  0.00    +0.000 C 
ATOM      6  N   UNL     1       4.895   3.488  18.604  0.00  0.00    +0.000 NA
ATOM      7  C   UNL     1       5.114   4.835  19.151  0.00  0.00    +0.000 C 
ATOM      8  C   UNL     1       5.774   5.769  18.135  0.00  0.00    +0.000 C 
ATOM      9  C   UNL     1       4.955   5.878  16.841  0.00  0.00    +0.000 C 
BRANCH   6  10
ATOM     10  C   UNL     1       4.184   2.621  19.570  0.00  0.00    +0.000 C 
BRANCH  10  11
ATOM     11  C   UNL     1       3.207   3.324  20.540  0.00  0.00    +0.000 C 
ATOM     12  C   UNL     1       2.696   2.418  21.653  0.00  0.00    +0.000 C 
ATOM     13  C   UNL     1       1.202   2.625  21.648  0.00  0.00    +0.000 C 
ATOM     14  C   UNL     1       0.916   3.077  20.236  0.00  0.00    +0.000 C 
ATOM     15  O   UNL     1       2.065   3.788  19.792  0.00  0.00    +0.000 OA
ENDBRANCH  10  11
ENDBRANCH   6  10
ENDBRANCH   1   9
BRANCH   1  16
ATOM     16  C   UNL     1       3.716   7.964  17.299  0.00  0.00    +0.000 C 
BRANCH  16  17
ATOM     17  C   UNL     1       2.624   8.396  18.246  0.00  0.00    +0.000 A 
ATOM     18  C   UNL     1       2.375   7.695  19.429  0.00  0.00    +0.000 A 
ATOM     19  C   UNL     1       1.364   8.140  20.265  0.00  0.00    +0.000 A 
ATOM     20  N   UNL     1       0.600   9.226  20.016  0.00  0.00    +0.000 NA
ATOM     21  C   UNL     1       0.855   9.889  18.870  0.00  0.00    +0.000 A 
ATOM     22  C   UNL     1       1.832   9.514  17.962  0.00  0.00    +0.000 A 
BRANCH  21  23
ATOM     23  O   UNL     1       0.098  10.988  18.522  0.00  0.00    +0.000 OA
BRANCH  23  24
ATOM     24  C   UNL     1      -1.303  10.789  18.707  0.00  0.00    +0.000 C 
BRANCH  24  25
ATOM     25  C   UNL     1      -1.793   9.968  17.548  0.00  0.00    +0.000 C 
ATOM     26  C   UNL     1      -3.278   9.796  17.348  0.00  0.00    +0.000 C 
ATOM     27  C   UNL     1      -2.478  10.606  16.366  0.00  0.00    +0.000 C 
ENDBRANCH  24  25
ENDBRANCH  23  24
ENDBRANCH  21  23
ENDBRANCH  16  17
ENDBRANCH   1  16
TORSDOF 8
ENDMDL
MODEL 9
REMARK VINA RESULT:      -6.8      2.533      7.619
REMARK  Name = 
REMARK  9 active torsions:
REMARK  status: ('A' for Active; 'I' for Inactive)
REMARK    1  A    between atoms: C_1  and  C_2
REMARK    2  A    between atoms: N_4  and  C_5
REMARK    3  A    between atoms: C_5  and  C_6
REMARK    4  A    between atoms: C_13  and  N_14
REMARK    5  A    between atoms: N_14  and  C_15
REMARK    6  A    between atoms: C_15  and  C_16
REMARK    7  A    between atoms: C_20  and  O_21
REMARK    8  A    between atoms: O_21  and  C_22
REMARK    9  A    between atoms: C_22  and  C_23
REMARK                            x       y       z     vdW  Elec       q    Type
REMARK                         _______ _______ _______ _____ _____    ______ ____
ROOT
ATOM      1  N   UNL     1       4.178   6.986  17.228  0.00  0.00    +0.000 NA
ATOM      2  H   UNL     1       3.897   6.130  16.752  0.00  0.00    +0.000 HD
ENDROOT
BRANCH   1   9
ATOM      3  C   UNL     1       7.893   7.331  18.125  0.00  0.00    +0.000 C 
ATOM      4  C   UNL     1       6.641   7.240  17.236  0.00  0.00    +0.000 C 
ATOM      5  C   UNL     1       6.915   6.321  16.027  0.00  0.00    +0.000 C 
ATOM      6  N   UNL     1       7.049   4.894  16.393  0.00  0.00    +0.000 NA
ATOM      7  C   UNL     1       5.890   4.413  17.160  0.00  0.00    +0.000 C 
ATOM      8  C   UNL     1       5.618   5.274  18.395  0.00  0.00    +0.000 C 
ATOM      9  C   UNL     1       5.400   6.750  18.027  0.00  0.00    +0.000 C 
BRANCH   6  10
ATOM     10  C   UNL     1       7.249   4.100  15.160  0.00  0.00    +0.000 C 
BRANCH  10  11
ATOM     11  C   UNL     1       6.470   4.561  13.908  0.00  0.00    +0.000 C 
ATOM     12  C   UNL     1       5.272   3.680  13.577  0.00  0.00    +0.000 C 
ATOM     13  C   UNL     1       5.416   3.389  12.104  0.00  0.00    +0.000 C 
ATOM     14  C   UNL     1       6.897   3.550  11.858  0.00  0.00    +0.000 C 
ATOM     15  O   UNL     1       7.360   4.536  12.774  0.00  0.00    +0.000 OA
ENDBRANCH  10  11
ENDBRANCH   6  10
ENDBRANCH   1   9
BRANCH   1  16
ATOM     16  C   UNL     1       3.042   7.476  18.008  0.00  0.00    +0.000 C 
BRANCH  16  17
ATOM     17  C   UNL     1       2.381   6.354  18.770  0.00  0.00    +0.000 A 
ATOM     18  C   UNL     1       2.157   6.449  20.146  0.00  0.00    +0.000 A 
ATOM     19  C   UNL     1       1.541   5.392  20.794  0.00  0.00    +0.000 A 
ATOM     20  N   UNL     1       1.126   4.264  20.176  0.00  0.00    +0.000 NA
ATOM     21  C   UNL     1       1.352   4.190  18.849  0.00  0.00    +0.000 A 
ATOM     22  C   UNL     1       1.975   5.187  18.115  0.00  0.00    +0.000 A 
BRANCH  21  23
ATOM     23  O   UNL     1       0.993   3.058  18.147  0.00  0.00    +0.000 OA
BRANCH  23  24
ATOM     24  C   UNL     1       1.643   1.877  18.612  0.00  0.00    +0.000 C 
BRANCH  24  25
ATOM     25  C   UNL     1       3.112   2.041  18.346  0.00  0.00    +0.000 C 
ATOM     26  C   UNL     1       4.066   2.112  19.512  0.00  0.00    +0.000 C 
ATOM     27  C   UNL     1       4.089   0.920  18.596  0.00  0.00    +0.000 C 
ENDBRANCH  24  25
ENDBRANCH  23  24
ENDBRANCH  21  23
ENDBRANCH  16  17
ENDBRANCH   1  16
TORSDOF 8
ENDMDL
