MODEL 1
REMARK VINA RESULT:      -6.6      0.000      0.000
REMARK  Name = 
REMARK  6 active torsions:
REMARK  status: ('A' for Active; 'I' for Inactive)
REMARK    1  A    between atoms: C_2  and  C_3
REMARK    2  A    between atoms: C_2  and  C_12
REMARK    3  A    between atoms: C_3  and  O_4
REMARK    4  A    between atoms: O_4  and  C_5
REMARK    5  A    between atoms: C_12  and  O_13
REMARK    6  A    between atoms: O_13  and  C_14
REMARK                            x       y       z     vdW  Elec       q    Type
REMARK                         _______ _______ _______ _____ _____    ______ ____
ROOT
ATOM      1  O   UNL     1       1.321   4.090  17.538  0.00  0.00    +0.000 OA
ATOM      2  C   UNL     1       2.152   4.004  18.445  0.00  0.00    +0.000 C 
ENDROOT
BRANCH   2   3
ATOM      3  C   UNL     1       2.050   4.845  19.703  0.00  0.00    +0.000 C 
BRANCH   3   4
ATOM      4  O   UNL     1       2.930   5.955  19.571  0.00  0.00    +0.000 OA
BRANCH   4   5
ATOM      5  C   UNL     1       2.352   7.171  19.320  0.00  0.00    +0.000 A 
ATOM      6  C   UNL     1       2.400   7.860  18.104  0.00  0.00    +0.000 A 
ATOM      7  C   UNL     1       1.778   9.105  17.976  0.00  0.00    +0.000 A 
ATOM      8  C   UNL     1       1.106   9.665  19.061  0.00  0.00    +0.000 A 
ATOM      9 BR   UNL     1       0.272  11.352  18.880  0.00  0.00    +0.000 Br
ATOM     10  C   UNL     1       1.049   8.989  20.275  0.00  0.00    +0.000 A 
ATOM     11  C   UNL     1       1.674   7.742  20.400  0.00  0.00    +0.000 A 
ENDBRANCH   4   5
ENDBRANCH   3   4
ENDBRANCH   2   3
BRANCH   2  12
ATOM     12  C   UNL     1       3.323   3.042  18.363  0.00  0.00    +0.000 C 
BRANCH  12  13
ATOM     13  O   UNL     1       4.084   3.327  17.193  0.00  0.00    +0.000 OA
BRANCH  13  14
ATOM     14  C   UNL     1       4.877   4.445  17.246  0.00  0.00    +0.000 A 
ATOM     15  C   UNL     1       4.798   5.537  16.378  0.00  0.00    +0.000 A 
ATOM     16  C   UNL     1       5.675   6.618  16.519  0.00  0.00    +0.000 A 
ATOM     17  C   UNL     1       6.633   6.607  17.528  0.00  0.00    +0.000 A 
ATOM     18 BR   UNL     1       7.818   8.069  17.707  0.00  0.00    +0.000 Br
ATOM     19  C   UNL     1       6.724   5.527  18.401  0.00  0.00    +0.000 A 
ATOM     20  C   UNL     1       5.842   4.448  18.258  0.00  0.00    +0.000 A 
ENDBRANCH  13  14
ENDBRANCH  12  13
ENDBRANCH   2  12
TORSDOF 6
ENDMDL
MODEL 2
REMARK VINA RESULT:      -6.4      0.303      5.436
REMARK  Name = 
REMARK  6 active torsions:
REMARK  status: ('A' for Active; 'I' for Inactive)
REMARK    1  A    between atoms: C_2  and  C_3
REMARK    2  A    between atoms: C_2  and  C_12
REMARK    3  A    between atoms: C_3  and  O_4
REMARK    4  A    between atoms: O_4  and  C_5
REMARK    5  A    between atoms: C_12  and  O_13
REMARK    6  A    between atoms: O_13  and  C_14
REMARK                            x       y       z     vdW  Elec       q    Type
REMARK                         _______ _______ _______ _____ _____    ______ ____
ROOT
ATOM      1  O   UNL     1       1.618   4.434  17.496  0.00  0.00    +0.000 OA
ATOM      2  C   UNL     1       2.423   4.201  18.400  0.00  0.00    +0.000 C 
ENDROOT
BRANCH   2   3
ATOM      3  C   UNL     1       3.499   3.142  18.258  0.00  0.00    +0.000 C 
BRANCH   3   4
ATOM      4  O   UNL     1       4.326   3.492  17.154  0.00  0.00    +0.000 OA
BRANCH   4   5
ATOM      5  C   UNL     1       5.206   4.524  17.349  0.00  0.00    +0.000 A 
ATOM      6  C   UNL     1       6.238   4.546  18.292  0.00  0.00    +0.000 A 
ATOM      7  C   UNL     1       7.065   5.668  18.404  0.00  0.00    +0.000 A 
ATOM      8  C   UNL     1       6.864   6.769  17.573  0.00  0.00    +0.000 A 
ATOM      9 BR   UNL     1       7.984   8.283  17.734  0.00  0.00    +0.000 Br
ATOM     10  C   UNL     1       5.842   6.758  16.629  0.00  0.00    +0.000 A 
ATOM     11  C   UNL     1       5.016   5.633  16.521  0.00  0.00    +0.000 A 
ENDBRANCH   4   5
ENDBRANCH   3   4
ENDBRANCH   2   3
BRANCH   2  12
ATOM     12  C   UNL     1       2.394   4.970  19.709  0.00  0.00    +0.000 C 
BRANCH  12  13
ATOM     13  O   UNL     1       3.119   6.185  19.556  0.00  0.00    +0.000 OA
BRANCH  13  14
ATOM     14  C   UNL     1       2.368   7.330  19.466  0.00  0.00    +0.000 A 
ATOM     15  C   UNL     1       1.646   7.911  20.511  0.00  0.00    +0.000 A 
ATOM     16  C   UNL     1       0.901   9.074  20.295  0.00  0.00    +0.000 A 
ATOM     17  C   UNL     1       0.876   9.658  19.033  0.00  0.00    +0.000 A 
ATOM     18 BR   UNL     1      -0.139  11.228  18.749  0.00  0.00    +0.000 Br
ATOM     19  C   UNL     1       1.591   9.093  17.982  0.00  0.00    +0.000 A 
ATOM     20  C   UNL     1       2.339   7.929  18.202  0.00  0.00    +0.000 A 
ENDBRANCH  13  14
ENDBRANCH  12  13
ENDBRANCH   2  12
TORSDOF 6
ENDMDL
MODEL 3
REMARK VINA RESULT:      -6.3      1.099      5.047
REMARK  Name = 
REMARK  6 active torsions:
REMARK  status: ('A' for Active; 'I' for Inactive)
REMARK    1  A    between atoms: C_2  and  C_3
REMARK    2  A    between atoms: C_2  and  C_12
REMARK    3  A    between atoms: C_3  and  O_4
REMARK    4  A    between atoms: O_4  and  C_5
REMARK    5  A    between atoms: C_12  and  O_13
REMARK    6  A    between atoms: O_13  and  C_14
REMARK                            x       y       z     vdW  Elec       q    Type
REMARK                         _______ _______ _______ _____ _____    ______ ____
ROOT
ATOM      1  O   UNL     1       1.855   1.647  19.168  0.00  0.00    +0.000 OA
ATOM      2  C   UNL     1       1.949   2.802  18.744  0.00  0.00    +0.000 C 
ENDROOT
BRANCH   2   3
ATOM      3  C   UNL     1       2.674   3.120  17.450  0.00  0.00    +0.000 C 
BRANCH   3   4
ATOM      4  O   UNL     1       4.061   2.867  17.641  0.00  0.00    +0.000 OA
BRANCH   4   5
ATOM      5  C   UNL     1       4.880   3.961  17.718  0.00  0.00    +0.000 A 
ATOM      6  C   UNL     1       5.551   4.397  18.865  0.00  0.00    +0.000 A 
ATOM      7  C   UNL     1       6.352   5.542  18.820  0.00  0.00    +0.000 A 
ATOM      8  C   UNL     1       6.486   6.254  17.628  0.00  0.00    +0.000 A 
ATOM      9 BR   UNL     1       7.567   7.803  17.578  0.00  0.00    +0.000 Br
ATOM     10  C   UNL     1       5.825   5.829  16.480  0.00  0.00    +0.000 A 
ATOM     11  C   UNL     1       5.023   4.683  16.530  0.00  0.00    +0.000 A 
ENDBRANCH   4   5
ENDBRANCH   3   4
ENDBRANCH   2   3
BRANCH   2  12
ATOM     12  C   UNL     1       1.336   3.975  19.486  0.00  0.00    +0.000 C 
BRANCH  12  13
ATOM     13  O   UNL     1       2.366   4.886  19.856  0.00  0.00    +0.000 OA
BRANCH  13  14
ATOM     14  C   UNL     1       2.179   6.194  19.485  0.00  0.00    +0.000 A 
ATOM     15  C   UNL     1       2.389   6.711  18.205  0.00  0.00    +0.000 A 
ATOM     16  C   UNL     1       2.181   8.071  17.949  0.00  0.00    +0.000 A 
ATOM     17  C   UNL     1       1.763   8.914  18.973  0.00  0.00    +0.000 A 
ATOM     18 BR   UNL     1       1.489  10.751  18.619  0.00  0.00    +0.000 Br
ATOM     19  C   UNL     1       1.549   8.413  20.254  0.00  0.00    +0.000 A 
ATOM     20  C   UNL     1       1.756   7.051  20.506  0.00  0.00    +0.000 A 
ENDBRANCH  13  14
ENDBRANCH  12  13
ENDBRANCH   2  12
TORSDOF 6
ENDMDL
MODEL 4
REMARK VINA RESULT:      -6.3      2.548      5.625
REMARK  Name = 
REMARK  6 active torsions:
REMARK  status: ('A' for Active; 'I' for Inactive)
REMARK    1  A    between atoms: C_2  and  C_3
REMARK    2  A    between atoms: C_2  and  C_12
REMARK    3  A    between atoms: C_3  and  O_4
REMARK    4  A    between atoms: O_4  and  C_5
REMARK    5  A    between atoms: C_12  and  O_13
REMARK    6  A    between atoms: O_13  and  C_14
REMARK                            x       y       z     vdW  Elec       q    Type
REMARK                         _______ _______ _______ _____ _____    ______ ____
ROOT
ATOM      1  O   UNL     1       5.593   6.136  14.894  0.00  0.00    +0.000 OA
ATOM      2  C   UNL     1       5.503   5.894  16.101  0.00  0.00    +0.000 C 
ENDROOT
BRANCH   2   3
ATOM      3  C   UNL     1       6.031   4.604  16.697  0.00  0.00    +0.000 C 
BRANCH   3   4
ATOM      4  O   UNL     1       5.000   3.626  16.633  0.00  0.00    +0.000 OA
BRANCH   4   5
ATOM      5  C   UNL     1       4.256   3.442  17.768  0.00  0.00    +0.000 A 
ATOM      6  C   UNL     1       4.723   3.584  19.079  0.00  0.00    +0.000 A 
ATOM      7  C   UNL     1       3.866   3.355  20.160  0.00  0.00    +0.000 A 
ATOM      8  C   UNL     1       2.541   2.984  19.934  0.00  0.00    +0.000 A 
ATOM      9 BR   UNL     1       1.392   2.671  21.402  0.00  0.00    +0.000 Br
ATOM     10  C   UNL     1       2.065   2.841  18.635  0.00  0.00    +0.000 A 
ATOM     11  C   UNL     1       2.926   3.071  17.555  0.00  0.00    +0.000 A 
ENDBRANCH   4   5
ENDBRANCH   3   4
ENDBRANCH   2   3
BRANCH   2  12
ATOM     12  C   UNL     1       4.867   6.879  17.064  0.00  0.00    +0.000 C 
BRANCH  12  13
ATOM     13  O   UNL     1       3.561   6.425  17.405  0.00  0.00    +0.000 OA
BRANCH  13  14
ATOM     14  C   UNL     1       2.799   7.284  18.157  0.00  0.00    +0.000 A 
ATOM     15  C   UNL     1       2.313   8.522  17.730  0.00  0.00    +0.000 A 
ATOM     16  C   UNL     1       1.558   9.322  18.594  0.00  0.00    +0.000 A 
ATOM     17  C   UNL     1       1.288   8.884  19.887  0.00  0.00    +0.000 A 
ATOM     18 BR   UNL     1       0.271   9.974  21.050  0.00  0.00    +0.000 Br
ATOM     19  C   UNL     1       1.765   7.653  20.326  0.00  0.00    +0.000 A 
ATOM     20  C   UNL     1       2.518   6.853  19.458  0.00  0.00    +0.000 A 
ENDBRANCH  13  14
ENDBRANCH  12  13
ENDBRANCH   2  12
TORSDOF 6
ENDMDL
MODEL 5
REMARK VINA RESULT:      -6.2      1.011      5.445
REMARK  Name = 
REMARK  6 active torsions:
REMARK  status: ('A' for Active; 'I' for Inactive)
REMARK    1  A    between atoms: C_2  and  C_3
REMARK    2  A    between atoms: C_2  and  C_12
REMARK    3  A    between atoms: C_3  and  O_4
REMARK    4  A    between atoms: O_4  and  C_5
REMARK    5  A    between atoms: C_12  and  O_13
REMARK    6  A    between atoms: O_13  and  C_14
REMARK                            x       y       z     vdW  Elec       q    Type
REMARK                         _______ _______ _______ _____ _____    ______ ____
ROOT
ATOM      1  O   UNL     1       1.635   2.961  20.515  0.00  0.00    +0.000 OA
ATOM      2  C   UNL     1       1.761   4.026  19.906  0.00  0.00    +0.000 C 
ENDROOT
BRANCH   2   3
ATOM      3  C   UNL     1       2.015   4.065  18.411  0.00  0.00    +0.000 C 
BRANCH   3   4
ATOM      4  O   UNL     1       3.310   3.531  18.165  0.00  0.00    +0.000 OA
BRANCH   4   5
ATOM      5  C   UNL     1       4.344   4.428  18.105  0.00  0.00    +0.000 A 
ATOM      6  C   UNL     1       5.410   4.501  19.007  0.00  0.00    +0.000 A 
ATOM      7  C   UNL     1       6.402   5.474  18.846  0.00  0.00    +0.000 A 
ATOM      8  C   UNL     1       6.331   6.375  17.784  0.00  0.00    +0.000 A 
ATOM      9 BR   UNL     1       7.673   7.690  17.578  0.00  0.00    +0.000 Br
ATOM     10  C   UNL     1       5.276   6.310  16.879  0.00  0.00    +0.000 A 
ATOM     11  C   UNL     1       4.285   5.335  17.044  0.00  0.00    +0.000 A 
ENDBRANCH   4   5
ENDBRANCH   3   4
ENDBRANCH   2   3
BRANCH   2  12
ATOM     12  C   UNL     1       1.658   5.365  20.613  0.00  0.00    +0.000 C 
BRANCH  12  13
ATOM     13  O   UNL     1       2.503   6.307  19.961  0.00  0.00    +0.000 OA
BRANCH  13  14
ATOM     14  C   UNL     1       1.991   7.569  19.800  0.00  0.00    +0.000 A 
ATOM     15  C   UNL     1       1.321   8.304  20.781  0.00  0.00    +0.000 A 
ATOM     16  C   UNL     1       0.826   9.581  20.495  0.00  0.00    +0.000 A 
ATOM     17  C   UNL     1       1.000  10.124  19.226  0.00  0.00    +0.000 A 
ATOM     18 BR   UNL     1       0.323  11.847  18.846  0.00  0.00    +0.000 Br
ATOM     19  C   UNL     1       1.666   9.405  18.238  0.00  0.00    +0.000 A 
ATOM     20  C   UNL     1       2.162   8.128  18.529  0.00  0.00    +0.000 A 
ENDBRANCH  13  14
ENDBRANCH  12  13
ENDBRANCH   2  12
TORSDOF 6
ENDMDL
MODEL 6
REMARK VINA RESULT:      -6.2      4.663      6.684
REMARK  Name = 
REMARK  6 active torsions:
REMARK  status: ('A' for Active; 'I' for Inactive)
REMARK    1  A    between atoms: C_2  and  C_3
REMARK    2  A    between atoms: C_2  and  C_12
REMARK    3  A    between atoms: C_3  and  O_4
REMARK    4  A    between atoms: O_4  and  C_5
REMARK    5  A    between atoms: C_12  and  O_13
REMARK    6  A    between atoms: O_13  and  C_14
REMARK                            x       y       z     vdW  Elec       q    Type
REMARK                         _______ _______ _______ _____ _____    ______ ____
ROOT
ATOM      1  O   UNL     1       7.741   6.336  18.874  0.00  0.00    +0.000 OA
ATOM      2  C   UNL     1       7.551   6.981  17.840  0.00  0.00    +0.000 C 
ENDROOT
BRANCH   2   3
ATOM      3  C   UNL     1       7.915   8.449  17.737  0.00  0.00    +0.000 C 
BRANCH   3   4
ATOM      4  O   UNL     1       8.739   8.784  18.849  0.00  0.00    +0.000 OA
BRANCH   4   5
ATOM      5  C   UNL     1       9.091  10.101  18.978  0.00  0.00    +0.000 A 
ATOM      6  C   UNL     1       8.876  11.098  18.022  0.00  0.00    +0.000 A 
ATOM      7  C   UNL     1       9.295  12.410  18.267  0.00  0.00    +0.000 A 
ATOM      8  C   UNL     1       9.928  12.728  19.468  0.00  0.00    +0.000 A 
ATOM      9 BR   UNL     1      10.495  14.502  19.788  0.00  0.00    +0.000 Br
ATOM     10  C   UNL     1      10.145  11.745  20.428  0.00  0.00    +0.000 A 
ATOM     11  C   UNL     1       9.725  10.433  20.178  0.00  0.00    +0.000 A 
ENDBRANCH   4   5
ENDBRANCH   3   4
ENDBRANCH   2   3
BRANCH   2  12
ATOM     12  C   UNL     1       6.952   6.340  16.602  0.00  0.00    +0.000 C 
BRANCH  12  13
ATOM     13  O   UNL     1       5.597   6.757  16.467  0.00  0.00    +0.000 OA
BRANCH  13  14
ATOM     14  C   UNL     1       4.647   5.887  16.939  0.00  0.00    +0.000 A 
ATOM     15  C   UNL     1       4.591   4.519  16.663  0.00  0.00    +0.000 A 
ATOM     16  C   UNL     1       3.561   3.733  17.190  0.00  0.00    +0.000 A 
ATOM     17  C   UNL     1       2.584   4.314  17.992  0.00  0.00    +0.000 A 
ATOM     18 BR   UNL     1       1.192   3.244  18.694  0.00  0.00    +0.000 Br
ATOM     19  C   UNL     1       2.626   5.676  18.276  0.00  0.00    +0.000 A 
ATOM     20  C   UNL     1       3.661   6.460  17.750  0.00  0.00    +0.000 A 
ENDBRANCH  13  14
ENDBRANCH  12  13
ENDBRANCH   2  12
TORSDOF 6
ENDMDL
MODEL 7
REMARK VINA RESULT:      -6.1      4.791      6.508
REMARK  Name = 
REMARK  6 active torsions:
REMARK  status: ('A' for Active; 'I' for Inactive)
REMARK    1  A    between atoms: C_2  and  C_3
REMARK    2  A    between atoms: C_2  and  C_12
REMARK    3  A    between atoms: C_3  and  O_4
REMARK    4  A    between atoms: O_4  and  C_5
REMARK    5  A    between atoms: C_12  and  O_13
REMARK    6  A    between atoms: O_13  and  C_14
REMARK                            x       y       z     vdW  Elec       q    Type
REMARK                         _______ _______ _______ _____ _____    ______ ____
ROOT
ATOM      1  O   UNL     1       8.057   6.513  18.663  0.00  0.00    +0.000 OA
ATOM      2  C   UNL     1       7.512   7.354  17.945  0.00  0.00    +0.000 C 
ENDROOT
BRANCH   2   3
ATOM      3  C   UNL     1       6.286   7.021  17.116  0.00  0.00    +0.000 C 
BRANCH   3   4
ATOM      4  O   UNL     1       6.080   5.614  17.168  0.00  0.00    +0.000 OA
BRANCH   4   5
ATOM      5  C   UNL     1       5.010   5.176  17.901  0.00  0.00    +0.000 A 
ATOM      6  C   UNL     1       5.003   4.059  18.743  0.00  0.00    +0.000 A 
ATOM      7  C   UNL     1       3.838   3.705  19.432  0.00  0.00    +0.000 A 
ATOM      8  C   UNL     1       2.679   4.465  19.281  0.00  0.00    +0.000 A 
ATOM      9 BR   UNL     1       1.109   3.975  20.212  0.00  0.00    +0.000 Br
ATOM     10  C   UNL     1       2.675   5.580  18.448  0.00  0.00    +0.000 A 
ATOM     11  C   UNL     1       3.842   5.931  17.760  0.00  0.00    +0.000 A 
ENDBRANCH   4   5
ENDBRANCH   3   4
ENDBRANCH   2   3
BRANCH   2  12
ATOM     12  C   UNL     1       8.027   8.779  17.855  0.00  0.00    +0.000 C 
BRANCH  12  13
ATOM     13  O   UNL     1       8.892   9.035  18.957  0.00  0.00    +0.000 OA
BRANCH  13  14
ATOM     14  C   UNL     1       9.365  10.318  19.069  0.00  0.00    +0.000 A 
ATOM     15  C   UNL     1       9.747  11.137  18.004  0.00  0.00    +0.000 A 
ATOM     16  C   UNL     1      10.232  12.428  18.242  0.00  0.00    +0.000 A 
ATOM     17  C   UNL     1      10.337  12.899  19.547  0.00  0.00    +0.000 A 
ATOM     18 BR   UNL     1      10.999  14.642  19.860  0.00  0.00    +0.000 Br
ATOM     19  C   UNL     1       9.960  12.095  20.618  0.00  0.00    +0.000 A 
ATOM     20  C   UNL     1       9.472  10.805  20.376  0.00  0.00    +0.000 A 
ENDBRANCH  13  14
ENDBRANCH  12  13
ENDBRANCH   2  12
TORSDOF 6
ENDMDL
MODEL 8
REMARK VINA RESULT:      -6.1      3.934      6.965
REMARK  Name = 
REMARK  6 active torsions:
REMARK  status: ('A' for Active; 'I' for Inactive)
REMARK    1  A    between atoms: C_2  and  C_3
REMARK    2  A    between atoms: C_2  and  C_12
REMARK    3  A    between atoms: C_3  and  O_4
REMARK    4  A    between atoms: O_4  and  C_5
REMARK    5  A    between atoms: C_12  and  O_13
REMARK    6  A    between atoms: O_13  and  C_14
REMARK                            x       y       z     vdW  Elec       q    Type
REMARK                         _______ _______ _______ _____ _____    ______ ____
ROOT
ATOM      1  O   UNL     1       8.030   7.790  17.901  0.00  0.00    +0.000 OA
ATOM      2  C   UNL     1       7.370   6.754  17.791  0.00  0.00    +0.000 C 
ENDROOT
BRANCH   2   3
ATOM      3  C   UNL     1       6.651   6.398  16.503  0.00  0.00    +0.000 C 
BRANCH   3   4
ATOM      4  O   UNL     1       7.622   5.973  15.554  0.00  0.00    +0.000 OA
BRANCH   4   5
ATOM      5  C   UNL     1       7.175   5.174  14.535  0.00  0.00    +0.000 A 
ATOM      6  C   UNL     1       7.714   5.122  13.245  0.00  0.00    +0.000 A 
ATOM      7  C   UNL     1       7.159   4.271  12.285  0.00  0.00    +0.000 A 
ATOM      8  C   UNL     1       6.065   3.470  12.610  0.00  0.00    +0.000 A 
ATOM      9 BR   UNL     1       5.318   2.327  11.303  0.00  0.00    +0.000 Br
ATOM     10  C   UNL     1       5.522   3.511  13.890  0.00  0.00    +0.000 A 
ATOM     11  C   UNL     1       6.079   4.365  14.848  0.00  0.00    +0.000 A 
ENDBRANCH   4   5
ENDBRANCH   3   4
ENDBRANCH   2   3
BRANCH   2  12
ATOM     12  C   UNL     1       7.245   5.764  18.935  0.00  0.00    +0.000 C 
BRANCH  12  13
ATOM     13  O   UNL     1       6.641   4.567  18.456  0.00  0.00    +0.000 OA
BRANCH  13  14
ATOM     14  C   UNL     1       5.320   4.387  18.776  0.00  0.00    +0.000 A 
ATOM     15  C   UNL     1       4.580   5.187  19.649  0.00  0.00    +0.000 A 
ATOM     16  C   UNL     1       3.238   4.895  19.913  0.00  0.00    +0.000 A 
ATOM     17  C   UNL     1       2.634   3.799  19.304  0.00  0.00    +0.000 A 
ATOM     18 BR   UNL     1       0.821   3.407  19.670  0.00  0.00    +0.000 Br
ATOM     19  C   UNL     1       3.357   2.992  18.431  0.00  0.00    +0.000 A 
ATOM     20  C   UNL     1       4.700   3.290  18.168  0.00  0.00    +0.000 A 
ENDBRANCH  13  14
ENDBRANCH  12  13
ENDBRANCH   2  12
TORSDOF 6
ENDMDL
MODEL 9
REMARK VINA RESULT:      -6.1      4.898      7.100
REMARK  Name = 
REMARK  6 active torsions:
REMARK  status: ('A' for Active; 'I' for Inactive)
REMARK    1  A    between atoms: C_2  and  C_3
REMARK    2  A    between atoms: C_2  and  C_12
REMARK    3  A    between atoms: C_3  and  O_4
REMARK    4  A    between atoms: O_4  and  C_5
REMARK    5  A    between atoms: C_12  and  O_13
REMARK    6  A    between atoms: O_13  and  C_14
REMARK                            x       y       z     vdW  Elec       q    Type
REMARK                         _______ _______ _______ _____ _____    ______ ____
ROOT
ATOM      1  O   UNL     1       8.157   6.701  18.742  0.00  0.00    +0.000 OA
ATOM      2  C   UNL     1       7.636   7.504  17.963  0.00  0.00    +0.000 C 
ENDROOT
BRANCH   2   3
ATOM      3  C   UNL     1       8.143   8.927  17.828  0.00  0.00    +0.000 C 
BRANCH   3   4
ATOM      4  O   UNL     1       8.770   9.296  19.051  0.00  0.00    +0.000 OA
BRANCH   4   5
ATOM      5  C   UNL     1       9.487  10.462  19.046  0.00  0.00    +0.000 A 
ATOM      6  C   UNL     1       9.895  11.162  17.906  0.00  0.00    +0.000 A 
ATOM      7  C   UNL     1      10.638  12.340  18.031  0.00  0.00    +0.000 A 
ATOM      8  C   UNL     1      10.974  12.822  19.295  0.00  0.00    +0.000 A 
ATOM      9 BR   UNL     1      11.983  14.413  19.455  0.00  0.00    +0.000 Br
ATOM     10  C   UNL     1      10.573  12.136  20.437  0.00  0.00    +0.000 A 
ATOM     11  C   UNL     1       9.830  10.956  20.307  0.00  0.00    +0.000 A 
ENDBRANCH   4   5
ENDBRANCH   3   4
ENDBRANCH   2   3
BRANCH   2  12
ATOM     12  C   UNL     1       6.463   7.113  17.084  0.00  0.00    +0.000 C 
BRANCH  12  13
ATOM     13  O   UNL     1       6.179   5.729  17.267  0.00  0.00    +0.000 OA
BRANCH  13  14
ATOM     14  C   UNL     1       5.011   5.433  17.922  0.00  0.00    +0.000 A 
ATOM     15  C   UNL     1       3.838   6.190  17.872  0.00  0.00    +0.000 A 
ATOM     16  C   UNL     1       2.710   5.795  18.598  0.00  0.00    +0.000 A 
ATOM     17  C   UNL     1       2.754   4.644  19.378  0.00  0.00    +0.000 A 
ATOM     18 BR   UNL     1       1.226   4.122  20.361  0.00  0.00    +0.000 Br
ATOM     19  C   UNL     1       3.914   3.879  19.438  0.00  0.00    +0.000 A 
ATOM     20  C   UNL     1       5.042   4.275  18.707  0.00  0.00    +0.000 A 
ENDBRANCH  13  14
ENDBRANCH  12  13
ENDBRANCH   2  12
TORSDOF 6
ENDMDL
