MODEL 1
REMARK VINA RESULT:      -6.9      0.000      0.000
REMARK  Name = 
REMARK  5 active torsions:
REMARK  status: ('A' for Active; 'I' for Inactive)
REMARK    1  A    between atoms: C_1  and  C_2
REMARK    2  A    between atoms: C_2  and  S_3
REMARK    3  A    between atoms: S_3  and  C_4
REMARK    4  A    between atoms: N_9  and  C_10
REMARK    5  A    between atoms: C_16  and  C_17
REMARK                            x       y       z     vdW  Elec       q    Type
REMARK                         _______ _______ _______ _____ _____    ______ ____
ROOT
ATOM      1  C   UNL     1       6.333   4.495  16.415  0.00  0.00    +0.000 C 
ATOM      2  N   UNL     1       7.628   4.462  16.452  0.00  0.00    +0.000 NA
ATOM      3  C   UNL     1       7.957   4.708  17.877  0.00  0.00    +0.000 C 
ATOM      4  C   UNL     1       6.622   4.867  18.563  0.00  0.00    +0.000 C 
ATOM      5  O   UNL     1       6.468   5.041  19.762  0.00  0.00    +0.000 OA
ATOM      6  N   UNL     1       5.680   4.722  17.581  0.00  0.00    +0.000 N 
ENDROOT
BRANCH   6   7
ATOM      7  C   UNL     1       4.295   4.654  17.834  0.00  0.00    +0.000 A 
ATOM      8  C   UNL     1       3.712   3.407  18.113  0.00  0.00    +0.000 A 
ATOM      9  C   UNL     1       2.348   3.315  18.379  0.00  0.00    +0.000 A 
ATOM     10 CL   UNL     1       1.644   1.783  18.718  0.00  0.00    +0.000 Cl
ATOM     11  C   UNL     1       1.551   4.455  18.372  0.00  0.00    +0.000 A 
ATOM     12  C   UNL     1       2.121   5.696  18.085  0.00  0.00    +0.000 A 
ATOM     13  C   UNL     1       3.492   5.813  17.803  0.00  0.00    +0.000 A 
ATOM     14  C   UNL     1       4.042   7.151  17.395  0.00  0.00    +0.000 C 
ENDBRANCH   6   7
BRANCH   1  15
ATOM     15  S   UNL     1       5.441   4.382  14.930  0.00  0.00    +0.000 S 
BRANCH  15  17
ATOM     16  C   UNL     1       6.272   3.523  12.492  0.00  0.00    +0.000 C 
ATOM     17  C   UNL     1       6.782   4.253  13.723  0.00  0.00    +0.000 C 
ENDBRANCH  15  17
ENDBRANCH   1  15
TORSDOF 3
ENDMDL
MODEL 2
REMARK VINA RESULT:      -6.7      1.743      2.373
REMARK  Name = 
REMARK  5 active torsions:
REMARK  status: ('A' for Active; 'I' for Inactive)
REMARK    1  A    between atoms: C_1  and  C_2
REMARK    2  A    between atoms: C_2  and  S_3
REMARK    3  A    between atoms: S_3  and  C_4
REMARK    4  A    between atoms: N_9  and  C_10
REMARK    5  A    between atoms: C_16  and  C_17
REMARK                            x       y       z     vdW  Elec       q    Type
REMARK                         _______ _______ _______ _____ _____    ______ ____
ROOT
ATOM      1  C   UNL     1       6.379   4.793  16.356  0.00  0.00    +0.000 C 
ATOM      2  N   UNL     1       7.632   4.475  16.443  0.00  0.00    +0.000 NA
ATOM      3  C   UNL     1       7.935   4.584  17.891  0.00  0.00    +0.000 C 
ATOM      4  C   UNL     1       6.634   5.003  18.530  0.00  0.00    +0.000 C 
ATOM      5  O   UNL     1       6.461   5.156  19.729  0.00  0.00    +0.000 OA
ATOM      6  N   UNL     1       5.733   5.109  17.505  0.00  0.00    +0.000 N 
ENDROOT
BRANCH   6   7
ATOM      7  C   UNL     1       4.356   5.336  17.698  0.00  0.00    +0.000 A 
ATOM      8  C   UNL     1       3.892   6.656  17.823  0.00  0.00    +0.000 A 
ATOM      9  C   UNL     1       2.533   6.907  18.002  0.00  0.00    +0.000 A 
ATOM     10 CL   UNL     1       1.976   8.527  18.155  0.00  0.00    +0.000 Cl
ATOM     11  C   UNL     1       1.624   5.856  18.057  0.00  0.00    +0.000 A 
ATOM     12  C   UNL     1       2.079   4.541  17.945  0.00  0.00    +0.000 A 
ATOM     13  C   UNL     1       3.445   4.262  17.775  0.00  0.00    +0.000 A 
ATOM     14  C   UNL     1       3.901   2.830  17.765  0.00  0.00    +0.000 C 
ENDBRANCH   6   7
BRANCH   1  15
ATOM     15  S   UNL     1       5.559   4.941  14.833  0.00  0.00    +0.000 S 
BRANCH  15  17
ATOM     16  C   UNL     1       5.829   3.478  12.561  0.00  0.00    +0.000 C 
ATOM     17  C   UNL     1       6.632   3.955  13.759  0.00  0.00    +0.000 C 
ENDBRANCH  15  17
ENDBRANCH   1  15
TORSDOF 3
ENDMDL
MODEL 3
REMARK VINA RESULT:      -6.3      2.946      4.039
REMARK  Name = 
REMARK  5 active torsions:
REMARK  status: ('A' for Active; 'I' for Inactive)
REMARK    1  A    between atoms: C_1  and  C_2
REMARK    2  A    between atoms: C_2  and  S_3
REMARK    3  A    between atoms: S_3  and  C_4
REMARK    4  A    between atoms: N_9  and  C_10
REMARK    5  A    between atoms: C_16  and  C_17
REMARK                            x       y       z     vdW  Elec       q    Type
REMARK                         _______ _______ _______ _____ _____    ______ ____
ROOT
ATOM      1  C   UNL     1       6.892   5.489  17.020  0.00  0.00    +0.000 C 
ATOM      2  N   UNL     1       7.630   4.965  16.092  0.00  0.00    +0.000 NA
ATOM      3  C   UNL     1       6.688   4.130  15.308  0.00  0.00    +0.000 C 
ATOM      4  C   UNL     1       5.349   4.316  15.980  0.00  0.00    +0.000 C 
ATOM      5  O   UNL     1       4.300   3.820  15.599  0.00  0.00    +0.000 OA
ATOM      6  N   UNL     1       5.575   5.168  17.027  0.00  0.00    +0.000 N 
ENDROOT
BRANCH   6   7
ATOM      7  C   UNL     1       4.547   5.715  17.821  0.00  0.00    +0.000 A 
ATOM      8  C   UNL     1       3.976   6.943  17.449  0.00  0.00    +0.000 A 
ATOM      9  C   UNL     1       2.950   7.498  18.211  0.00  0.00    +0.000 A 
ATOM     10 CL   UNL     1       2.257   9.003  17.746  0.00  0.00    +0.000 Cl
ATOM     11  C   UNL     1       2.481   6.843  19.344  0.00  0.00    +0.000 A 
ATOM     12  C   UNL     1       3.052   5.628  19.727  0.00  0.00    +0.000 A 
ATOM     13  C   UNL     1       4.094   5.054  18.982  0.00  0.00    +0.000 A 
ATOM     14  C   UNL     1       4.750   3.800  19.490  0.00  0.00    +0.000 C 
ENDBRANCH   6   7
BRANCH   1  15
ATOM     15  S   UNL     1       7.552   6.467  18.293  0.00  0.00    +0.000 S 
BRANCH  15  17
ATOM     16  C   UNL     1       8.456   9.027  18.332  0.00  0.00    +0.000 C 
ATOM     17  C   UNL     1       7.590   8.095  17.503  0.00  0.00    +0.000 C 
ENDBRANCH  15  17
ENDBRANCH   1  15
TORSDOF 3
ENDMDL
MODEL 4
REMARK VINA RESULT:      -6.3      3.452      4.654
REMARK  Name = 
REMARK  5 active torsions:
REMARK  status: ('A' for Active; 'I' for Inactive)
REMARK    1  A    between atoms: C_1  and  C_2
REMARK    2  A    between atoms: C_2  and  S_3
REMARK    3  A    between atoms: S_3  and  C_4
REMARK    4  A    between atoms: N_9  and  C_10
REMARK    5  A    between atoms: C_16  and  C_17
REMARK                            x       y       z     vdW  Elec       q    Type
REMARK                         _______ _______ _______ _____ _____    ______ ____
ROOT
ATOM      1  C   UNL     1       4.211   4.330  18.173  0.00  0.00    +0.000 C 
ATOM      2  N   UNL     1       4.406   3.275  17.446  0.00  0.00    +0.000 NA
ATOM      3  C   UNL     1       3.049   2.896  16.984  0.00  0.00    +0.000 C 
ATOM      4  C   UNL     1       2.130   3.930  17.588  0.00  0.00    +0.000 C 
ATOM      5  O   UNL     1       0.924   3.986  17.402  0.00  0.00    +0.000 OA
ATOM      6  N   UNL     1       2.936   4.770  18.306  0.00  0.00    +0.000 N 
ENDROOT
BRANCH   6   7
ATOM      7  C   UNL     1       2.482   5.962  18.905  0.00  0.00    +0.000 A 
ATOM      8  C   UNL     1       2.524   7.157  18.167  0.00  0.00    +0.000 A 
ATOM      9  C   UNL     1       2.069   8.346  18.732  0.00  0.00    +0.000 A 
ATOM     10 CL   UNL     1       2.127   9.804  17.821  0.00  0.00    +0.000 Cl
ATOM     11  C   UNL     1       1.568   8.363  20.029  0.00  0.00    +0.000 A 
ATOM     12  C   UNL     1       1.533   7.182  20.773  0.00  0.00    +0.000 A 
ATOM     13  C   UNL     1       1.996   5.973  20.229  0.00  0.00    +0.000 A 
ATOM     14  C   UNL     1       2.038   4.749  21.101  0.00  0.00    +0.000 C 
ENDBRANCH   6   7
BRANCH   1  15
ATOM     15  S   UNL     1       5.490   5.101  19.059  0.00  0.00    +0.000 S 
BRANCH  15  17
ATOM     16  C   UNL     1       7.547   6.678  18.249  0.00  0.00    +0.000 C 
ATOM     17  C   UNL     1       6.572   5.644  17.713  0.00  0.00    +0.000 C 
ENDBRANCH  15  17
ENDBRANCH   1  15
TORSDOF 3
ENDMDL
MODEL 5
REMARK VINA RESULT:      -6.2      2.863      4.934
REMARK  Name = 
REMARK  5 active torsions:
REMARK  status: ('A' for Active; 'I' for Inactive)
REMARK    1  A    between atoms: C_1  and  C_2
REMARK    2  A    between atoms: C_2  and  S_3
REMARK    3  A    between atoms: S_3  and  C_4
REMARK    4  A    between atoms: N_9  and  C_10
REMARK    5  A    between atoms: C_16  and  C_17
REMARK                            x       y       z     vdW  Elec       q    Type
REMARK                         _______ _______ _______ _____ _____    ______ ____
ROOT
ATOM      1  C   UNL     1       3.460   4.585  19.310  0.00  0.00    +0.000 C 
ATOM      2  N   UNL     1       2.430   5.055  19.942  0.00  0.00    +0.000 NA
ATOM      3  C   UNL     1       2.306   6.448  19.450  0.00  0.00    +0.000 C 
ATOM      4  C   UNL     1       3.435   6.613  18.461  0.00  0.00    +0.000 C 
ATOM      5  O   UNL     1       3.645   7.619  17.801  0.00  0.00    +0.000 OA
ATOM      6  N   UNL     1       4.093   5.413  18.444  0.00  0.00    +0.000 N 
ENDROOT
BRANCH   6   7
ATOM      7  C   UNL     1       5.124   5.103  17.535  0.00  0.00    +0.000 A 
ATOM      8  C   UNL     1       4.788   4.693  16.234  0.00  0.00    +0.000 A 
ATOM      9  C   UNL     1       5.790   4.393  15.314  0.00  0.00    +0.000 A 
ATOM     10 CL   UNL     1       5.368   3.891  13.724  0.00  0.00    +0.000 Cl
ATOM     11  C   UNL     1       7.129   4.497  15.672  0.00  0.00    +0.000 A 
ATOM     12  C   UNL     1       7.471   4.893  16.966  0.00  0.00    +0.000 A 
ATOM     13  C   UNL     1       6.479   5.191  17.915  0.00  0.00    +0.000 A 
ATOM     14  C   UNL     1       6.891   5.510  19.325  0.00  0.00    +0.000 C 
ENDBRANCH   6   7
BRANCH   1  15
ATOM     15  S   UNL     1       4.107   3.005  19.629  0.00  0.00    +0.000 S 
BRANCH  15  17
ATOM     16  C   UNL     1       2.436   2.239  17.631  0.00  0.00    +0.000 C 
ATOM     17  C   UNL     1       2.739   1.950  19.091  0.00  0.00    +0.000 C 
ENDBRANCH  15  17
ENDBRANCH   1  15
TORSDOF 3
ENDMDL
MODEL 6
REMARK VINA RESULT:      -6.2      2.813      5.211
REMARK  Name = 
REMARK  5 active torsions:
REMARK  status: ('A' for Active; 'I' for Inactive)
REMARK    1  A    between atoms: C_1  and  C_2
REMARK    2  A    between atoms: C_2  and  S_3
REMARK    3  A    between atoms: S_3  and  C_4
REMARK    4  A    between atoms: N_9  and  C_10
REMARK    5  A    between atoms: C_16  and  C_17
REMARK                            x       y       z     vdW  Elec       q    Type
REMARK                         _______ _______ _______ _____ _____    ______ ____
ROOT
ATOM      1  C   UNL     1       3.065   5.631  18.572  0.00  0.00    +0.000 C 
ATOM      2  N   UNL     1       2.142   5.405  19.454  0.00  0.00    +0.000 NA
ATOM      3  C   UNL     1       2.261   3.954  19.738  0.00  0.00    +0.000 C 
ATOM      4  C   UNL     1       3.395   3.477  18.864  0.00  0.00    +0.000 C 
ATOM      5  O   UNL     1       3.830   2.337  18.844  0.00  0.00    +0.000 OA
ATOM      6  N   UNL     1       3.826   4.581  18.179  0.00  0.00    +0.000 N 
ENDROOT
BRANCH   6   7
ATOM      7  C   UNL     1       4.974   4.592  17.363  0.00  0.00    +0.000 A 
ATOM      8  C   UNL     1       4.857   4.216  16.014  0.00  0.00    +0.000 A 
ATOM      9  C   UNL     1       5.975   4.232  15.184  0.00  0.00    +0.000 A 
ATOM     10 CL   UNL     1       5.822   3.769  13.534  0.00  0.00    +0.000 Cl
ATOM     11  C   UNL     1       7.216   4.619  15.679  0.00  0.00    +0.000 A 
ATOM     12  C   UNL     1       7.342   4.983  17.020  0.00  0.00    +0.000 A 
ATOM     13  C   UNL     1       6.232   4.965  17.880  0.00  0.00    +0.000 A 
ATOM     14  C   UNL     1       6.435   5.262  19.340  0.00  0.00    +0.000 C 
ENDBRANCH   6   7
BRANCH   1  15
ATOM     15  S   UNL     1       3.263   7.178  17.809  0.00  0.00    +0.000 S 
BRANCH  15  17
ATOM     16  C   UNL     1       1.632   9.348  17.872  0.00  0.00    +0.000 C 
ATOM     17  C   UNL     1       2.080   8.183  18.738  0.00  0.00    +0.000 C 
ENDBRANCH  15  17
ENDBRANCH   1  15
TORSDOF 3
ENDMDL
MODEL 7
REMARK VINA RESULT:      -6.2      2.720      3.868
REMARK  Name = 
REMARK  5 active torsions:
REMARK  status: ('A' for Active; 'I' for Inactive)
REMARK    1  A    between atoms: C_1  and  C_2
REMARK    2  A    between atoms: C_2  and  S_3
REMARK    3  A    between atoms: S_3  and  C_4
REMARK    4  A    between atoms: N_9  and  C_10
REMARK    5  A    between atoms: C_16  and  C_17
REMARK                            x       y       z     vdW  Elec       q    Type
REMARK                         _______ _______ _______ _____ _____    ______ ____
ROOT
ATOM      1  C   UNL     1       6.832   4.974  16.927  0.00  0.00    +0.000 C 
ATOM      2  N   UNL     1       7.795   4.707  16.101  0.00  0.00    +0.000 NA
ATOM      3  C   UNL     1       7.106   4.433  14.817  0.00  0.00    +0.000 C 
ATOM      4  C   UNL     1       5.637   4.606  15.117  0.00  0.00    +0.000 C 
ATOM      5  O   UNL     1       4.739   4.507  14.297  0.00  0.00    +0.000 OA
ATOM      6  N   UNL     1       5.566   4.936  16.444  0.00  0.00    +0.000 N 
ENDROOT
BRANCH   6   7
ATOM      7  C   UNL     1       4.375   5.330  17.086  0.00  0.00    +0.000 A 
ATOM      8  C   UNL     1       4.075   6.698  17.192  0.00  0.00    +0.000 A 
ATOM      9  C   UNL     1       2.898   7.111  17.810  0.00  0.00    +0.000 A 
ATOM     10 CL   UNL     1       2.541   8.789  17.936  0.00  0.00    +0.000 Cl
ATOM     11  C   UNL     1       2.008   6.176  18.328  0.00  0.00    +0.000 A 
ATOM     12  C   UNL     1       2.304   4.815  18.236  0.00  0.00    +0.000 A 
ATOM     13  C   UNL     1       3.490   4.374  17.627  0.00  0.00    +0.000 A 
ATOM     14  C   UNL     1       3.818   2.907  17.645  0.00  0.00    +0.000 C 
ENDBRANCH   6   7
BRANCH   1  15
ATOM     15  S   UNL     1       7.106   5.247  18.620  0.00  0.00    +0.000 S 
BRANCH  15  17
ATOM     16  C   UNL     1       7.470   7.712  17.540  0.00  0.00    +0.000 C 
ATOM     17  C   UNL     1       8.070   6.778  18.577  0.00  0.00    +0.000 C 
ENDBRANCH  15  17
ENDBRANCH   1  15
TORSDOF 3
ENDMDL
MODEL 8
REMARK VINA RESULT:      -6.1      3.483      5.767
REMARK  Name = 
REMARK  5 active torsions:
REMARK  status: ('A' for Active; 'I' for Inactive)
REMARK    1  A    between atoms: C_1  and  C_2
REMARK    2  A    between atoms: C_2  and  S_3
REMARK    3  A    between atoms: S_3  and  C_4
REMARK    4  A    between atoms: N_9  and  C_10
REMARK    5  A    between atoms: C_16  and  C_17
REMARK                            x       y       z     vdW  Elec       q    Type
REMARK                         _______ _______ _______ _____ _____    ______ ____
ROOT
ATOM      1  C   UNL     1       2.522   5.351  20.072  0.00  0.00    +0.000 C 
ATOM      2  N   UNL     1       1.705   5.017  21.021  0.00  0.00    +0.000 NA
ATOM      3  C   UNL     1       2.097   3.630  21.368  0.00  0.00    +0.000 C 
ATOM      4  C   UNL     1       3.249   3.309  20.446  0.00  0.00    +0.000 C 
ATOM      5  O   UNL     1       3.880   2.264  20.454  0.00  0.00    +0.000 OA
ATOM      6  N   UNL     1       3.436   4.429  19.682  0.00  0.00    +0.000 N 
ENDROOT
BRANCH   6   7
ATOM      7  C   UNL     1       4.518   4.594  18.794  0.00  0.00    +0.000 A 
ATOM      8  C   UNL     1       5.665   5.276  19.233  0.00  0.00    +0.000 A 
ATOM      9  C   UNL     1       6.752   5.440  18.378  0.00  0.00    +0.000 A 
ATOM     10 CL   UNL     1       8.152   6.277  18.925  0.00  0.00    +0.000 Cl
ATOM     11  C   UNL     1       6.714   4.932  17.084  0.00  0.00    +0.000 A 
ATOM     12  C   UNL     1       5.573   4.264  16.636  0.00  0.00    +0.000 A 
ATOM     13  C   UNL     1       4.460   4.094  17.477  0.00  0.00    +0.000 A 
ATOM     14  C   UNL     1       3.214   3.463  16.919  0.00  0.00    +0.000 C 
ENDBRANCH   6   7
BRANCH   1  15
ATOM     15  S   UNL     1       2.397   6.860  19.223  0.00  0.00    +0.000 S 
BRANCH  15  17
ATOM     16  C   UNL     1       1.096   9.166  19.827  0.00  0.00    +0.000 C 
ATOM     17  C   UNL     1       1.645   7.913  20.489  0.00  0.00    +0.000 C 
ENDBRANCH  15  17
ENDBRANCH   1  15
TORSDOF 3
ENDMDL
MODEL 9
REMARK VINA RESULT:      -6.0      2.031      3.022
REMARK  Name = 
REMARK  5 active torsions:
REMARK  status: ('A' for Active; 'I' for Inactive)
REMARK    1  A    between atoms: C_1  and  C_2
REMARK    2  A    between atoms: C_2  and  S_3
REMARK    3  A    between atoms: S_3  and  C_4
REMARK    4  A    between atoms: N_9  and  C_10
REMARK    5  A    between atoms: C_16  and  C_17
REMARK                            x       y       z     vdW  Elec       q    Type
REMARK                         _______ _______ _______ _____ _____    ______ ____
ROOT
ATOM      1  C   UNL     1       6.688   4.991  17.071  0.00  0.00    +0.000 C 
ATOM      2  N   UNL     1       7.664   5.035  16.219  0.00  0.00    +0.000 NA
ATOM      3  C   UNL     1       7.041   4.641  14.932  0.00  0.00    +0.000 C 
ATOM      4  C   UNL     1       5.589   4.393  15.262  0.00  0.00    +0.000 C 
ATOM      5  O   UNL     1       4.730   4.089  14.450  0.00  0.00    +0.000 OA
ATOM      6  N   UNL     1       5.467   4.631  16.604  0.00  0.00    +0.000 N 
ENDROOT
BRANCH   6   7
ATOM      7  C   UNL     1       4.232   4.655  17.282  0.00  0.00    +0.000 A 
ATOM      8  C   UNL     1       3.644   3.441  17.674  0.00  0.00    +0.000 A 
ATOM      9  C   UNL     1       2.431   3.439  18.357  0.00  0.00    +0.000 A 
ATOM     10 CL   UNL     1       1.719   1.946  18.832  0.00  0.00    +0.000 Cl
ATOM     11  C   UNL     1       1.790   4.635  18.659  0.00  0.00    +0.000 A 
ATOM     12  C   UNL     1       2.362   5.845  18.263  0.00  0.00    +0.000 A 
ATOM     13  C   UNL     1       3.580   5.873  17.564  0.00  0.00    +0.000 A 
ATOM     14  C   UNL     1       4.104   7.191  17.065  0.00  0.00    +0.000 C 
ENDBRANCH   6   7
BRANCH   1  15
ATOM     15  S   UNL     1       6.923   5.253  18.771  0.00  0.00    +0.000 S 
BRANCH  15  17
ATOM     16  C   UNL     1       7.633   7.698  17.829  0.00  0.00    +0.000 C 
ATOM     17  C   UNL     1       8.129   6.602  18.755  0.00  0.00    +0.000 C 
ENDBRANCH  15  17
ENDBRANCH   1  15
TORSDOF 3
ENDMDL
