MODEL 1
REMARK VINA RESULT:      -6.3      0.000      0.000
REMARK  Name = 
REMARK  10 active torsions:
REMARK  status: ('A' for Active; 'I' for Inactive)
REMARK    1  A    between atoms: C_1  and  O_2
REMARK    2  A    between atoms: O_2  and  C_3
REMARK    3  A    between atoms: C_8  and  C_9
REMARK    4  A    between atoms: C_10  and  C_11
REMARK    5  A    between atoms: C_11  and  C_13
REMARK    6  A    between atoms: C_13  and  C_14
REMARK    7  A    between atoms: C_13  and  C_15
REMARK    8  A    between atoms: C_13  and  C_16
REMARK    9  A    between atoms: N_21  and  C_22
REMARK   10  A    between atoms: C_25  and  C_26
REMARK                            x       y       z     vdW  Elec       q    Type
REMARK                         _______ _______ _______ _____ _____    ______ ____
ROOT
ATOM      1  C   UNL     1       9.258  14.426  18.498  0.00  0.00    +0.000 C 
ATOM      2  C   UNL     1      10.176  15.678  18.524  0.00  0.00    +0.000 C 
ATOM      3  C   UNL     1      11.370  15.071  17.831  0.00  0.00    +0.000 C 
ATOM      4  O   UNL     1      12.254  15.696  17.272  0.00  0.00    +0.000 OA
ATOM      5  C   UNL     1      11.303  13.533  17.887  0.00  0.00    +0.000 C 
ATOM      6  O   UNL     1      12.155  12.799  17.433  0.00  0.00    +0.000 OA
ATOM      7  N   UNL     1      10.114  13.231  18.530  0.00  0.00    +0.000 N 
ENDROOT
BRANCH   1  13
ATOM      8  C   UNL     1       8.148  13.974  20.783  0.00  0.00    +0.000 A 
ATOM      9  C   UNL     1       7.059  14.229  21.634  0.00  0.00    +0.000 A 
ATOM     10  C   UNL     1       5.907  14.873  21.176  0.00  0.00    +0.000 A 
ATOM     11  C   UNL     1       5.813  15.253  19.853  0.00  0.00    +0.000 A 
ATOM     12  C   UNL     1       6.879  15.003  18.996  0.00  0.00    +0.000 A 
ATOM     13  C   UNL     1       8.078  14.386  19.441  0.00  0.00    +0.000 A 
BRANCH   8  15
ATOM     14  C   UNL     1       9.079  12.913  22.743  0.00  0.00    +0.000 C 
ATOM     15  O   UNL     1       9.241  13.518  21.470  0.00  0.00    +0.000 OA
ENDBRANCH   8  15
ENDBRANCH   1  13
BRANCH   7  16
ATOM     16  C   UNL     1       9.533  11.925  18.556  0.00  0.00    +0.000 A 
ATOM     17  C   UNL     1       8.579  11.617  17.583  0.00  0.00    +0.000 A 
ATOM     18  C   UNL     1       8.091  10.323  17.406  0.00  0.00    +0.000 A 
ATOM     19  C   UNL     1       8.470   9.290  18.261  0.00  0.00    +0.000 A 
ATOM     20  C   UNL     1       9.362   9.609  19.301  0.00  0.00    +0.000 A 
ATOM     21  C   UNL     1       9.889  10.915  19.454  0.00  0.00    +0.000 A 
BRANCH  19  22
ATOM     22  C   UNL     1       7.892   7.961  18.055  0.00  0.00    +0.000 A 
ATOM     23  C   UNL     1       7.002   7.444  17.133  0.00  0.00    +0.000 A 
ATOM     24  C   UNL     1       6.773   6.090  17.471  0.00  0.00    +0.000 A 
ATOM     25  C   UNL     1       7.558   5.853  18.577  0.00  0.00    +0.000 A 
ATOM     26  O   UNL     1       8.243   6.973  18.933  0.00  0.00    +0.000 OA
ENDBRANCH  19  22
ENDBRANCH   7  16
BRANCH   2  27
ATOM     27  C   UNL     1      10.558  16.277  19.877  0.00  0.00    +0.000 C 
ATOM     28  O   UNL     1      11.446  15.731  20.546  0.00  0.00    +0.000 OA
BRANCH  27  29
ATOM     29  C   UNL     1       9.881  17.583  20.405  0.00  0.00    +0.000 C 
ATOM     30  C   UNL     1       8.897  18.214  19.411  0.00  0.00    +0.000 C 
ATOM     31  C   UNL     1       9.089  17.270  21.698  0.00  0.00    +0.000 C 
ATOM     32  C   UNL     1      10.949  18.626  20.766  0.00  0.00    +0.000 C 
ENDBRANCH  27  29
ENDBRANCH   2  27
TORSDOF 6
ENDMDL
MODEL 2
REMARK VINA RESULT:      -6.0      1.155      1.936
REMARK  Name = 
REMARK  10 active torsions:
REMARK  status: ('A' for Active; 'I' for Inactive)
REMARK    1  A    between atoms: C_1  and  O_2
REMARK    2  A    between atoms: O_2  and  C_3
REMARK    3  A    between atoms: C_8  and  C_9
REMARK    4  A    between atoms: C_10  and  C_11
REMARK    5  A    between atoms: C_11  and  C_13
REMARK    6  A    between atoms: C_13  and  C_14
REMARK    7  A    between atoms: C_13  and  C_15
REMARK    8  A    between atoms: C_13  and  C_16
REMARK    9  A    between atoms: N_21  and  C_22
REMARK   10  A    between atoms: C_25  and  C_26
REMARK                            x       y       z     vdW  Elec       q    Type
REMARK                         _______ _______ _______ _____ _____    ______ ____
ROOT
ATOM      1  C   UNL     1       9.236  14.621  18.954  0.00  0.00    +0.000 C 
ATOM      2  C   UNL     1      10.093  15.901  18.758  0.00  0.00    +0.000 C 
ATOM      3  C   UNL     1      10.796  15.485  17.490  0.00  0.00    +0.000 C 
ATOM      4  O   UNL     1      11.327  16.242  16.697  0.00  0.00    +0.000 OA
ATOM      5  C   UNL     1      10.719  13.957  17.306  0.00  0.00    +0.000 C 
ATOM      6  O   UNL     1      11.230  13.357  16.385  0.00  0.00    +0.000 OA
ATOM      7  N   UNL     1       9.968  13.487  18.372  0.00  0.00    +0.000 N 
ENDROOT
BRANCH   1  13
ATOM      8  C   UNL     1       7.286  14.523  20.641  0.00  0.00    +0.000 A 
ATOM      9  C   UNL     1       6.803  14.001  21.853  0.00  0.00    +0.000 A 
ATOM     10  C   UNL     1       7.642  13.332  22.748  0.00  0.00    +0.000 A 
ATOM     11  C   UNL     1       8.984  13.195  22.460  0.00  0.00    +0.000 A 
ATOM     12  C   UNL     1       9.479  13.711  21.267  0.00  0.00    +0.000 A 
ATOM     13  C   UNL     1       8.644  14.360  20.320  0.00  0.00    +0.000 A 
BRANCH   8  15
ATOM     14  C   UNL     1       5.349  15.927  20.303  0.00  0.00    +0.000 C 
ATOM     15  O   UNL     1       6.273  14.959  19.830  0.00  0.00    +0.000 OA
ENDBRANCH   8  15
ENDBRANCH   1  13
BRANCH   7  16
ATOM     16  C   UNL     1       9.431  12.165  18.445  0.00  0.00    +0.000 A 
ATOM     17  C   UNL     1       8.393  11.834  17.570  0.00  0.00    +0.000 A 
ATOM     18  C   UNL     1       7.928  10.528  17.431  0.00  0.00    +0.000 A 
ATOM     19  C   UNL     1       8.421   9.501  18.235  0.00  0.00    +0.000 A 
ATOM     20  C   UNL     1       9.403   9.840  19.183  0.00  0.00    +0.000 A 
ATOM     21  C   UNL     1       9.905  11.160  19.293  0.00  0.00    +0.000 A 
BRANCH  19  22
ATOM     22  C   UNL     1       7.864   8.157  18.076  0.00  0.00    +0.000 A 
ATOM     23  C   UNL     1       8.205   6.919  18.589  0.00  0.00    +0.000 A 
ATOM     24  C   UNL     1       7.323   5.966  18.029  0.00  0.00    +0.000 A 
ATOM     25  C   UNL     1       6.476   6.686  17.216  0.00  0.00    +0.000 A 
ATOM     26  O   UNL     1       6.789   8.009  17.242  0.00  0.00    +0.000 OA
ENDBRANCH  19  22
ENDBRANCH   7  16
BRANCH   2  27
ATOM     27  C   UNL     1      11.089  16.289  19.851  0.00  0.00    +0.000 C 
ATOM     28  O   UNL     1      11.949  15.468  20.198  0.00  0.00    +0.000 OA
BRANCH  27  29
ATOM     29  C   UNL     1      11.066  17.711  20.500  0.00  0.00    +0.000 C 
ATOM     30  C   UNL     1       9.688  18.382  20.468  0.00  0.00    +0.000 C 
ATOM     31  C   UNL     1      11.493  17.609  21.984  0.00  0.00    +0.000 C 
ATOM     32  C   UNL     1      12.076  18.631  19.798  0.00  0.00    +0.000 C 
ENDBRANCH  27  29
ENDBRANCH   2  27
TORSDOF 6
ENDMDL
MODEL 3
REMARK VINA RESULT:      -6.0      1.357      2.413
REMARK  Name = 
REMARK  10 active torsions:
REMARK  status: ('A' for Active; 'I' for Inactive)
REMARK    1  A    between atoms: C_1  and  O_2
REMARK    2  A    between atoms: O_2  and  C_3
REMARK    3  A    between atoms: C_8  and  C_9
REMARK    4  A    between atoms: C_10  and  C_11
REMARK    5  A    between atoms: C_11  and  C_13
REMARK    6  A    between atoms: C_13  and  C_14
REMARK    7  A    between atoms: C_13  and  C_15
REMARK    8  A    between atoms: C_13  and  C_16
REMARK    9  A    between atoms: N_21  and  C_22
REMARK   10  A    between atoms: C_25  and  C_26
REMARK                            x       y       z     vdW  Elec       q    Type
REMARK                         _______ _______ _______ _____ _____    ______ ____
ROOT
ATOM      1  C   UNL     1       9.323  14.935  19.544  0.00  0.00    +0.000 C 
ATOM      2  C   UNL     1      10.145  16.243  19.705  0.00  0.00    +0.000 C 
ATOM      3  C   UNL     1      10.864  16.199  18.379  0.00  0.00    +0.000 C 
ATOM      4  O   UNL     1      11.376  17.154  17.822  0.00  0.00    +0.000 OA
ATOM      5  C   UNL     1      10.830  14.773  17.794  0.00  0.00    +0.000 C 
ATOM      6  O   UNL     1      11.361  14.455  16.752  0.00  0.00    +0.000 OA
ATOM      7  N   UNL     1      10.090  14.017  18.688  0.00  0.00    +0.000 N 
ENDROOT
BRANCH   1  13
ATOM      8  C   UNL     1       7.385  14.405  21.163  0.00  0.00    +0.000 A 
ATOM      9  C   UNL     1       6.896  13.565  22.178  0.00  0.00    +0.000 A 
ATOM     10  C   UNL     1       7.720  12.641  22.825  0.00  0.00    +0.000 A 
ATOM     11  C   UNL     1       9.056  12.556  22.485  0.00  0.00    +0.000 A 
ATOM     12  C   UNL     1       9.557  13.383  21.486  0.00  0.00    +0.000 A 
ATOM     13  C   UNL     1       8.735  14.304  20.784  0.00  0.00    +0.000 A 
BRANCH   8  15
ATOM     14  C   UNL     1       5.029  14.867  20.904  0.00  0.00    +0.000 C 
ATOM     15  O   UNL     1       6.381  15.087  20.532  0.00  0.00    +0.000 OA
ENDBRANCH   8  15
ENDBRANCH   1  13
BRANCH   7  16
ATOM     16  C   UNL     1       9.589  12.709  18.400  0.00  0.00    +0.000 A 
ATOM     17  C   UNL     1      10.287  11.616  18.920  0.00  0.00    +0.000 A 
ATOM     18  C   UNL     1       9.784  10.318  18.856  0.00  0.00    +0.000 A 
ATOM     19  C   UNL     1       8.596  10.040  18.182  0.00  0.00    +0.000 A 
ATOM     20  C   UNL     1       7.931  11.121  17.577  0.00  0.00    +0.000 A 
ATOM     21  C   UNL     1       8.421  12.447  17.679  0.00  0.00    +0.000 A 
BRANCH  19  22
ATOM     22  C   UNL     1       8.139   8.651  18.109  0.00  0.00    +0.000 A 
ATOM     23  C   UNL     1       8.427   7.515  18.842  0.00  0.00    +0.000 A 
ATOM     24  C   UNL     1       7.713   6.440  18.264  0.00  0.00    +0.000 A 
ATOM     25  C   UNL     1       7.011   6.991  17.215  0.00  0.00    +0.000 A 
ATOM     26  O   UNL     1       7.255   8.325  17.117  0.00  0.00    +0.000 OA
ENDBRANCH  19  22
ENDBRANCH   7  16
BRANCH   2  27
ATOM     27  C   UNL     1      11.126  16.352  20.871  0.00  0.00    +0.000 C 
ATOM     28  O   UNL     1      12.204  15.745  20.808  0.00  0.00    +0.000 OA
BRANCH  27  29
ATOM     29  C   UNL     1      10.811  17.245  22.115  0.00  0.00    +0.000 C 
ATOM     30  C   UNL     1      12.000  18.093  22.583  0.00  0.00    +0.000 C 
ATOM     31  C   UNL     1       9.658  18.219  21.774  0.00  0.00    +0.000 C 
ATOM     32  C   UNL     1      10.339  16.373  23.288  0.00  0.00    +0.000 C 
ENDBRANCH  27  29
ENDBRANCH   2  27
TORSDOF 6
ENDMDL
MODEL 4
REMARK VINA RESULT:      -5.9      8.730     11.447
REMARK  Name = 
REMARK  10 active torsions:
REMARK  status: ('A' for Active; 'I' for Inactive)
REMARK    1  A    between atoms: C_1  and  O_2
REMARK    2  A    between atoms: O_2  and  C_3
REMARK    3  A    between atoms: C_8  and  C_9
REMARK    4  A    between atoms: C_10  and  C_11
REMARK    5  A    between atoms: C_11  and  C_13
REMARK    6  A    between atoms: C_13  and  C_14
REMARK    7  A    between atoms: C_13  and  C_15
REMARK    8  A    between atoms: C_13  and  C_16
REMARK    9  A    between atoms: N_21  and  C_22
REMARK   10  A    between atoms: C_25  and  C_26
REMARK                            x       y       z     vdW  Elec       q    Type
REMARK                         _______ _______ _______ _____ _____    ______ ____
ROOT
ATOM      1  C   UNL     1       0.591  13.837  21.457  0.00  0.00    +0.000 C 
ATOM      2  C   UNL     1       1.855  14.672  21.113  0.00  0.00    +0.000 C 
ATOM      3  C   UNL     1       1.620  15.806  22.079  0.00  0.00    +0.000 C 
ATOM      4  O   UNL     1       2.474  16.574  22.487  0.00  0.00    +0.000 OA
ATOM      5  C   UNL     1       0.144  15.843  22.521  0.00  0.00    +0.000 C 
ATOM      6  O   UNL     1      -0.320  16.675  23.271  0.00  0.00    +0.000 OA
ATOM      7  N   UNL     1      -0.462  14.763  21.900  0.00  0.00    +0.000 N 
ENDROOT
BRANCH   1  13
ATOM      8  C   UNL     1       0.218  11.402  20.689  0.00  0.00    +0.000 A 
ATOM      9  C   UNL     1      -0.471  10.532  19.827  0.00  0.00    +0.000 A 
ATOM     10  C   UNL     1      -1.225  11.011  18.753  0.00  0.00    +0.000 A 
ATOM     11  C   UNL     1      -1.285  12.367  18.506  0.00  0.00    +0.000 A 
ATOM     12  C   UNL     1      -0.604  13.242  19.346  0.00  0.00    +0.000 A 
ATOM     13  C   UNL     1       0.138  12.788  20.469  0.00  0.00    +0.000 A 
BRANCH   8  15
ATOM     14  C   UNL     1      -0.132   9.987  22.615  0.00  0.00    +0.000 C 
ATOM     15  O   UNL     1       0.726  10.749  21.779  0.00  0.00    +0.000 OA
ENDBRANCH   8  15
ENDBRANCH   1  13
BRANCH   7  16
ATOM     16  C   UNL     1      -1.759  14.271  22.245  0.00  0.00    +0.000 A 
ATOM     17  C   UNL     1      -2.863  14.849  21.613  0.00  0.00    +0.000 A 
ATOM     18  C   UNL     1      -4.148  14.322  21.738  0.00  0.00    +0.000 A 
ATOM     19  C   UNL     1      -4.402  13.241  22.579  0.00  0.00    +0.000 A 
ATOM     20  C   UNL     1      -3.312  12.708  23.290  0.00  0.00    +0.000 A 
ATOM     21  C   UNL     1      -2.000  13.217  23.131  0.00  0.00    +0.000 A 
BRANCH  19  22
ATOM     22  C   UNL     1      -5.778  12.757  22.705  0.00  0.00    +0.000 A 
ATOM     23  C   UNL     1      -6.708  12.791  23.727  0.00  0.00    +0.000 A 
ATOM     24  C   UNL     1      -7.863  12.109  23.277  0.00  0.00    +0.000 A 
ATOM     25  C   UNL     1      -7.575  11.713  21.991  0.00  0.00    +0.000 A 
ATOM     26  O   UNL     1      -6.322  12.105  21.633  0.00  0.00    +0.000 OA
ENDBRANCH  19  22
ENDBRANCH   7  16
BRANCH   2  27
ATOM     27  C   UNL     1       2.028  15.181  19.682  0.00  0.00    +0.000 C 
ATOM     28  O   UNL     1       1.234  16.025  19.245  0.00  0.00    +0.000 OA
BRANCH  27  29
ATOM     29  C   UNL     1       3.210  14.688  18.785  0.00  0.00    +0.000 C 
ATOM     30  C   UNL     1       3.443  15.554  17.541  0.00  0.00    +0.000 C 
ATOM     31  C   UNL     1       4.522  14.700  19.606  0.00  0.00    +0.000 C 
ATOM     32  C   UNL     1       2.966  13.240  18.335  0.00  0.00    +0.000 C 
ENDBRANCH  27  29
ENDBRANCH   2  27
TORSDOF 6
ENDMDL
MODEL 5
REMARK VINA RESULT:      -5.9      7.898     10.553
REMARK  Name = 
REMARK  10 active torsions:
REMARK  status: ('A' for Active; 'I' for Inactive)
REMARK    1  A    between atoms: C_1  and  O_2
REMARK    2  A    between atoms: O_2  and  C_3
REMARK    3  A    between atoms: C_8  and  C_9
REMARK    4  A    between atoms: C_10  and  C_11
REMARK    5  A    between atoms: C_11  and  C_13
REMARK    6  A    between atoms: C_13  and  C_14
REMARK    7  A    between atoms: C_13  and  C_15
REMARK    8  A    between atoms: C_13  and  C_16
REMARK    9  A    between atoms: N_21  and  C_22
REMARK   10  A    between atoms: C_25  and  C_26
REMARK                            x       y       z     vdW  Elec       q    Type
REMARK                         _______ _______ _______ _____ _____    ______ ____
ROOT
ATOM      1  C   UNL     1       0.499  14.042  19.037  0.00  0.00    +0.000 C 
ATOM      2  C   UNL     1       1.899  13.726  18.444  0.00  0.00    +0.000 C 
ATOM      3  C   UNL     1       1.865  12.229  18.623  0.00  0.00    +0.000 C 
ATOM      4  O   UNL     1       2.556  11.430  18.016  0.00  0.00    +0.000 OA
ATOM      5  C   UNL     1       0.797  11.833  19.662  0.00  0.00    +0.000 C 
ATOM      6  O   UNL     1       0.585  10.694  20.016  0.00  0.00    +0.000 OA
ATOM      7  N   UNL     1       0.189  13.017  20.046  0.00  0.00    +0.000 N 
ENDROOT
BRANCH   1  13
ATOM      8  C   UNL     1       0.653  16.033  20.671  0.00  0.00    +0.000 A 
ATOM      9  C   UNL     1       0.556  17.424  20.844  0.00  0.00    +0.000 A 
ATOM     10  C   UNL     1       0.021  18.250  19.852  0.00  0.00    +0.000 A 
ATOM     11  C   UNL     1      -0.450  17.696  18.678  0.00  0.00    +0.000 A 
ATOM     12  C   UNL     1      -0.366  16.321  18.494  0.00  0.00    +0.000 A 
ATOM     13  C   UNL     1       0.209  15.461  19.467  0.00  0.00    +0.000 A 
BRANCH   8  15
ATOM     14  C   UNL     1       2.168  16.236  22.542  0.00  0.00    +0.000 C 
ATOM     15  O   UNL     1       1.381  15.442  21.668  0.00  0.00    +0.000 OA
ENDBRANCH   8  15
ENDBRANCH   1  13
BRANCH   7  16
ATOM     16  C   UNL     1      -1.030  13.080  20.790  0.00  0.00    +0.000 A 
ATOM     17  C   UNL     1      -2.231  13.040  20.078  0.00  0.00    +0.000 A 
ATOM     18  C   UNL     1      -3.465  12.908  20.713  0.00  0.00    +0.000 A 
ATOM     19  C   UNL     1      -3.561  12.904  22.103  0.00  0.00    +0.000 A 
ATOM     20  C   UNL     1      -2.365  13.035  22.831  0.00  0.00    +0.000 A 
ATOM     21  C   UNL     1      -1.107  13.126  22.185  0.00  0.00    +0.000 A 
BRANCH  19  22
ATOM     22  C   UNL     1      -4.887  12.808  22.715  0.00  0.00    +0.000 A 
ATOM     23  C   UNL     1      -5.361  13.021  23.996  0.00  0.00    +0.000 A 
ATOM     24  C   UNL     1      -6.742  12.715  23.998  0.00  0.00    +0.000 A 
ATOM     25  C   UNL     1      -7.036  12.348  22.704  0.00  0.00    +0.000 A 
ATOM     26  O   UNL     1      -5.925  12.407  21.920  0.00  0.00    +0.000 OA
ENDBRANCH  19  22
ENDBRANCH   7  16
BRANCH   2  27
ATOM     27  C   UNL     1       3.130  14.343  19.107  0.00  0.00    +0.000 C 
ATOM     28  O   UNL     1       3.542  13.864  20.172  0.00  0.00    +0.000 OA
BRANCH  27  29
ATOM     29  C   UNL     1       3.898  15.531  18.442  0.00  0.00    +0.000 C 
ATOM     30  C   UNL     1       4.119  16.725  19.379  0.00  0.00    +0.000 C 
ATOM     31  C   UNL     1       5.293  15.050  17.975  0.00  0.00    +0.000 C 
ATOM     32  C   UNL     1       3.144  16.019  17.196  0.00  0.00    +0.000 C 
ENDBRANCH  27  29
ENDBRANCH   2  27
TORSDOF 6
ENDMDL
MODEL 6
REMARK VINA RESULT:      -5.7      7.295      9.750
REMARK  Name = 
REMARK  10 active torsions:
REMARK  status: ('A' for Active; 'I' for Inactive)
REMARK    1  A    between atoms: C_1  and  O_2
REMARK    2  A    between atoms: O_2  and  C_3
REMARK    3  A    between atoms: C_8  and  C_9
REMARK    4  A    between atoms: C_10  and  C_11
REMARK    5  A    between atoms: C_11  and  C_13
REMARK    6  A    between atoms: C_13  and  C_14
REMARK    7  A    between atoms: C_13  and  C_15
REMARK    8  A    between atoms: C_13  and  C_16
REMARK    9  A    between atoms: N_21  and  C_22
REMARK   10  A    between atoms: C_25  and  C_26
REMARK                            x       y       z     vdW  Elec       q    Type
REMARK                         _______ _______ _______ _____ _____    ______ ____
ROOT
ATOM      1  C   UNL     1      -0.026  13.461  21.968  0.00  0.00    +0.000 C 
ATOM      2  C   UNL     1      -0.974  14.595  22.443  0.00  0.00    +0.000 C 
ATOM      3  C   UNL     1      -1.874  13.758  23.317  0.00  0.00    +0.000 C 
ATOM      4  O   UNL     1      -2.583  14.183  24.212  0.00  0.00    +0.000 OA
ATOM      5  C   UNL     1      -1.747  12.266  22.950  0.00  0.00    +0.000 C 
ATOM      6  O   UNL     1      -2.385  11.381  23.478  0.00  0.00    +0.000 OA
ATOM      7  N   UNL     1      -0.789  12.204  21.951  0.00  0.00    +0.000 N 
ENDROOT
BRANCH   1  13
ATOM      8  C   UNL     1       2.224  13.771  20.742  0.00  0.00    +0.000 A 
ATOM      9  C   UNL     1       2.912  13.734  19.517  0.00  0.00    +0.000 A 
ATOM     10  C   UNL     1       2.234  13.642  18.299  0.00  0.00    +0.000 A 
ATOM     11  C   UNL     1       0.854  13.609  18.281  0.00  0.00    +0.000 A 
ATOM     12  C   UNL     1       0.158  13.651  19.484  0.00  0.00    +0.000 A 
ATOM     13  C   UNL     1       0.819  13.705  20.739  0.00  0.00    +0.000 A 
BRANCH   8  15
ATOM     14  C   UNL     1       4.359  14.259  21.761  0.00  0.00    +0.000 C 
ATOM     15  O   UNL     1       3.071  13.663  21.810  0.00  0.00    +0.000 OA
ENDBRANCH   8  15
ENDBRANCH   1  13
BRANCH   7  16
ATOM     16  C   UNL     1      -0.175  10.990  21.512  0.00  0.00    +0.000 A 
ATOM     17  C   UNL     1      -0.330  10.630  20.172  0.00  0.00    +0.000 A 
ATOM     18  C   UNL     1       0.377   9.572  19.602  0.00  0.00    +0.000 A 
ATOM     19  C   UNL     1       1.207   8.764  20.376  0.00  0.00    +0.000 A 
ATOM     20  C   UNL     1       1.301   9.063  21.747  0.00  0.00    +0.000 A 
ATOM     21  C   UNL     1       0.615  10.164  22.316  0.00  0.00    +0.000 A 
BRANCH  19  22
ATOM     22  C   UNL     1       1.890   7.640  19.733  0.00  0.00    +0.000 A 
ATOM     23  C   UNL     1       2.531   7.486  18.518  0.00  0.00    +0.000 A 
ATOM     24  C   UNL     1       2.956   6.140  18.425  0.00  0.00    +0.000 A 
ATOM     25  C   UNL     1       2.563   5.552  19.607  0.00  0.00    +0.000 A 
ATOM     26  O   UNL     1       1.926   6.450  20.406  0.00  0.00    +0.000 OA
ENDBRANCH  19  22
ENDBRANCH   7  16
BRANCH   2  27
ATOM     27  C   UNL     1      -1.773  15.369  21.394  0.00  0.00    +0.000 C 
ATOM     28  O   UNL     1      -2.790  14.852  20.912  0.00  0.00    +0.000 OA
BRANCH  27  29
ATOM     29  C   UNL     1      -1.353  16.809  20.955  0.00  0.00    +0.000 C 
ATOM     30  C   UNL     1      -1.253  16.987  19.435  0.00  0.00    +0.000 C 
ATOM     31  C   UNL     1      -2.394  17.832  21.470  0.00  0.00    +0.000 C 
ATOM     32  C   UNL     1      -0.000  17.181  21.582  0.00  0.00    +0.000 C 
ENDBRANCH  27  29
ENDBRANCH   2  27
TORSDOF 6
ENDMDL
MODEL 7
REMARK VINA RESULT:      -5.6      7.857     10.576
REMARK  Name = 
REMARK  10 active torsions:
REMARK  status: ('A' for Active; 'I' for Inactive)
REMARK    1  A    between atoms: C_1  and  O_2
REMARK    2  A    between atoms: O_2  and  C_3
REMARK    3  A    between atoms: C_8  and  C_9
REMARK    4  A    between atoms: C_10  and  C_11
REMARK    5  A    between atoms: C_11  and  C_13
REMARK    6  A    between atoms: C_13  and  C_14
REMARK    7  A    between atoms: C_13  and  C_15
REMARK    8  A    between atoms: C_13  and  C_16
REMARK    9  A    between atoms: N_21  and  C_22
REMARK   10  A    between atoms: C_25  and  C_26
REMARK                            x       y       z     vdW  Elec       q    Type
REMARK                         _______ _______ _______ _____ _____    ______ ____
ROOT
ATOM      1  C   UNL     1       0.481  13.911  18.827  0.00  0.00    +0.000 C 
ATOM      2  C   UNL     1       1.939  13.692  18.340  0.00  0.00    +0.000 C 
ATOM      3  C   UNL     1       1.972  12.188  18.462  0.00  0.00    +0.000 C 
ATOM      4  O   UNL     1       2.752  11.451  17.886  0.00  0.00    +0.000 OA
ATOM      5  C   UNL     1       0.848  11.697  19.394  0.00  0.00    +0.000 C 
ATOM      6  O   UNL     1       0.669  10.535  19.689  0.00  0.00    +0.000 OA
ATOM      7  N   UNL     1       0.147  12.832  19.769  0.00  0.00    +0.000 N 
ENDROOT
BRANCH   1  13
ATOM      8  C   UNL     1       0.410  15.846  20.532  0.00  0.00    +0.000 A 
ATOM      9  C   UNL     1       0.221  17.223  20.743  0.00  0.00    +0.000 A 
ATOM     10  C   UNL     1      -0.294  18.053  19.745  0.00  0.00    +0.000 A 
ATOM     11  C   UNL     1      -0.653  17.518  18.524  0.00  0.00    +0.000 A 
ATOM     12  C   UNL     1      -0.477  16.156  18.300  0.00  0.00    +0.000 A 
ATOM     13  C   UNL     1       0.081  15.295  19.282  0.00  0.00    +0.000 A 
BRANCH   8  15
ATOM     14  C   UNL     1       1.626  16.056  22.609  0.00  0.00    +0.000 C 
ATOM     15  O   UNL     1       1.102  15.260  21.557  0.00  0.00    +0.000 OA
ENDBRANCH   8  15
ENDBRANCH   1  13
BRANCH   7  16
ATOM     16  C   UNL     1      -1.130  12.802  20.412  0.00  0.00    +0.000 A 
ATOM     17  C   UNL     1      -1.155  12.784  21.808  0.00  0.00    +0.000 A 
ATOM     18  C   UNL     1      -2.337  12.942  22.530  0.00  0.00    +0.000 A 
ATOM     19  C   UNL     1      -3.567  13.032  21.883  0.00  0.00    +0.000 A 
ATOM     20  C   UNL     1      -3.563  12.961  20.478  0.00  0.00    +0.000 A 
ATOM     21  C   UNL     1      -2.357  12.844  19.744  0.00  0.00    +0.000 A 
BRANCH  19  22
ATOM     22  C   UNL     1      -4.780  13.152  22.694  0.00  0.00    +0.000 A 
ATOM     23  C   UNL     1      -5.838  14.042  22.697  0.00  0.00    +0.000 A 
ATOM     24  C   UNL     1      -6.699  13.680  23.759  0.00  0.00    +0.000 A 
ATOM     25  C   UNL     1      -6.122  12.569  24.334  0.00  0.00    +0.000 A 
ATOM     26  O   UNL     1      -4.967  12.238  23.694  0.00  0.00    +0.000 OA
ENDBRANCH  19  22
ENDBRANCH   7  16
BRANCH   2  27
ATOM     27  C   UNL     1       3.078  14.343  19.125  0.00  0.00    +0.000 C 
ATOM     28  O   UNL     1       3.428  13.842  20.202  0.00  0.00    +0.000 OA
BRANCH  27  29
ATOM     29  C   UNL     1       3.831  15.595  18.570  0.00  0.00    +0.000 C 
ATOM     30  C   UNL     1       3.127  16.262  17.381  0.00  0.00    +0.000 C 
ATOM     31  C   UNL     1       3.957  16.661  19.685  0.00  0.00    +0.000 C 
ATOM     32  C   UNL     1       5.256  15.212  18.143  0.00  0.00    +0.000 C 
ENDBRANCH  27  29
ENDBRANCH   2  27
TORSDOF 6
ENDMDL
MODEL 8
REMARK VINA RESULT:      -5.6      8.704     11.433
REMARK  Name = 
REMARK  10 active torsions:
REMARK  status: ('A' for Active; 'I' for Inactive)
REMARK    1  A    between atoms: C_1  and  O_2
REMARK    2  A    between atoms: O_2  and  C_3
REMARK    3  A    between atoms: C_8  and  C_9
REMARK    4  A    between atoms: C_10  and  C_11
REMARK    5  A    between atoms: C_11  and  C_13
REMARK    6  A    between atoms: C_13  and  C_14
REMARK    7  A    between atoms: C_13  and  C_15
REMARK    8  A    between atoms: C_13  and  C_16
REMARK    9  A    between atoms: N_21  and  C_22
REMARK   10  A    between atoms: C_25  and  C_26
REMARK                            x       y       z     vdW  Elec       q    Type
REMARK                         _______ _______ _______ _____ _____    ______ ____
ROOT
ATOM      1  C   UNL     1      -0.237  13.655  19.443  0.00  0.00    +0.000 C 
ATOM      2  C   UNL     1       1.247  13.371  19.086  0.00  0.00    +0.000 C 
ATOM      3  C   UNL     1       1.185  11.864  19.136  0.00  0.00    +0.000 C 
ATOM      4  O   UNL     1       1.976  11.108  18.600  0.00  0.00    +0.000 OA
ATOM      5  C   UNL     1      -0.051  11.401  19.931  0.00  0.00    +0.000 C 
ATOM      6  O   UNL     1      -0.321  10.239  20.149  0.00  0.00    +0.000 OA
ATOM      7  N   UNL     1      -0.721  12.558  20.293  0.00  0.00    +0.000 N 
ENDROOT
BRANCH   1  13
ATOM      8  C   UNL     1      -0.503  15.467  21.261  0.00  0.00    +0.000 A 
ATOM      9  C   UNL     1      -0.611  16.838  21.549  0.00  0.00    +0.000 A 
ATOM     10  C   UNL     1      -0.825  17.783  20.543  0.00  0.00    +0.000 A 
ATOM     11  C   UNL     1      -0.959  17.373  19.232  0.00  0.00    +0.000 A 
ATOM     12  C   UNL     1      -0.859  16.019  18.930  0.00  0.00    +0.000 A 
ATOM     13  C   UNL     1      -0.603  15.039  19.925  0.00  0.00    +0.000 A 
BRANCH   8  15
ATOM     14  C   UNL     1      -0.547  15.104  23.648  0.00  0.00    +0.000 C 
ATOM     15  O   UNL     1      -0.100  14.744  22.350  0.00  0.00    +0.000 OA
ENDBRANCH   8  15
ENDBRANCH   1  13
BRANCH   7  16
ATOM     16  C   UNL     1      -2.054  12.576  20.810  0.00  0.00    +0.000 A 
ATOM     17  C   UNL     1      -2.228  12.318  22.171  0.00  0.00    +0.000 A 
ATOM     18  C   UNL     1      -3.456  12.494  22.808  0.00  0.00    +0.000 A 
ATOM     19  C   UNL     1      -4.594  12.849  22.087  0.00  0.00    +0.000 A 
ATOM     20  C   UNL     1      -4.449  13.024  20.699  0.00  0.00    +0.000 A 
ATOM     21  C   UNL     1      -3.192  12.886  20.060  0.00  0.00    +0.000 A 
BRANCH  19  22
ATOM     22  C   UNL     1      -5.866  12.976  22.801  0.00  0.00    +0.000 A 
ATOM     23  C   UNL     1      -6.338  13.861  23.752  0.00  0.00    +0.000 A 
ATOM     24  C   UNL     1      -7.641  13.446  24.113  0.00  0.00    +0.000 A 
ATOM     25  C   UNL     1      -7.897  12.335  23.342  0.00  0.00    +0.000 A 
ATOM     26  O   UNL     1      -6.835  12.047  22.541  0.00  0.00    +0.000 OA
ENDBRANCH  19  22
ENDBRANCH   7  16
BRANCH   2  27
ATOM     27  C   UNL     1       2.338  13.917  20.007  0.00  0.00    +0.000 C 
ATOM     28  O   UNL     1       2.573  13.333  21.073  0.00  0.00    +0.000 OA
BRANCH  27  29
ATOM     29  C   UNL     1       3.186  15.167  19.604  0.00  0.00    +0.000 C 
ATOM     30  C   UNL     1       4.694  14.896  19.537  0.00  0.00    +0.000 C 
ATOM     31  C   UNL     1       2.746  15.663  18.205  0.00  0.00    +0.000 C 
ATOM     32  C   UNL     1       2.939  16.317  20.593  0.00  0.00    +0.000 C 
ENDBRANCH  27  29
ENDBRANCH   2  27
TORSDOF 6
ENDMDL
MODEL 9
REMARK VINA RESULT:      -5.6      7.791     10.312
REMARK  Name = 
REMARK  10 active torsions:
REMARK  status: ('A' for Active; 'I' for Inactive)
REMARK    1  A    between atoms: C_1  and  O_2
REMARK    2  A    between atoms: O_2  and  C_3
REMARK    3  A    between atoms: C_8  and  C_9
REMARK    4  A    between atoms: C_10  and  C_11
REMARK    5  A    between atoms: C_11  and  C_13
REMARK    6  A    between atoms: C_13  and  C_14
REMARK    7  A    between atoms: C_13  and  C_15
REMARK    8  A    between atoms: C_13  and  C_16
REMARK    9  A    between atoms: N_21  and  C_22
REMARK   10  A    between atoms: C_25  and  C_26
REMARK                            x       y       z     vdW  Elec       q    Type
REMARK                         _______ _______ _______ _____ _____    ______ ____
ROOT
ATOM      1  C   UNL     1      -0.665  13.790  22.254  0.00  0.00    +0.000 C 
ATOM      2  C   UNL     1      -1.697  14.814  22.801  0.00  0.00    +0.000 C 
ATOM      3  C   UNL     1      -2.540  13.849  23.597  0.00  0.00    +0.000 C 
ATOM      4  O   UNL     1      -3.284  14.153  24.513  0.00  0.00    +0.000 OA
ATOM      5  C   UNL     1      -2.303  12.403  23.121  0.00  0.00    +0.000 C 
ATOM      6  O   UNL     1      -2.879  11.436  23.572  0.00  0.00    +0.000 OA
ATOM      7  N   UNL     1      -1.335  12.486  22.132  0.00  0.00    +0.000 N 
ENDROOT
BRANCH   1  13
ATOM      8  C   UNL     1       1.559  14.398  21.094  0.00  0.00    +0.000 A 
ATOM      9  C   UNL     1       2.266  14.499  19.884  0.00  0.00    +0.000 A 
ATOM     10  C   UNL     1       1.621  14.404  18.649  0.00  0.00    +0.000 A 
ATOM     11  C   UNL     1       0.253  14.231  18.600  0.00  0.00    +0.000 A 
ATOM     12  C   UNL     1      -0.463  14.134  19.788  0.00  0.00    +0.000 A 
ATOM     13  C   UNL     1       0.169  14.187  21.058  0.00  0.00    +0.000 A 
BRANCH   8  15
ATOM     14  C   UNL     1       3.444  15.264  22.332  0.00  0.00    +0.000 C 
ATOM     15  O   UNL     1       2.396  14.319  22.174  0.00  0.00    +0.000 OA
ENDBRANCH   8  15
ENDBRANCH   1  13
BRANCH   7  16
ATOM     16  C   UNL     1      -0.632  11.357  21.610  0.00  0.00    +0.000 A 
ATOM     17  C   UNL     1      -0.818  11.040  20.263  0.00  0.00    +0.000 A 
ATOM     18  C   UNL     1      -0.042  10.080  19.614  0.00  0.00    +0.000 A 
ATOM     19  C   UNL     1       0.897   9.323  20.312  0.00  0.00    +0.000 A 
ATOM     20  C   UNL     1       1.029   9.572  21.690  0.00  0.00    +0.000 A 
ATOM     21  C   UNL     1       0.270  10.577  22.339  0.00  0.00    +0.000 A 
BRANCH  19  22
ATOM     22  C   UNL     1       1.651   8.298  19.587  0.00  0.00    +0.000 A 
ATOM     23  C   UNL     1       2.172   8.227  18.309  0.00  0.00    +0.000 A 
ATOM     24  C   UNL     1       2.760   6.950  18.157  0.00  0.00    +0.000 A 
ATOM     25  C   UNL     1       2.578   6.319  19.368  0.00  0.00    +0.000 A 
ATOM     26  O   UNL     1       1.917   7.127  20.240  0.00  0.00    +0.000 OA
ENDBRANCH  19  22
ENDBRANCH   7  16
BRANCH   2  27
ATOM     27  C   UNL     1      -2.542  15.606  21.804  0.00  0.00    +0.000 C 
ATOM     28  O   UNL     1      -3.488  15.042  21.238  0.00  0.00    +0.000 OA
BRANCH  27  29
ATOM     29  C   UNL     1      -2.258  17.117  21.522  0.00  0.00    +0.000 C 
ATOM     30  C   UNL     1      -3.352  18.058  22.041  0.00  0.00    +0.000 C 
ATOM     31  C   UNL     1      -0.933  17.531  22.208  0.00  0.00    +0.000 C 
ATOM     32  C   UNL     1      -2.084  17.352  20.014  0.00  0.00    +0.000 C 
ENDBRANCH  27  29
ENDBRANCH   2  27
TORSDOF 6
ENDMDL
