MODEL 1
REMARK VINA RESULT:      -5.5      0.000      0.000
REMARK  Name = 
REMARK  16 active torsions:
REMARK  status: ('A' for Active; 'I' for Inactive)
REMARK    1  A    between atoms: C_1  and  C_2
REMARK    2  A    between atoms: C_2  and  N_3
REMARK    3  A    between atoms: C_2  and  C_4
REMARK    4  A    between atoms: N_6  and  C_7
REMARK    5  A    between atoms: C_7  and  C_8
REMARK    6  A    between atoms: C_8  and  C_9
REMARK    7  A    between atoms: C_9  and  N_10
REMARK    8  A    between atoms: N_10  and  C_11
REMARK    9  A    between atoms: C_11  and  C_12
REMARK   10  A    between atoms: C_12  and  C_13
REMARK   11  A    between atoms: C_13  and  C_14
REMARK   12  A    between atoms: C_14  and  N_15
REMARK   13  A    between atoms: N_15  and  C_16
REMARK   14  A    between atoms: C_16  and  C_17
REMARK   15  A    between atoms: C_17  and  C_18
REMARK   16  A    between atoms: C_18  and  N_19
REMARK                            x       y       z     vdW  Elec       q    Type
REMARK                         _______ _______ _______ _____ _____    ______ ____
ROOT
ATOM      1  N   UNL     1       6.242   4.283  18.742  0.00  0.00    +0.000 NA
ATOM      2  H   UNL     1       6.886   3.540  19.017  0.00  0.00    +0.000 HD
ENDROOT
BRANCH   1   3
ATOM      3  C   UNL     1       6.560   5.503  19.484  0.00  0.00    +0.000 C 
BRANCH   3   4
ATOM      4  C   UNL     1       7.821   6.158  18.921  0.00  0.00    +0.000 C 
BRANCH   4   5
ATOM      5  C   UNL     1       7.478   6.968  17.674  0.00  0.00    +0.000 C 
BRANCH   5   8
ATOM      6  C   UNL     1       6.281   6.081  15.706  0.00  0.00    +0.000 C 
ATOM      7  O   UNL     1       5.255   6.707  15.970  0.00  0.00    +0.000 OA
ATOM      8  N   UNL     1       7.415   6.143  16.486  0.00  0.00    +0.000 N 
ATOM      9  H   UNL     1       8.247   5.639  16.204  0.00  0.00    +0.000 HD
BRANCH   6  11
ATOM     10  C   UNL     1       6.269   3.665  14.920  0.00  0.00    +0.000 C 
ATOM     11  C   UNL     1       6.377   5.124  14.495  0.00  0.00    +0.000 C 
BRANCH  11  12
ATOM     12  N   UNL     1       7.662   5.331  13.797  0.00  0.00    +0.000 NA
ATOM     13  H   UNL     1       7.960   4.424  13.427  0.00  0.00    +0.000 HD
ATOM     14  H   UNL     1       8.369   5.528  14.511  0.00  0.00    +0.000 HD
ENDBRANCH  11  12
ENDBRANCH   6  11
ENDBRANCH   5   8
ENDBRANCH   4   5
ENDBRANCH   3   4
ENDBRANCH   1   3
BRANCH   1  15
ATOM     15  C   UNL     1       4.867   3.860  19.015  0.00  0.00    +0.000 C 
BRANCH  15  16
ATOM     16  C   UNL     1       4.080   3.776  17.708  0.00  0.00    +0.000 C 
BRANCH  16  17
ATOM     17  C   UNL     1       3.462   2.388  17.531  0.00  0.00    +0.000 C 
BRANCH  17  18
ATOM     18  C   UNL     1       2.818   1.910  18.832  0.00  0.00    +0.000 C 
BRANCH  18  19
ATOM     19  N   UNL     1       1.393   1.661  18.615  0.00  0.00    +0.000 NA
ATOM     20  H   UNL     1       1.149   0.735  18.964  0.00  0.00    +0.000 HD
BRANCH  19  21
ATOM     21  C   UNL     1       0.584   2.670  19.302  0.00  0.00    +0.000 C 
BRANCH  21  22
ATOM     22  C   UNL     1       1.361   3.258  20.480  0.00  0.00    +0.000 C 
BRANCH  22  23
ATOM     23  C   UNL     1       1.266   4.782  20.472  0.00  0.00    +0.000 C 
BRANCH  23  24
ATOM     24  N   UNL     1       2.383   5.371  21.201  0.00  0.00    +0.000 NA
ATOM     25  H   UNL     1       2.152   5.427  22.193  0.00  0.00    +0.000 HD
ATOM     26  H   UNL     1       2.525   6.330  20.887  0.00  0.00    +0.000 HD
ENDBRANCH  23  24
ENDBRANCH  22  23
ENDBRANCH  21  22
ENDBRANCH  19  21
ENDBRANCH  18  19
ENDBRANCH  17  18
ENDBRANCH  16  17
ENDBRANCH  15  16
ENDBRANCH   1  15
TORSDOF 15
ENDMDL
MODEL 2
REMARK VINA RESULT:      -5.3      2.087      3.605
REMARK  Name = 
REMARK  16 active torsions:
REMARK  status: ('A' for Active; 'I' for Inactive)
REMARK    1  A    between atoms: C_1  and  C_2
REMARK    2  A    between atoms: C_2  and  N_3
REMARK    3  A    between atoms: C_2  and  C_4
REMARK    4  A    between atoms: N_6  and  C_7
REMARK    5  A    between atoms: C_7  and  C_8
REMARK    6  A    between atoms: C_8  and  C_9
REMARK    7  A    between atoms: C_9  and  N_10
REMARK    8  A    between atoms: N_10  and  C_11
REMARK    9  A    between atoms: C_11  and  C_12
REMARK   10  A    between atoms: C_12  and  C_13
REMARK   11  A    between atoms: C_13  and  C_14
REMARK   12  A    between atoms: C_14  and  N_15
REMARK   13  A    between atoms: N_15  and  C_16
REMARK   14  A    between atoms: C_16  and  C_17
REMARK   15  A    between atoms: C_17  and  C_18
REMARK   16  A    between atoms: C_18  and  N_19
REMARK                            x       y       z     vdW  Elec       q    Type
REMARK                         _______ _______ _______ _____ _____    ______ ____
ROOT
ATOM      1  N   UNL     1       2.712   5.693  18.572  0.00  0.00    +0.000 NA
ATOM      2  H   UNL     1       3.562   5.487  18.045  0.00  0.00    +0.000 HD
ENDROOT
BRANCH   1   3
ATOM      3  C   UNL     1       2.283   7.063  18.289  0.00  0.00    +0.000 C 
BRANCH   3   4
ATOM      4  C   UNL     1       3.398   7.838  17.586  0.00  0.00    +0.000 C 
BRANCH   4   5
ATOM      5  C   UNL     1       4.301   6.875  16.820  0.00  0.00    +0.000 C 
BRANCH   5   8
ATOM      6  C   UNL     1       6.056   5.258  17.453  0.00  0.00    +0.000 C 
ATOM      7  O   UNL     1       5.620   4.394  16.693  0.00  0.00    +0.000 OA
ATOM      8  N   UNL     1       5.472   6.499  17.585  0.00  0.00    +0.000 N 
ATOM      9  H   UNL     1       5.893   7.190  18.194  0.00  0.00    +0.000 HD
BRANCH   6  11
ATOM     10  C   UNL     1       7.972   6.316  18.743  0.00  0.00    +0.000 C 
ATOM     11  C   UNL     1       7.276   5.013  18.370  0.00  0.00    +0.000 C 
BRANCH  11  12
ATOM     12  N   UNL     1       8.242   4.127  17.689  0.00  0.00    +0.000 NA
ATOM     13  H   UNL     1       7.707   3.375  17.245  0.00  0.00    +0.000 HD
ATOM     14  H   UNL     1       8.768   3.633  18.415  0.00  0.00    +0.000 HD
ENDBRANCH  11  12
ENDBRANCH   6  11
ENDBRANCH   5   8
ENDBRANCH   4   5
ENDBRANCH   3   4
ENDBRANCH   1   3
BRANCH   1  15
ATOM     15  C   UNL     1       2.975   5.524  20.003  0.00  0.00    +0.000 C 
BRANCH  15  16
ATOM     16  C   UNL     1       1.654   5.452  20.768  0.00  0.00    +0.000 C 
BRANCH  16  17
ATOM     17  C   UNL     1       0.874   4.191  20.392  0.00  0.00    +0.000 C 
BRANCH  17  18
ATOM     18  C   UNL     1       1.518   2.950  21.010  0.00  0.00    +0.000 C 
BRANCH  18  19
ATOM     19  N   UNL     1       1.673   1.913  19.989  0.00  0.00    +0.000 NA
ATOM     20  H   UNL     1       1.096   1.107  20.227  0.00  0.00    +0.000 HD
BRANCH  19  21
ATOM     21  C   UNL     1       1.280   2.423  18.674  0.00  0.00    +0.000 C 
BRANCH  21  22
ATOM     22  C   UNL     1       2.422   2.237  17.674  0.00  0.00    +0.000 C 
BRANCH  22  23
ATOM     23  C   UNL     1       3.591   1.507  18.332  0.00  0.00    +0.000 C 
BRANCH  23  24
ATOM     24  N   UNL     1       4.532   2.459  18.910  0.00  0.00    +0.000 NA
ATOM     25  H   UNL     1       4.824   2.135  19.832  0.00  0.00    +0.000 HD
ATOM     26  H   UNL     1       4.064   3.352  19.057  0.00  0.00    +0.000 HD
ENDBRANCH  23  24
ENDBRANCH  22  23
ENDBRANCH  21  22
ENDBRANCH  19  21
ENDBRANCH  18  19
ENDBRANCH  17  18
ENDBRANCH  16  17
ENDBRANCH  15  16
ENDBRANCH   1  15
TORSDOF 15
ENDMDL
MODEL 3
REMARK VINA RESULT:      -5.1      2.423      4.288
REMARK  Name = 
REMARK  16 active torsions:
REMARK  status: ('A' for Active; 'I' for Inactive)
REMARK    1  A    between atoms: C_1  and  C_2
REMARK    2  A    between atoms: C_2  and  N_3
REMARK    3  A    between atoms: C_2  and  C_4
REMARK    4  A    between atoms: N_6  and  C_7
REMARK    5  A    between atoms: C_7  and  C_8
REMARK    6  A    between atoms: C_8  and  C_9
REMARK    7  A    between atoms: C_9  and  N_10
REMARK    8  A    between atoms: N_10  and  C_11
REMARK    9  A    between atoms: C_11  and  C_12
REMARK   10  A    between atoms: C_12  and  C_13
REMARK   11  A    between atoms: C_13  and  C_14
REMARK   12  A    between atoms: C_14  and  N_15
REMARK   13  A    between atoms: N_15  and  C_16
REMARK   14  A    between atoms: C_16  and  C_17
REMARK   15  A    between atoms: C_17  and  C_18
REMARK   16  A    between atoms: C_18  and  N_19
REMARK                            x       y       z     vdW  Elec       q    Type
REMARK                         _______ _______ _______ _____ _____    ______ ____
ROOT
ATOM      1  N   UNL     1       3.110   2.542  19.381  0.00  0.00    +0.000 NA
ATOM      2  H   UNL     1       3.114   3.551  19.532  0.00  0.00    +0.000 HD
ENDROOT
BRANCH   1   3
ATOM      3  C   UNL     1       3.172   2.264  17.946  0.00  0.00    +0.000 C 
BRANCH   3   4
ATOM      4  C   UNL     1       2.687   3.472  17.145  0.00  0.00    +0.000 C 
BRANCH   4   5
ATOM      5  C   UNL     1       3.371   4.741  17.647  0.00  0.00    +0.000 C 
BRANCH   5   8
ATOM      6  C   UNL     1       5.831   4.695  17.850  0.00  0.00    +0.000 C 
ATOM      7  O   UNL     1       5.788   4.375  19.038  0.00  0.00    +0.000 OA
ATOM      8  N   UNL     1       4.699   4.901  17.092  0.00  0.00    +0.000 N 
ATOM      9  H   UNL     1       4.787   5.124  16.108  0.00  0.00    +0.000 HD
BRANCH   6  11
ATOM     10  C   UNL     1       7.049   4.633  15.621  0.00  0.00    +0.000 C 
ATOM     11  C   UNL     1       7.164   4.944  17.108  0.00  0.00    +0.000 C 
BRANCH  11  12
ATOM     12  N   UNL     1       8.227   4.103  17.698  0.00  0.00    +0.000 NA
ATOM     13  H   UNL     1       9.061   4.209  17.114  0.00  0.00    +0.000 HD
ATOM     14  H   UNL     1       7.964   3.126  17.542  0.00  0.00    +0.000 HD
ENDBRANCH  11  12
ENDBRANCH   6  11
ENDBRANCH   5   8
ENDBRANCH   4   5
ENDBRANCH   3   4
ENDBRANCH   1   3
BRANCH   1  15
ATOM     15  C   UNL     1       1.893   1.969  19.962  0.00  0.00    +0.000 C 
BRANCH  15  16
ATOM     16  C   UNL     1       1.060   3.072  20.613  0.00  0.00    +0.000 C 
BRANCH  16  17
ATOM     17  C   UNL     1       1.926   4.291  20.936  0.00  0.00    +0.000 C 
BRANCH  17  18
ATOM     18  C   UNL     1       1.231   5.581  20.500  0.00  0.00    +0.000 C 
BRANCH  18  19
ATOM     19  N   UNL     1       2.049   6.734  20.876  0.00  0.00    +0.000 NA
ATOM     20  H   UNL     1       3.018   6.443  21.001  0.00  0.00    +0.000 HD
BRANCH  19  21
ATOM     21  C   UNL     1       1.981   7.772  19.846  0.00  0.00    +0.000 C 
BRANCH  21  22
ATOM     22  C   UNL     1       1.132   8.946  20.334  0.00  0.00    +0.000 C 
BRANCH  22  23
ATOM     23  C   UNL     1       0.827   8.798  21.823  0.00  0.00    +0.000 C 
BRANCH  23  24
ATOM     24  N   UNL     1       1.933   9.305  22.628  0.00  0.00    +0.000 NA
ATOM     25  H   UNL     1       1.676  10.206  23.031  0.00  0.00    +0.000 HD
ATOM     26  H   UNL     1       2.737   9.480  22.027  0.00  0.00    +0.000 HD
ENDBRANCH  23  24
ENDBRANCH  22  23
ENDBRANCH  21  22
ENDBRANCH  19  21
ENDBRANCH  18  19
ENDBRANCH  17  18
ENDBRANCH  16  17
ENDBRANCH  15  16
ENDBRANCH   1  15
TORSDOF 15
ENDMDL
MODEL 4
REMARK VINA RESULT:      -5.1      1.527      1.592
REMARK  Name = 
REMARK  16 active torsions:
REMARK  status: ('A' for Active; 'I' for Inactive)
REMARK    1  A    between atoms: C_1  and  C_2
REMARK    2  A    between atoms: C_2  and  N_3
REMARK    3  A    between atoms: C_2  and  C_4
REMARK    4  A    between atoms: N_6  and  C_7
REMARK    5  A    between atoms: C_7  and  C_8
REMARK    6  A    between atoms: C_8  and  C_9
REMARK    7  A    between atoms: C_9  and  N_10
REMARK    8  A    between atoms: N_10  and  C_11
REMARK    9  A    between atoms: C_11  and  C_12
REMARK   10  A    between atoms: C_12  and  C_13
REMARK   11  A    between atoms: C_13  and  C_14
REMARK   12  A    between atoms: C_14  and  N_15
REMARK   13  A    between atoms: N_15  and  C_16
REMARK   14  A    between atoms: C_16  and  C_17
REMARK   15  A    between atoms: C_17  and  C_18
REMARK   16  A    between atoms: C_18  and  N_19
REMARK                            x       y       z     vdW  Elec       q    Type
REMARK                         _______ _______ _______ _____ _____    ______ ____
ROOT
ATOM      1  N   UNL     1       6.597   4.226  18.494  0.00  0.00    +0.000 NA
ATOM      2  H   UNL     1       6.844   3.339  18.934  0.00  0.00    +0.000 HD
ENDROOT
BRANCH   1   3
ATOM      3  C   UNL     1       7.753   5.122  18.521  0.00  0.00    +0.000 C 
BRANCH   3   4
ATOM      4  C   UNL     1       7.324   6.558  18.218  0.00  0.00    +0.000 C 
BRANCH   4   5
ATOM      5  C   UNL     1       7.334   6.799  16.711  0.00  0.00    +0.000 C 
BRANCH   5   8
ATOM      6  C   UNL     1       6.964   5.264  14.813  0.00  0.00    +0.000 C 
ATOM      7  O   UNL     1       8.037   5.558  14.286  0.00  0.00    +0.000 OA
ATOM      8  N   UNL     1       6.535   5.826  15.996  0.00  0.00    +0.000 N 
ATOM      9  H   UNL     1       5.663   5.520  16.409  0.00  0.00    +0.000 HD
BRANCH   6  11
ATOM     10  C   UNL     1       5.501   3.217  15.163  0.00  0.00    +0.000 C 
ATOM     11  C   UNL     1       5.971   4.270  14.168  0.00  0.00    +0.000 C 
BRANCH  11  12
ATOM     12  N   UNL     1       6.614   3.598  13.019  0.00  0.00    +0.000 NA
ATOM     13  H   UNL     1       6.077   2.749  12.820  0.00  0.00    +0.000 HD
ATOM     14  H   UNL     1       7.511   3.227  13.346  0.00  0.00    +0.000 HD
ENDBRANCH  11  12
ENDBRANCH   6  11
ENDBRANCH   5   8
ENDBRANCH   4   5
ENDBRANCH   3   4
ENDBRANCH   1   3
BRANCH   1  15
ATOM     15  C   UNL     1       5.468   4.825  19.209  0.00  0.00    +0.000 C 
BRANCH  15  16
ATOM     16  C   UNL     1       4.190   4.667  18.387  0.00  0.00    +0.000 C 
BRANCH  16  17
ATOM     17  C   UNL     1       3.776   3.197  18.300  0.00  0.00    +0.000 C 
BRANCH  17  18
ATOM     18  C   UNL     1       2.555   3.029  17.397  0.00  0.00    +0.000 C 
BRANCH  18  19
ATOM     19  N   UNL     1       1.356   3.496  18.094  0.00  0.00    +0.000 NA
ATOM     20  H   UNL     1       0.541   3.374  17.495  0.00  0.00    +0.000 HD
BRANCH  19  21
ATOM     21  C   UNL     1       1.162   2.752  19.340  0.00  0.00    +0.000 C 
BRANCH  21  22
ATOM     22  C   UNL     1       0.861   3.715  20.488  0.00  0.00    +0.000 C 
BRANCH  22  23
ATOM     23  C   UNL     1       2.101   3.905  21.360  0.00  0.00    +0.000 C 
BRANCH  23  24
ATOM     24  N   UNL     1       2.492   2.645  21.981  0.00  0.00    +0.000 NA
ATOM     25  H   UNL     1       1.831   2.409  22.721  0.00  0.00    +0.000 HD
ATOM     26  H   UNL     1       3.399   2.756  22.432  0.00  0.00    +0.000 HD
ENDBRANCH  23  24
ENDBRANCH  22  23
ENDBRANCH  21  22
ENDBRANCH  19  21
ENDBRANCH  18  19
ENDBRANCH  17  18
ENDBRANCH  16  17
ENDBRANCH  15  16
ENDBRANCH   1  15
TORSDOF 15
ENDMDL
MODEL 5
REMARK VINA RESULT:      -5.1      1.043      1.193
REMARK  Name = 
REMARK  16 active torsions:
REMARK  status: ('A' for Active; 'I' for Inactive)
REMARK    1  A    between atoms: C_1  and  C_2
REMARK    2  A    between atoms: C_2  and  N_3
REMARK    3  A    between atoms: C_2  and  C_4
REMARK    4  A    between atoms: N_6  and  C_7
REMARK    5  A    between atoms: C_7  and  C_8
REMARK    6  A    between atoms: C_8  and  C_9
REMARK    7  A    between atoms: C_9  and  N_10
REMARK    8  A    between atoms: N_10  and  C_11
REMARK    9  A    between atoms: C_11  and  C_12
REMARK   10  A    between atoms: C_12  and  C_13
REMARK   11  A    between atoms: C_13  and  C_14
REMARK   12  A    between atoms: C_14  and  N_15
REMARK   13  A    between atoms: N_15  and  C_16
REMARK   14  A    between atoms: C_16  and  C_17
REMARK   15  A    between atoms: C_17  and  C_18
REMARK   16  A    between atoms: C_18  and  N_19
REMARK                            x       y       z     vdW  Elec       q    Type
REMARK                         _______ _______ _______ _____ _____    ______ ____
ROOT
ATOM      1  N   UNL     1       5.718   4.069  18.737  0.00  0.00    +0.000 NA
ATOM      2  H   UNL     1       5.681   3.266  19.365  0.00  0.00    +0.000 HD
ENDROOT
BRANCH   1   3
ATOM      3  C   UNL     1       6.124   5.257  19.488  0.00  0.00    +0.000 C 
BRANCH   3   4
ATOM      4  C   UNL     1       7.474   5.771  18.988  0.00  0.00    +0.000 C 
BRANCH   4   5
ATOM      5  C   UNL     1       7.302   6.467  17.641  0.00  0.00    +0.000 C 
BRANCH   5   8
ATOM      6  C   UNL     1       6.730   5.476  15.452  0.00  0.00    +0.000 C 
ATOM      7  O   UNL     1       5.678   6.111  15.371  0.00  0.00    +0.000 OA
ATOM      8  N   UNL     1       7.584   5.582  16.529  0.00  0.00    +0.000 N 
ATOM      9  H   UNL     1       8.457   5.070  16.529  0.00  0.00    +0.000 HD
BRANCH   6  11
ATOM     10  C   UNL     1       7.518   5.148  13.059  0.00  0.00    +0.000 C 
ATOM     11  C   UNL     1       7.169   4.460  14.372  0.00  0.00    +0.000 C 
BRANCH  11  12
ATOM     12  N   UNL     1       6.084   3.486  14.136  0.00  0.00    +0.000 NA
ATOM     13  H   UNL     1       6.118   2.798  14.894  0.00  0.00    +0.000 HD
ATOM     14  H   UNL     1       6.345   2.932  13.315  0.00  0.00    +0.000 HD
ENDBRANCH  11  12
ENDBRANCH   6  11
ENDBRANCH   5   8
ENDBRANCH   4   5
ENDBRANCH   3   4
ENDBRANCH   1   3
BRANCH   1  15
ATOM     15  C   UNL     1       4.400   4.272  18.130  0.00  0.00    +0.000 C 
BRANCH  15  16
ATOM     16  C   UNL     1       4.126   3.172  17.106  0.00  0.00    +0.000 C 
BRANCH  16  17
ATOM     17  C   UNL     1       3.301   2.043  17.726  0.00  0.00    +0.000 C 
BRANCH  17  18
ATOM     18  C   UNL     1       1.925   2.550  18.157  0.00  0.00    +0.000 C 
BRANCH  18  19
ATOM     19  N   UNL     1       1.433   1.750  19.279  0.00  0.00    +0.000 NA
ATOM     20  H   UNL     1       1.976   0.890  19.353  0.00  0.00    +0.000 HD
BRANCH  19  21
ATOM     21  C   UNL     1       1.537   2.501  20.532  0.00  0.00    +0.000 C 
BRANCH  21  22
ATOM     22  C   UNL     1       1.216   3.976  20.291  0.00  0.00    +0.000 C 
BRANCH  22  23
ATOM     23  C   UNL     1       2.199   4.865  21.051  0.00  0.00    +0.000 C 
BRANCH  23  24
ATOM     24  N   UNL     1       2.360   6.148  20.376  0.00  0.00    +0.000 NA
ATOM     25  H   UNL     1       2.823   6.005  19.478  0.00  0.00    +0.000 HD
ATOM     26  H   UNL     1       2.977   6.744  20.924  0.00  0.00    +0.000 HD
ENDBRANCH  23  24
ENDBRANCH  22  23
ENDBRANCH  21  22
ENDBRANCH  19  21
ENDBRANCH  18  19
ENDBRANCH  17  18
ENDBRANCH  16  17
ENDBRANCH  15  16
ENDBRANCH   1  15
TORSDOF 15
ENDMDL
MODEL 6
REMARK VINA RESULT:      -5.0      1.698      1.972
REMARK  Name = 
REMARK  16 active torsions:
REMARK  status: ('A' for Active; 'I' for Inactive)
REMARK    1  A    between atoms: C_1  and  C_2
REMARK    2  A    between atoms: C_2  and  N_3
REMARK    3  A    between atoms: C_2  and  C_4
REMARK    4  A    between atoms: N_6  and  C_7
REMARK    5  A    between atoms: C_7  and  C_8
REMARK    6  A    between atoms: C_8  and  C_9
REMARK    7  A    between atoms: C_9  and  N_10
REMARK    8  A    between atoms: N_10  and  C_11
REMARK    9  A    between atoms: C_11  and  C_12
REMARK   10  A    between atoms: C_12  and  C_13
REMARK   11  A    between atoms: C_13  and  C_14
REMARK   12  A    between atoms: C_14  and  N_15
REMARK   13  A    between atoms: N_15  and  C_16
REMARK   14  A    between atoms: C_16  and  C_17
REMARK   15  A    between atoms: C_17  and  C_18
REMARK   16  A    between atoms: C_18  and  N_19
REMARK                            x       y       z     vdW  Elec       q    Type
REMARK                         _______ _______ _______ _____ _____    ______ ____
ROOT
ATOM      1  N   UNL     1       6.303   4.354  18.487  0.00  0.00    +0.000 NA
ATOM      2  H   UNL     1       6.373   3.405  18.855  0.00  0.00    +0.000 HD
ENDROOT
BRANCH   1   3
ATOM      3  C   UNL     1       7.641   4.853  18.170  0.00  0.00    +0.000 C 
BRANCH   3   4
ATOM      4  C   UNL     1       7.640   6.381  18.102  0.00  0.00    +0.000 C 
BRANCH   4   5
ATOM      5  C   UNL     1       7.295   6.842  16.689  0.00  0.00    +0.000 C 
BRANCH   5   8
ATOM      6  C   UNL     1       6.789   5.277  14.846  0.00  0.00    +0.000 C 
ATOM      7  O   UNL     1       7.879   5.465  14.306  0.00  0.00    +0.000 OA
ATOM      8  N   UNL     1       6.415   5.912  16.011  0.00  0.00    +0.000 N 
ATOM      9  H   UNL     1       5.523   5.694  16.438  0.00  0.00    +0.000 HD
BRANCH   6  11
ATOM     10  C   UNL     1       4.972   3.565  15.317  0.00  0.00    +0.000 C 
ATOM     11  C   UNL     1       5.714   4.346  14.240  0.00  0.00    +0.000 C 
BRANCH  11  12
ATOM     12  N   UNL     1       6.350   3.396  13.303  0.00  0.00    +0.000 NA
ATOM     13  H   UNL     1       5.800   3.402  12.440  0.00  0.00    +0.000 HD
ATOM     14  H   UNL     1       6.187   2.453  13.669  0.00  0.00    +0.000 HD
ENDBRANCH  11  12
ENDBRANCH   6  11
ENDBRANCH   5   8
ENDBRANCH   4   5
ENDBRANCH   3   4
ENDBRANCH   1   3
BRANCH   1  15
ATOM     15  C   UNL     1       5.658   5.214  19.481  0.00  0.00    +0.000 C 
BRANCH  15  16
ATOM     16  C   UNL     1       4.144   5.008  19.441  0.00  0.00    +0.000 C 
BRANCH  16  17
ATOM     17  C   UNL     1       3.536   5.661  18.199  0.00  0.00    +0.000 C 
BRANCH  17  18
ATOM     18  C   UNL     1       2.241   4.960  17.795  0.00  0.00    +0.000 C 
BRANCH  18  19
ATOM     19  N   UNL     1       2.397   3.512  17.938  0.00  0.00    +0.000 NA
ATOM     20  H   UNL     1       3.207   3.309  18.522  0.00  0.00    +0.000 HD
BRANCH  19  21
ATOM     21  C   UNL     1       1.200   2.921  18.540  0.00  0.00    +0.000 C 
BRANCH  21  22
ATOM     22  C   UNL     1       1.551   2.267  19.876  0.00  0.00    +0.000 C 
BRANCH  22  23
ATOM     23  C   UNL     1       1.275   3.230  21.029  0.00  0.00    +0.000 C 
BRANCH  23  24
ATOM     24  N   UNL     1       2.161   2.953  22.154  0.00  0.00    +0.000 NA
ATOM     25  H   UNL     1       1.606   2.804  22.997  0.00  0.00    +0.000 HD
ATOM     26  H   UNL     1       2.742   3.770  22.336  0.00  0.00    +0.000 HD
ENDBRANCH  23  24
ENDBRANCH  22  23
ENDBRANCH  21  22
ENDBRANCH  19  21
ENDBRANCH  18  19
ENDBRANCH  17  18
ENDBRANCH  16  17
ENDBRANCH  15  16
ENDBRANCH   1  15
TORSDOF 15
ENDMDL
MODEL 7
REMARK VINA RESULT:      -5.0      1.857      3.287
REMARK  Name = 
REMARK  16 active torsions:
REMARK  status: ('A' for Active; 'I' for Inactive)
REMARK    1  A    between atoms: C_1  and  C_2
REMARK    2  A    between atoms: C_2  and  N_3
REMARK    3  A    between atoms: C_2  and  C_4
REMARK    4  A    between atoms: N_6  and  C_7
REMARK    5  A    between atoms: C_7  and  C_8
REMARK    6  A    between atoms: C_8  and  C_9
REMARK    7  A    between atoms: C_9  and  N_10
REMARK    8  A    between atoms: N_10  and  C_11
REMARK    9  A    between atoms: C_11  and  C_12
REMARK   10  A    between atoms: C_12  and  C_13
REMARK   11  A    between atoms: C_13  and  C_14
REMARK   12  A    between atoms: C_14  and  N_15
REMARK   13  A    between atoms: N_15  and  C_16
REMARK   14  A    between atoms: C_16  and  C_17
REMARK   15  A    between atoms: C_17  and  C_18
REMARK   16  A    between atoms: C_18  and  N_19
REMARK                            x       y       z     vdW  Elec       q    Type
REMARK                         _______ _______ _______ _____ _____    ______ ____
ROOT
ATOM      1  N   UNL     1       2.215   6.941  20.177  0.00  0.00    +0.000 NA
ATOM      2  H   UNL     1       1.371   7.131  20.718  0.00  0.00    +0.000 HD
ENDROOT
BRANCH   1   3
ATOM      3  C   UNL     1       2.262   7.832  19.018  0.00  0.00    +0.000 C 
BRANCH   3   4
ATOM      4  C   UNL     1       2.926   7.132  17.832  0.00  0.00    +0.000 C 
BRANCH   4   5
ATOM      5  C   UNL     1       4.381   7.575  17.711  0.00  0.00    +0.000 C 
BRANCH   5   8
ATOM      6  C   UNL     1       5.566   6.221  16.019  0.00  0.00    +0.000 C 
ATOM      7  O   UNL     1       5.117   6.884  15.085  0.00  0.00    +0.000 OA
ATOM      8  N   UNL     1       5.255   6.482  17.336  0.00  0.00    +0.000 N 
ATOM      9  H   UNL     1       5.682   5.932  18.071  0.00  0.00    +0.000 HD
BRANCH   6  11
ATOM     10  C   UNL     1       7.229   4.614  17.072  0.00  0.00    +0.000 C 
ATOM     11  C   UNL     1       6.484   4.996  15.799  0.00  0.00    +0.000 C 
BRANCH  11  12
ATOM     12  N   UNL     1       7.465   5.295  14.735  0.00  0.00    +0.000 NA
ATOM     13  H   UNL     1       7.807   4.400  14.374  0.00  0.00    +0.000 HD
ATOM     14  H   UNL     1       8.295   5.689  15.187  0.00  0.00    +0.000 HD
ENDBRANCH  11  12
ENDBRANCH   6  11
ENDBRANCH   5   8
ENDBRANCH   4   5
ENDBRANCH   3   4
ENDBRANCH   1   3
BRANCH   1  15
ATOM     15  C   UNL     1       2.210   5.541  19.747  0.00  0.00    +0.000 C 
BRANCH  15  16
ATOM     16  C   UNL     1       1.466   4.685  20.772  0.00  0.00    +0.000 C 
BRANCH  16  17
ATOM     17  C   UNL     1       0.743   3.522  20.090  0.00  0.00    +0.000 C 
BRANCH  17  18
ATOM     18  C   UNL     1       1.652   2.298  19.996  0.00  0.00    +0.000 C 
BRANCH  18  19
ATOM     19  N   UNL     1       1.818   1.911  18.595  0.00  0.00    +0.000 NA
ATOM     20  H   UNL     1       1.458   2.647  17.990  0.00  0.00    +0.000 HD
BRANCH  19  21
ATOM     21  C   UNL     1       3.231   1.675  18.290  0.00  0.00    +0.000 C 
BRANCH  21  22
ATOM     22  C   UNL     1       3.937   3.000  18.005  0.00  0.00    +0.000 C 
BRANCH  22  23
ATOM     23  C   UNL     1       4.914   3.335  19.130  0.00  0.00    +0.000 C 
BRANCH  23  24
ATOM     24  N   UNL     1       5.087   2.192  20.019  0.00  0.00    +0.000 NA
ATOM     25  H   UNL     1       4.252   1.607  19.990  0.00  0.00    +0.000 HD
ATOM     26  H   UNL     1       5.173   2.519  20.980  0.00  0.00    +0.000 HD
ENDBRANCH  23  24
ENDBRANCH  22  23
ENDBRANCH  21  22
ENDBRANCH  19  21
ENDBRANCH  18  19
ENDBRANCH  17  18
ENDBRANCH  16  17
ENDBRANCH  15  16
ENDBRANCH   1  15
TORSDOF 15
ENDMDL
MODEL 8
REMARK VINA RESULT:      -5.0      1.878      3.401
REMARK  Name = 
REMARK  16 active torsions:
REMARK  status: ('A' for Active; 'I' for Inactive)
REMARK    1  A    between atoms: C_1  and  C_2
REMARK    2  A    between atoms: C_2  and  N_3
REMARK    3  A    between atoms: C_2  and  C_4
REMARK    4  A    between atoms: N_6  and  C_7
REMARK    5  A    between atoms: C_7  and  C_8
REMARK    6  A    between atoms: C_8  and  C_9
REMARK    7  A    between atoms: C_9  and  N_10
REMARK    8  A    between atoms: N_10  and  C_11
REMARK    9  A    between atoms: C_11  and  C_12
REMARK   10  A    between atoms: C_12  and  C_13
REMARK   11  A    between atoms: C_13  and  C_14
REMARK   12  A    between atoms: C_14  and  N_15
REMARK   13  A    between atoms: N_15  and  C_16
REMARK   14  A    between atoms: C_16  and  C_17
REMARK   15  A    between atoms: C_17  and  C_18
REMARK   16  A    between atoms: C_18  and  N_19
REMARK                            x       y       z     vdW  Elec       q    Type
REMARK                         _______ _______ _______ _____ _____    ______ ____
ROOT
ATOM      1  N   UNL     1       2.827   5.402  20.757  0.00  0.00    +0.000 NA
ATOM      2  H   UNL     1       2.955   6.060  21.526  0.00  0.00    +0.000 HD
ENDROOT
BRANCH   1   3
ATOM      3  C   UNL     1       3.700   5.776  19.644  0.00  0.00    +0.000 C 
BRANCH   3   4
ATOM      4  C   UNL     1       2.938   6.631  18.631  0.00  0.00    +0.000 C 
BRANCH   4   5
ATOM      5  C   UNL     1       3.888   7.123  17.543  0.00  0.00    +0.000 C 
BRANCH   5   8
ATOM      6  C   UNL     1       5.539   6.070  16.039  0.00  0.00    +0.000 C 
ATOM      7  O   UNL     1       5.186   6.749  15.075  0.00  0.00    +0.000 OA
ATOM      8  N   UNL     1       4.956   6.181  17.283  0.00  0.00    +0.000 N 
ATOM      9  H   UNL     1       5.309   5.627  18.054  0.00  0.00    +0.000 HD
BRANCH   6  11
ATOM     10  C   UNL     1       6.400   4.055  14.753  0.00  0.00    +0.000 C 
ATOM     11  C   UNL     1       6.640   4.990  15.931  0.00  0.00    +0.000 C 
BRANCH  11  12
ATOM     12  N   UNL     1       6.683   4.197  17.178  0.00  0.00    +0.000 NA
ATOM     13  H   UNL     1       6.891   4.842  17.945  0.00  0.00    +0.000 HD
ATOM     14  H   UNL     1       7.523   3.613  17.138  0.00  0.00    +0.000 HD
ENDBRANCH  11  12
ENDBRANCH   6  11
ENDBRANCH   5   8
ENDBRANCH   4   5
ENDBRANCH   3   4
ENDBRANCH   1   3
BRANCH   1  15
ATOM     15  C   UNL     1       1.424   5.416  20.335  0.00  0.00    +0.000 C 
BRANCH  15  16
ATOM     16  C   UNL     1       0.825   4.018  20.480  0.00  0.00    +0.000 C 
BRANCH  16  17
ATOM     17  C   UNL     1       1.553   3.222  21.564  0.00  0.00    +0.000 C 
BRANCH  17  18
ATOM     18  C   UNL     1       2.305   2.039  20.956  0.00  0.00    +0.000 C 
BRANCH  18  19
ATOM     19  N   UNL     1       3.747   2.254  21.080  0.00  0.00    +0.000 NA
ATOM     20  H   UNL     1       4.150   1.540  21.685  0.00  0.00    +0.000 HD
BRANCH  19  21
ATOM     21  C   UNL     1       4.391   2.201  19.766  0.00  0.00    +0.000 C 
BRANCH  21  22
ATOM     22  C   UNL     1       3.368   1.830  18.692  0.00  0.00    +0.000 C 
BRANCH  22  23
ATOM     23  C   UNL     1       3.448   2.807  17.521  0.00  0.00    +0.000 C 
BRANCH  23  24
ATOM     24  N   UNL     1       2.131   3.355  17.217  0.00  0.00    +0.000 NA
ATOM     25  H   UNL     1       2.065   4.306  17.582  0.00  0.00    +0.000 HD
ATOM     26  H   UNL     1       1.419   2.813  17.703  0.00  0.00    +0.000 HD
ENDBRANCH  23  24
ENDBRANCH  22  23
ENDBRANCH  21  22
ENDBRANCH  19  21
ENDBRANCH  18  19
ENDBRANCH  17  18
ENDBRANCH  16  17
ENDBRANCH  15  16
ENDBRANCH   1  15
TORSDOF 15
ENDMDL
MODEL 9
REMARK VINA RESULT:      -5.0      4.516      5.821
REMARK  Name = 
REMARK  16 active torsions:
REMARK  status: ('A' for Active; 'I' for Inactive)
REMARK    1  A    between atoms: C_1  and  C_2
REMARK    2  A    between atoms: C_2  and  N_3
REMARK    3  A    between atoms: C_2  and  C_4
REMARK    4  A    between atoms: N_6  and  C_7
REMARK    5  A    between atoms: C_7  and  C_8
REMARK    6  A    between atoms: C_8  and  C_9
REMARK    7  A    between atoms: C_9  and  N_10
REMARK    8  A    between atoms: N_10  and  C_11
REMARK    9  A    between atoms: C_11  and  C_12
REMARK   10  A    between atoms: C_12  and  C_13
REMARK   11  A    between atoms: C_13  and  C_14
REMARK   12  A    between atoms: C_14  and  N_15
REMARK   13  A    between atoms: N_15  and  C_16
REMARK   14  A    between atoms: C_16  and  C_17
REMARK   15  A    between atoms: C_17  and  C_18
REMARK   16  A    between atoms: C_18  and  N_19
REMARK                            x       y       z     vdW  Elec       q    Type
REMARK                         _______ _______ _______ _____ _____    ______ ____
ROOT
ATOM      1  N   UNL     1       2.707   5.678  18.608  0.00  0.00    +0.000 NA
ATOM      2  H   UNL     1       1.697   5.793  18.694  0.00  0.00    +0.000 HD
ENDROOT
BRANCH   1   3
ATOM      3  C   UNL     1       3.263   5.274  19.900  0.00  0.00    +0.000 C 
BRANCH   3   4
ATOM      4  C   UNL     1       3.214   3.753  20.051  0.00  0.00    +0.000 C 
BRANCH   4   5
ATOM      5  C   UNL     1       3.978   3.089  18.909  0.00  0.00    +0.000 C 
BRANCH   5   8
ATOM      6  C   UNL     1       5.731   4.253  17.617  0.00  0.00    +0.000 C 
ATOM      7  O   UNL     1       4.999   4.401  16.639  0.00  0.00    +0.000 OA
ATOM      8  N   UNL     1       5.319   3.618  18.769  0.00  0.00    +0.000 N 
ATOM      9  H   UNL     1       5.947   3.557  19.560  0.00  0.00    +0.000 HD
BRANCH   6  11
ATOM     10  C   UNL     1       7.320   6.204  17.967  0.00  0.00    +0.000 C 
ATOM     11  C   UNL     1       7.204   4.724  17.626  0.00  0.00    +0.000 C 
BRANCH  11  12
ATOM     12  N   UNL     1       7.812   4.483  16.302  0.00  0.00    +0.000 NA
ATOM     13  H   UNL     1       7.142   4.796  15.594  0.00  0.00    +0.000 HD
ATOM     14  H   UNL     1       7.837   3.469  16.158  0.00  0.00    +0.000 HD
ENDBRANCH  11  12
ENDBRANCH   6  11
ENDBRANCH   5   8
ENDBRANCH   4   5
ENDBRANCH   3   4
ENDBRANCH   1   3
BRANCH   1  15
ATOM     15  C   UNL     1       3.304   6.939  18.166  0.00  0.00    +0.000 C 
BRANCH  15  16
ATOM     16  C   UNL     1       2.204   7.953  17.854  0.00  0.00    +0.000 C 
BRANCH  16  17
ATOM     17  C   UNL     1       1.742   8.665  19.126  0.00  0.00    +0.000 C 
BRANCH  17  18
ATOM     18  C   UNL     1       1.236  10.071  18.808  0.00  0.00    +0.000 C 
BRANCH  18  19
ATOM     19  N   UNL     1       0.186  10.001  17.791  0.00  0.00    +0.000 NA
ATOM     20  H   UNL     1       0.226   9.099  17.318  0.00  0.00    +0.000 HD
BRANCH  19  21
ATOM     21  C   UNL     1      -1.134  10.174  18.400  0.00  0.00    +0.000 C 
BRANCH  21  22
ATOM     22  C   UNL     1      -2.230   9.864  17.381  0.00  0.00    +0.000 C 
BRANCH  22  23
ATOM     23  C   UNL     1      -2.580  11.116  16.579  0.00  0.00    +0.000 C 
BRANCH  23  24
ATOM     24  N   UNL     1      -1.738  12.237  16.982  0.00  0.00    +0.000 NA
ATOM     25  H   UNL     1      -2.100  12.643  17.845  0.00  0.00    +0.000 HD
ATOM     26  H   UNL     1      -1.791  12.971  16.277  0.00  0.00    +0.000 HD
ENDBRANCH  23  24
ENDBRANCH  22  23
ENDBRANCH  21  22
ENDBRANCH  19  21
ENDBRANCH  18  19
ENDBRANCH  17  18
ENDBRANCH  16  17
ENDBRANCH  15  16
ENDBRANCH   1  15
TORSDOF 15
ENDMDL
