MODEL 1
REMARK VINA RESULT:      -6.6      0.000      0.000
REMARK  Name = 
REMARK  9 active torsions:
REMARK  status: ('A' for Active; 'I' for Inactive)
REMARK    1  A    between atoms: C_1  and  C_2
REMARK    2  A    between atoms: C_2  and  C_3
REMARK    3  A    between atoms: C_3  and  C_4
REMARK    4  A    between atoms: C_3  and  C_5
REMARK    5  A    between atoms: N_7  and  C_8
REMARK    6  A    between atoms: C_11  and  O_12
REMARK    7  A    between atoms: O_12  and  C_13
REMARK    8  A    between atoms: C_15  and  O_16
REMARK    9  A    between atoms: O_16  and  C_17
REMARK                            x       y       z     vdW  Elec       q    Type
REMARK                         _______ _______ _______ _____ _____    ______ ____
ROOT
ATOM      1  C   UNL     1       4.789   4.904  18.036  0.00  0.00    +0.000 A 
ATOM      2  C   UNL     1       4.461   4.688  16.692  0.00  0.00    +0.000 A 
ATOM      3  C   UNL     1       5.431   4.801  15.697  0.00  0.00    +0.000 A 
ATOM      4  C   UNL     1       6.748   5.108  16.030  0.00  0.00    +0.000 A 
ATOM      5  C   UNL     1       7.083   5.325  17.369  0.00  0.00    +0.000 A 
ATOM      6  C   UNL     1       6.108   5.233  18.377  0.00  0.00    +0.000 A 
ENDROOT
BRANCH   1   9
ATOM      7  C   UNL     1       3.534   3.727  19.774  0.00  0.00    +0.000 C 
ATOM      8  O   UNL     1       4.214   2.707  19.736  0.00  0.00    +0.000 OA
ATOM      9  N   UNL     1       3.764   4.855  19.003  0.00  0.00    +0.000 N 
ATOM     10  H   UNL     1       3.412   5.740  19.341  0.00  0.00    +0.000 HD
BRANCH   7  11
ATOM     11  C   UNL     1       2.331   3.862  20.701  0.00  0.00    +0.000 C 
ATOM     12  C   UNL     1       2.342   2.756  21.757  0.00  0.00    +0.000 C 
BRANCH  11  14
ATOM     13  C   UNL     1       0.782   2.625  19.062  0.00  0.00    +0.000 C 
ATOM     14  C   UNL     1       1.028   3.883  19.886  0.00  0.00    +0.000 C 
ENDBRANCH  11  14
ENDBRANCH   7  11
ENDBRANCH   1   9
BRANCH   4  15
ATOM     15  O   UNL     1       7.598   5.173  14.960  0.00  0.00    +0.000 OA
ATOM     16  C   UNL     1       7.061   4.829  13.691  0.00  0.00    +0.000 C 
ENDBRANCH   4  15
BRANCH   6  17
ATOM     17  O   UNL     1       6.562   5.519  19.640  0.00  0.00    +0.000 OA
ATOM     18  C   UNL     1       7.976   5.580  19.800  0.00  0.00    +0.000 C 
ENDBRANCH   6  17
TORSDOF 5
ENDMDL
MODEL 2
REMARK VINA RESULT:      -6.4      1.284      1.597
REMARK  Name = 
REMARK  9 active torsions:
REMARK  status: ('A' for Active; 'I' for Inactive)
REMARK    1  A    between atoms: C_1  and  C_2
REMARK    2  A    between atoms: C_2  and  C_3
REMARK    3  A    between atoms: C_3  and  C_4
REMARK    4  A    between atoms: C_3  and  C_5
REMARK    5  A    between atoms: N_7  and  C_8
REMARK    6  A    between atoms: C_11  and  O_12
REMARK    7  A    between atoms: O_12  and  C_13
REMARK    8  A    between atoms: C_15  and  O_16
REMARK    9  A    between atoms: O_16  and  C_17
REMARK                            x       y       z     vdW  Elec       q    Type
REMARK                         _______ _______ _______ _____ _____    ______ ____
ROOT
ATOM      1  C   UNL     1       4.919   4.210  17.517  0.00  0.00    +0.000 A 
ATOM      2  C   UNL     1       4.702   4.081  16.140  0.00  0.00    +0.000 A 
ATOM      3  C   UNL     1       5.692   4.448  15.229  0.00  0.00    +0.000 A 
ATOM      4  C   UNL     1       6.921   4.927  15.678  0.00  0.00    +0.000 A 
ATOM      5  C   UNL     1       7.143   5.058  17.051  0.00  0.00    +0.000 A 
ATOM      6  C   UNL     1       6.145   4.710  17.977  0.00  0.00    +0.000 A 
ENDROOT
BRANCH   1   9
ATOM      7  C   UNL     1       2.775   4.738  18.571  0.00  0.00    +0.000 C 
ATOM      8  O   UNL     1       2.590   5.776  17.942  0.00  0.00    +0.000 OA
ATOM      9  N   UNL     1       3.867   3.900  18.403  0.00  0.00    +0.000 N 
ATOM     10  H   UNL     1       3.765   2.931  18.672  0.00  0.00    +0.000 HD
BRANCH   7  11
ATOM     11  C   UNL     1       1.794   4.251  19.631  0.00  0.00    +0.000 C 
ATOM     12  C   UNL     1       1.672   5.276  20.759  0.00  0.00    +0.000 C 
BRANCH  11  14
ATOM     13  C   UNL     1       2.006   2.657  21.639  0.00  0.00    +0.000 C 
ATOM     14  C   UNL     1       2.207   2.862  20.142  0.00  0.00    +0.000 C 
ENDBRANCH  11  14
ENDBRANCH   7  11
ENDBRANCH   1   9
BRANCH   4  15
ATOM     15  O   UNL     1       7.803   5.236  14.680  0.00  0.00    +0.000 OA
ATOM     16  C   UNL     1       7.396   4.945  13.350  0.00  0.00    +0.000 C 
ENDBRANCH   4  15
BRANCH   6  17
ATOM     17  O   UNL     1       6.477   4.935  19.290  0.00  0.00    +0.000 OA
ATOM     18  C   UNL     1       7.676   5.673  19.515  0.00  0.00    +0.000 C 
ENDBRANCH   6  17
TORSDOF 5
ENDMDL
MODEL 3
REMARK VINA RESULT:      -6.4      1.830      5.891
REMARK  Name = 
REMARK  9 active torsions:
REMARK  status: ('A' for Active; 'I' for Inactive)
REMARK    1  A    between atoms: C_1  and  C_2
REMARK    2  A    between atoms: C_2  and  C_3
REMARK    3  A    between atoms: C_3  and  C_4
REMARK    4  A    between atoms: C_3  and  C_5
REMARK    5  A    between atoms: N_7  and  C_8
REMARK    6  A    between atoms: C_11  and  O_12
REMARK    7  A    between atoms: O_12  and  C_13
REMARK    8  A    between atoms: C_15  and  O_16
REMARK    9  A    between atoms: O_16  and  C_17
REMARK                            x       y       z     vdW  Elec       q    Type
REMARK                         _______ _______ _______ _____ _____    ______ ____
ROOT
ATOM      1  C   UNL     1       4.997   4.090  17.121  0.00  0.00    +0.000 A 
ATOM      2  C   UNL     1       3.602   3.980  17.182  0.00  0.00    +0.000 A 
ATOM      3  C   UNL     1       2.918   4.256  18.365  0.00  0.00    +0.000 A 
ATOM      4  C   UNL     1       3.613   4.668  19.500  0.00  0.00    +0.000 A 
ATOM      5  C   UNL     1       5.005   4.780  19.447  0.00  0.00    +0.000 A 
ATOM      6  C   UNL     1       5.705   4.485  18.265  0.00  0.00    +0.000 A 
ENDROOT
BRANCH   1   9
ATOM      7  C   UNL     1       5.930   4.653  14.932  0.00  0.00    +0.000 C 
ATOM      8  O   UNL     1       5.685   5.853  15.007  0.00  0.00    +0.000 OA
ATOM      9  N   UNL     1       5.657   3.730  15.929  0.00  0.00    +0.000 N 
ATOM     10  H   UNL     1       6.198   2.877  15.945  0.00  0.00    +0.000 HD
BRANCH   7  11
ATOM     11  C   UNL     1       6.580   4.037  13.698  0.00  0.00    +0.000 C 
ATOM     12  C   UNL     1       7.581   5.013  13.077  0.00  0.00    +0.000 C 
BRANCH  11  14
ATOM     13  C   UNL     1       5.961   2.488  11.741  0.00  0.00    +0.000 C 
ATOM     14  C   UNL     1       5.505   3.582  12.699  0.00  0.00    +0.000 C 
ENDBRANCH  11  14
ENDBRANCH   7  11
ENDBRANCH   1   9
BRANCH   4  15
ATOM     15  O   UNL     1       2.820   4.917  20.585  0.00  0.00    +0.000 OA
ATOM     16  C   UNL     1       1.451   4.553  20.478  0.00  0.00    +0.000 C 
ENDBRANCH   4  15
BRANCH   6  17
ATOM     17  O   UNL     1       7.070   4.588  18.367  0.00  0.00    +0.000 OA
ATOM     18  C   UNL     1       7.561   5.705  19.103  0.00  0.00    +0.000 C 
ENDBRANCH   6  17
TORSDOF 5
ENDMDL
MODEL 4
REMARK VINA RESULT:      -6.4      1.051      1.575
REMARK  Name = 
REMARK  9 active torsions:
REMARK  status: ('A' for Active; 'I' for Inactive)
REMARK    1  A    between atoms: C_1  and  C_2
REMARK    2  A    between atoms: C_2  and  C_3
REMARK    3  A    between atoms: C_3  and  C_4
REMARK    4  A    between atoms: C_3  and  C_5
REMARK    5  A    between atoms: N_7  and  C_8
REMARK    6  A    between atoms: C_11  and  O_12
REMARK    7  A    between atoms: O_12  and  C_13
REMARK    8  A    between atoms: C_15  and  O_16
REMARK    9  A    between atoms: O_16  and  C_17
REMARK                            x       y       z     vdW  Elec       q    Type
REMARK                         _______ _______ _______ _____ _____    ______ ____
ROOT
ATOM      1  C   UNL     1       4.914   4.193  17.414  0.00  0.00    +0.000 A 
ATOM      2  C   UNL     1       4.640   4.234  16.042  0.00  0.00    +0.000 A 
ATOM      3  C   UNL     1       5.617   4.639  15.134  0.00  0.00    +0.000 A 
ATOM      4  C   UNL     1       6.890   4.989  15.579  0.00  0.00    +0.000 A 
ATOM      5  C   UNL     1       7.170   4.952  16.948  0.00  0.00    +0.000 A 
ATOM      6  C   UNL     1       6.187   4.563  17.872  0.00  0.00    +0.000 A 
ENDROOT
BRANCH   1   9
ATOM      7  C   UNL     1       3.444   2.542  18.461  0.00  0.00    +0.000 C 
ATOM      8  O   UNL     1       3.942   1.572  17.900  0.00  0.00    +0.000 OA
ATOM      9  N   UNL     1       3.877   3.850  18.306  0.00  0.00    +0.000 N 
ATOM     10  H   UNL     1       3.673   4.507  19.046  0.00  0.00    +0.000 HD
BRANCH   7  11
ATOM     11  C   UNL     1       2.263   2.405  19.416  0.00  0.00    +0.000 C 
ATOM     12  C   UNL     1       1.081   3.244  18.929  0.00  0.00    +0.000 C 
BRANCH  11  14
ATOM     13  C   UNL     1       2.115   4.080  21.363  0.00  0.00    +0.000 C 
ATOM     14  C   UNL     1       2.690   2.765  20.847  0.00  0.00    +0.000 C 
ENDBRANCH  11  14
ENDBRANCH   7  11
ENDBRANCH   1   9
BRANCH   4  15
ATOM     15  O   UNL     1       7.753   5.354  14.584  0.00  0.00    +0.000 OA
ATOM     16  C   UNL     1       7.432   4.930  13.267  0.00  0.00    +0.000 C 
ENDBRANCH   4  15
BRANCH   6  17
ATOM     17  O   UNL     1       6.581   4.618  19.186  0.00  0.00    +0.000 OA
ATOM     18  C   UNL     1       7.515   5.642  19.517  0.00  0.00    +0.000 C 
ENDBRANCH   6  17
TORSDOF 5
ENDMDL
MODEL 5
REMARK VINA RESULT:      -6.4      0.815      1.119
REMARK  Name = 
REMARK  9 active torsions:
REMARK  status: ('A' for Active; 'I' for Inactive)
REMARK    1  A    between atoms: C_1  and  C_2
REMARK    2  A    between atoms: C_2  and  C_3
REMARK    3  A    between atoms: C_3  and  C_4
REMARK    4  A    between atoms: C_3  and  C_5
REMARK    5  A    between atoms: N_7  and  C_8
REMARK    6  A    between atoms: C_11  and  O_12
REMARK    7  A    between atoms: O_12  and  C_13
REMARK    8  A    between atoms: C_15  and  O_16
REMARK    9  A    between atoms: O_16  and  C_17
REMARK                            x       y       z     vdW  Elec       q    Type
REMARK                         _______ _______ _______ _____ _____    ______ ____
ROOT
ATOM      1  C   UNL     1       4.750   4.634  18.261  0.00  0.00    +0.000 A 
ATOM      2  C   UNL     1       4.322   4.380  16.952  0.00  0.00    +0.000 A 
ATOM      3  C   UNL     1       5.232   4.374  15.896  0.00  0.00    +0.000 A 
ATOM      4  C   UNL     1       6.587   4.598  16.132  0.00  0.00    +0.000 A 
ATOM      5  C   UNL     1       7.020   4.852  17.436  0.00  0.00    +0.000 A 
ATOM      6  C   UNL     1       6.108   4.880  18.504  0.00  0.00    +0.000 A 
ENDROOT
BRANCH   1   9
ATOM      7  C   UNL     1       3.442   3.601  20.051  0.00  0.00    +0.000 C 
ATOM      8  O   UNL     1       3.962   2.495  19.951  0.00  0.00    +0.000 OA
ATOM      9  N   UNL     1       3.788   4.706  19.289  0.00  0.00    +0.000 N 
ATOM     10  H   UNL     1       3.590   5.622  19.666  0.00  0.00    +0.000 HD
BRANCH   7  11
ATOM     11  C   UNL     1       2.328   3.882  21.054  0.00  0.00    +0.000 C 
ATOM     12  C   UNL     1       1.724   2.573  21.564  0.00  0.00    +0.000 C 
BRANCH  11  14
ATOM     13  C   UNL     1       1.410   6.276  20.848  0.00  0.00    +0.000 C 
ATOM     14  C   UNL     1       1.275   4.815  20.436  0.00  0.00    +0.000 C 
ENDBRANCH  11  14
ENDBRANCH   7  11
ENDBRANCH   1   9
BRANCH   4  15
ATOM     15  O   UNL     1       7.368   4.550  15.012  0.00  0.00    +0.000 OA
ATOM     16  C   UNL     1       6.704   4.346  13.773  0.00  0.00    +0.000 C 
ENDBRANCH   4  15
BRANCH   6  17
ATOM     17  O   UNL     1       6.661   5.190  19.722  0.00  0.00    +0.000 OA
ATOM     18  C   UNL     1       7.993   5.695  19.695  0.00  0.00    +0.000 C 
ENDBRANCH   6  17
TORSDOF 5
ENDMDL
MODEL 6
REMARK VINA RESULT:      -6.3      2.083      2.526
REMARK  Name = 
REMARK  9 active torsions:
REMARK  status: ('A' for Active; 'I' for Inactive)
REMARK    1  A    between atoms: C_1  and  C_2
REMARK    2  A    between atoms: C_2  and  C_3
REMARK    3  A    between atoms: C_3  and  C_4
REMARK    4  A    between atoms: C_3  and  C_5
REMARK    5  A    between atoms: N_7  and  C_8
REMARK    6  A    between atoms: C_11  and  O_12
REMARK    7  A    between atoms: O_12  and  C_13
REMARK    8  A    between atoms: C_15  and  O_16
REMARK    9  A    between atoms: O_16  and  C_17
REMARK                            x       y       z     vdW  Elec       q    Type
REMARK                         _______ _______ _______ _____ _____    ______ ____
ROOT
ATOM      1  C   UNL     1       4.071   4.870  17.663  0.00  0.00    +0.000 A 
ATOM      2  C   UNL     1       4.543   3.789  16.908  0.00  0.00    +0.000 A 
ATOM      3  C   UNL     1       5.352   4.002  15.792  0.00  0.00    +0.000 A 
ATOM      4  C   UNL     1       5.720   5.295  15.426  0.00  0.00    +0.000 A 
ATOM      5  C   UNL     1       5.253   6.378  16.175  0.00  0.00    +0.000 A 
ATOM      6  C   UNL     1       4.422   6.175  17.290  0.00  0.00    +0.000 A 
ENDROOT
BRANCH   1   9
ATOM      7  C   UNL     1       1.855   4.321  18.541  0.00  0.00    +0.000 C 
ATOM      8  O   UNL     1       1.324   4.195  17.443  0.00  0.00    +0.000 OA
ATOM      9  N   UNL     1       3.195   4.617  18.738  0.00  0.00    +0.000 N 
ATOM     10  H   UNL     1       3.615   4.348  19.617  0.00  0.00    +0.000 HD
BRANCH   7  11
ATOM     11  C   UNL     1       1.074   4.159  19.840  0.00  0.00    +0.000 C 
ATOM     12  C   UNL     1       1.495   5.224  20.855  0.00  0.00    +0.000 C 
BRANCH  11  14
ATOM     13  C   UNL     1       2.019   2.641  21.689  0.00  0.00    +0.000 C 
ATOM     14  C   UNL     1       1.234   2.732  20.386  0.00  0.00    +0.000 C 
ENDBRANCH  11  14
ENDBRANCH   7  11
ENDBRANCH   1   9
BRANCH   4  15
ATOM     15  O   UNL     1       6.525   5.359  14.323  0.00  0.00    +0.000 OA
ATOM     16  C   UNL     1       6.612   4.189  13.522  0.00  0.00    +0.000 C 
ENDBRANCH   4  15
BRANCH   6  17
ATOM     17  O   UNL     1       3.995   7.326  17.904  0.00  0.00    +0.000 OA
ATOM     18  C   UNL     1       2.710   7.804  17.514  0.00  0.00    +0.000 C 
ENDBRANCH   6  17
TORSDOF 5
ENDMDL
MODEL 7
REMARK VINA RESULT:      -6.3      1.008      1.400
REMARK  Name = 
REMARK  9 active torsions:
REMARK  status: ('A' for Active; 'I' for Inactive)
REMARK    1  A    between atoms: C_1  and  C_2
REMARK    2  A    between atoms: C_2  and  C_3
REMARK    3  A    between atoms: C_3  and  C_4
REMARK    4  A    between atoms: C_3  and  C_5
REMARK    5  A    between atoms: N_7  and  C_8
REMARK    6  A    between atoms: C_11  and  O_12
REMARK    7  A    between atoms: O_12  and  C_13
REMARK    8  A    between atoms: C_15  and  O_16
REMARK    9  A    between atoms: O_16  and  C_17
REMARK                            x       y       z     vdW  Elec       q    Type
REMARK                         _______ _______ _______ _____ _____    ______ ____
ROOT
ATOM      1  C   UNL     1       4.904   5.319  18.091  0.00  0.00    +0.000 A 
ATOM      2  C   UNL     1       4.527   5.446  16.748  0.00  0.00    +0.000 A 
ATOM      3  C   UNL     1       5.489   5.470  15.740  0.00  0.00    +0.000 A 
ATOM      4  C   UNL     1       6.841   5.345  16.053  0.00  0.00    +0.000 A 
ATOM      5  C   UNL     1       7.224   5.218  17.390  0.00  0.00    +0.000 A 
ATOM      6  C   UNL     1       6.264   5.212  18.416  0.00  0.00    +0.000 A 
ENDROOT
BRANCH   1   9
ATOM      7  C   UNL     1       2.912   4.414  19.185  0.00  0.00    +0.000 C 
ATOM      8  O   UNL     1       2.834   3.417  18.475  0.00  0.00    +0.000 OA
ATOM      9  N   UNL     1       3.907   5.375  19.086  0.00  0.00    +0.000 N 
ATOM     10  H   UNL     1       4.106   5.936  19.902  0.00  0.00    +0.000 HD
BRANCH   7  11
ATOM     11  C   UNL     1       1.894   4.708  20.281  0.00  0.00    +0.000 C 
ATOM     12  C   UNL     1       1.814   6.212  20.548  0.00  0.00    +0.000 C 
BRANCH  11  14
ATOM     13  C   UNL     1       1.500   2.566  21.650  0.00  0.00    +0.000 C 
ATOM     14  C   UNL     1       2.226   3.903  21.547  0.00  0.00    +0.000 C 
ENDBRANCH  11  14
ENDBRANCH   7  11
ENDBRANCH   1   9
BRANCH   4  15
ATOM     15  O   UNL     1       7.674   5.370  14.969  0.00  0.00    +0.000 OA
ATOM     16  C   UNL     1       7.161   4.848  13.751  0.00  0.00    +0.000 C 
ENDBRANCH   4  15
BRANCH   6  17
ATOM     17  O   UNL     1       6.781   5.132  19.685  0.00  0.00    +0.000 OA
ATOM     18  C   UNL     1       8.096   5.652  19.860  0.00  0.00    +0.000 C 
ENDBRANCH   6  17
TORSDOF 5
ENDMDL
MODEL 8
REMARK VINA RESULT:      -6.2      1.183      1.185
REMARK  Name = 
REMARK  9 active torsions:
REMARK  status: ('A' for Active; 'I' for Inactive)
REMARK    1  A    between atoms: C_1  and  C_2
REMARK    2  A    between atoms: C_2  and  C_3
REMARK    3  A    between atoms: C_3  and  C_4
REMARK    4  A    between atoms: C_3  and  C_5
REMARK    5  A    between atoms: N_7  and  C_8
REMARK    6  A    between atoms: C_11  and  O_12
REMARK    7  A    between atoms: O_12  and  C_13
REMARK    8  A    between atoms: C_15  and  O_16
REMARK    9  A    between atoms: O_16  and  C_17
REMARK                            x       y       z     vdW  Elec       q    Type
REMARK                         _______ _______ _______ _____ _____    ______ ____
ROOT
ATOM      1  C   UNL     1       5.178   4.173  17.527  0.00  0.00    +0.000 A 
ATOM      2  C   UNL     1       4.648   4.218  16.231  0.00  0.00    +0.000 A 
ATOM      3  C   UNL     1       5.427   4.654  15.160  0.00  0.00    +0.000 A 
ATOM      4  C   UNL     1       6.753   5.031  15.361  0.00  0.00    +0.000 A 
ATOM      5  C   UNL     1       7.288   4.989  16.651  0.00  0.00    +0.000 A 
ATOM      6  C   UNL     1       6.506   4.569  17.740  0.00  0.00    +0.000 A 
ENDROOT
BRANCH   1   9
ATOM      7  C   UNL     1       3.552   4.719  19.270  0.00  0.00    +0.000 C 
ATOM      8  O   UNL     1       3.468   5.908  18.981  0.00  0.00    +0.000 OA
ATOM      9  N   UNL     1       4.336   3.798  18.593  0.00  0.00    +0.000 N 
ATOM     10  H   UNL     1       4.078   2.823  18.651  0.00  0.00    +0.000 HD
BRANCH   7  11
ATOM     11  C   UNL     1       2.778   4.114  20.436  0.00  0.00    +0.000 C 
ATOM     12  C   UNL     1       3.283   2.703  20.739  0.00  0.00    +0.000 C 
BRANCH  11  14
ATOM     13  C   UNL     1       0.739   2.928  19.411  0.00  0.00    +0.000 C 
ATOM     14  C   UNL     1       1.269   4.150  20.152  0.00  0.00    +0.000 C 
ENDBRANCH  11  14
ENDBRANCH   7  11
ENDBRANCH   1   9
BRANCH   4  15
ATOM     15  O   UNL     1       7.404   5.425  14.225  0.00  0.00    +0.000 OA
ATOM     16  C   UNL     1       7.173   4.656  13.053  0.00  0.00    +0.000 C 
ENDBRANCH   4  15
BRANCH   6  17
ATOM     17  O   UNL     1       7.140   4.624  18.957  0.00  0.00    +0.000 OA
ATOM     18  C   UNL     1       7.634   5.902  19.349  0.00  0.00    +0.000 C 
ENDBRANCH   6  17
TORSDOF 5
ENDMDL
MODEL 9
REMARK VINA RESULT:      -6.2      1.817      3.155
REMARK  Name = 
REMARK  9 active torsions:
REMARK  status: ('A' for Active; 'I' for Inactive)
REMARK    1  A    between atoms: C_1  and  C_2
REMARK    2  A    between atoms: C_2  and  C_3
REMARK    3  A    between atoms: C_3  and  C_4
REMARK    4  A    between atoms: C_3  and  C_5
REMARK    5  A    between atoms: N_7  and  C_8
REMARK    6  A    between atoms: C_11  and  O_12
REMARK    7  A    between atoms: O_12  and  C_13
REMARK    8  A    between atoms: C_15  and  O_16
REMARK    9  A    between atoms: O_16  and  C_17
REMARK                            x       y       z     vdW  Elec       q    Type
REMARK                         _______ _______ _______ _____ _____    ______ ____
ROOT
ATOM      1  C   UNL     1       5.555   4.538  18.098  0.00  0.00    +0.000 A 
ATOM      2  C   UNL     1       6.309   5.287  19.010  0.00  0.00    +0.000 A 
ATOM      3  C   UNL     1       7.159   6.298  18.566  0.00  0.00    +0.000 A 
ATOM      4  C   UNL     1       7.253   6.595  17.208  0.00  0.00    +0.000 A 
ATOM      5  C   UNL     1       6.503   5.852  16.293  0.00  0.00    +0.000 A 
ATOM      6  C   UNL     1       5.658   4.817  16.728  0.00  0.00    +0.000 A 
ENDROOT
BRANCH   1   9
ATOM      7  C   UNL     1       3.410   3.620  18.833  0.00  0.00    +0.000 C 
ATOM      8  O   UNL     1       2.767   4.642  18.615  0.00  0.00    +0.000 OA
ATOM      9  N   UNL     1       4.765   3.474  18.580  0.00  0.00    +0.000 N 
ATOM     10  H   UNL     1       5.122   2.539  18.441  0.00  0.00    +0.000 HD
BRANCH   7  11
ATOM     11  C   UNL     1       2.766   2.369  19.421  0.00  0.00    +0.000 C 
ATOM     12  C   UNL     1       1.360   2.174  18.851  0.00  0.00    +0.000 C 
BRANCH  11  14
ATOM     13  C   UNL     1       1.419   2.749  21.579  0.00  0.00    +0.000 C 
ATOM     14  C   UNL     1       2.774   2.435  20.956  0.00  0.00    +0.000 C 
ENDBRANCH  11  14
ENDBRANCH   7  11
ENDBRANCH   1   9
BRANCH   4  15
ATOM     15  O   UNL     1       8.111   7.617  16.913  0.00  0.00    +0.000 OA
ATOM     16  C   UNL     1       8.113   8.730  17.796  0.00  0.00    +0.000 C 
ENDBRANCH   4  15
BRANCH   6  17
ATOM     17  O   UNL     1       5.019   4.136  15.721  0.00  0.00    +0.000 OA
ATOM     18  C   UNL     1       5.599   4.246  14.424  0.00  0.00    +0.000 C 
ENDBRANCH   6  17
TORSDOF 5
ENDMDL
