MODEL 1
REMARK VINA RESULT:      -8.2      0.000      0.000
REMARK  Name = 
REMARK  11 active torsions:
REMARK  status: ('A' for Active; 'I' for Inactive)
REMARK    1  A    between atoms: C_1  and  O_2
REMARK    2  A    between atoms: O_2  and  C_3
REMARK    3  A    between atoms: C_5  and  C_6
REMARK    4  A    between atoms: C_6  and  N_7
REMARK    5  A    between atoms: N_7  and  C_8
REMARK    6  A    between atoms: C_8  and  C_9
REMARK    7  A    between atoms: C_8  and  C_10
REMARK    8  A    between atoms: C_13  and  O_14
REMARK    9  A    between atoms: O_14  and  C_15
REMARK   10  A    between atoms: C_15  and  C_16
REMARK   11  A    between atoms: N_18  and  C_19
REMARK                            x       y       z     vdW  Elec       q    Type
REMARK                         _______ _______ _______ _____ _____    ______ ____
ROOT
ATOM      1  O   UNL     1       1.235   6.675  20.948  0.00  0.00    +0.000 OA
ENDROOT
BRANCH   1   7
ATOM      2  C   UNL     1       2.566   4.724  20.489  0.00  0.00    +0.000 A 
ATOM      3  C   UNL     1       3.505   4.087  19.660  0.00  0.00    +0.000 A 
ATOM      4  C   UNL     1       4.008   4.695  18.501  0.00  0.00    +0.000 A 
ATOM      5  C   UNL     1       3.537   5.956  18.147  0.00  0.00    +0.000 A 
ATOM      6  C   UNL     1       2.623   6.605  18.967  0.00  0.00    +0.000 A 
ATOM      7  C   UNL     1       2.116   6.003  20.134  0.00  0.00    +0.000 A 
BRANCH   2   9
ATOM      8  C   UNL     1       1.597   2.749  21.462  0.00  0.00    +0.000 C 
ATOM      9  O   UNL     1       2.272   3.988  21.602  0.00  0.00    +0.000 OA
ENDBRANCH   2   9
BRANCH   4  10
ATOM     10  C   UNL     1       5.119   4.068  17.706  0.00  0.00    +0.000 C 
BRANCH  10  11
ATOM     11  N   UNL     1       6.387   4.069  18.427  0.00  0.00    +0.000 NA
ATOM     12  H   UNL     1       6.655   3.102  18.609  0.00  0.00    +0.000 HD
BRANCH  11  13
ATOM     13  C   UNL     1       7.457   4.738  17.674  0.00  0.00    +0.000 C 
ATOM     14  C   UNL     1       7.152   4.833  16.175  0.00  0.00    +0.000 C 
ATOM     15  C   UNL     1       7.632   6.145  18.249  0.00  0.00    +0.000 C 
ENDBRANCH  11  13
ENDBRANCH  10  11
ENDBRANCH   4  10
ENDBRANCH   1   7
BRANCH   1  16
ATOM     16  C   UNL     1       1.483   8.083  21.021  0.00  0.00    +0.000 C 
BRANCH  16  17
ATOM     17  C   UNL     1       0.209   8.892  21.033  0.00  0.00    +0.000 C 
ATOM     18  O   UNL     1      -0.717   8.617  21.791  0.00  0.00    +0.000 OA
ATOM     19  N   UNL     1       0.264   9.958  20.150  0.00  0.00    +0.000 N 
ATOM     20  H   UNL     1       0.821   9.757  19.330  0.00  0.00    +0.000 HD
BRANCH  19  21
ATOM     21  C   UNL     1      -0.818  10.840  20.033  0.00  0.00    +0.000 A 
ATOM     22  C   UNL     1      -1.135  11.636  21.142  0.00  0.00    +0.000 A 
ATOM     23  C   UNL     1      -2.213  12.510  21.083  0.00  0.00    +0.000 A 
ATOM     24  C   UNL     1      -3.014  12.525  19.942  0.00  0.00    +0.000 A 
ATOM     25  C   UNL     1      -2.752  11.673  18.853  0.00  0.00    +0.000 A 
ATOM     26  C   UNL     1      -3.665  11.584  17.790  0.00  0.00    +0.000 A 
ATOM     27  C   UNL     1      -3.444  10.705  16.729  0.00  0.00    +0.000 A 
ATOM     28  C   UNL     1      -2.272   9.966  16.672  0.00  0.00    +0.000 A 
ATOM     29  C   UNL     1      -1.349  10.049  17.716  0.00  0.00    +0.000 A 
ATOM     30  C   UNL     1      -1.597  10.861  18.852  0.00  0.00    +0.000 A 
ENDBRANCH  19  21
ENDBRANCH  16  17
ENDBRANCH   1  16
TORSDOF 8
ENDMDL
MODEL 2
REMARK VINA RESULT:      -8.0      2.833      5.065
REMARK  Name = 
REMARK  11 active torsions:
REMARK  status: ('A' for Active; 'I' for Inactive)
REMARK    1  A    between atoms: C_1  and  O_2
REMARK    2  A    between atoms: O_2  and  C_3
REMARK    3  A    between atoms: C_5  and  C_6
REMARK    4  A    between atoms: C_6  and  N_7
REMARK    5  A    between atoms: N_7  and  C_8
REMARK    6  A    between atoms: C_8  and  C_9
REMARK    7  A    between atoms: C_8  and  C_10
REMARK    8  A    between atoms: C_13  and  O_14
REMARK    9  A    between atoms: O_14  and  C_15
REMARK   10  A    between atoms: C_15  and  C_16
REMARK   11  A    between atoms: N_18  and  C_19
REMARK                            x       y       z     vdW  Elec       q    Type
REMARK                         _______ _______ _______ _____ _____    ______ ____
ROOT
ATOM      1  O   UNL     1       4.555   4.485  19.676  0.00  0.00    +0.000 OA
ENDROOT
BRANCH   1   7
ATOM      2  C   UNL     1       6.420   4.750  18.180  0.00  0.00    +0.000 A 
ATOM      3  C   UNL     1       6.919   4.680  16.868  0.00  0.00    +0.000 A 
ATOM      4  C   UNL     1       6.123   4.265  15.792  0.00  0.00    +0.000 A 
ATOM      5  C   UNL     1       4.808   3.881  16.039  0.00  0.00    +0.000 A 
ATOM      6  C   UNL     1       4.297   3.962  17.328  0.00  0.00    +0.000 A 
ATOM      7  C   UNL     1       5.089   4.382  18.413  0.00  0.00    +0.000 A 
BRANCH   2   9
ATOM      8  C   UNL     1       7.978   6.486  18.773  0.00  0.00    +0.000 C 
ATOM      9  O   UNL     1       7.339   5.253  19.058  0.00  0.00    +0.000 OA
ENDBRANCH   2   9
BRANCH   4  10
ATOM     10  C   UNL     1       6.621   4.336  14.375  0.00  0.00    +0.000 C 
BRANCH  10  11
ATOM     11  N   UNL     1       6.284   3.142  13.608  0.00  0.00    +0.000 NA
ATOM     12  H   UNL     1       5.383   2.793  13.935  0.00  0.00    +0.000 HD
BRANCH  11  13
ATOM     13  C   UNL     1       6.209   3.408  12.165  0.00  0.00    +0.000 C 
ATOM     14  C   UNL     1       7.013   2.399  11.337  0.00  0.00    +0.000 C 
ATOM     15  C   UNL     1       4.739   3.351  11.749  0.00  0.00    +0.000 C 
ENDBRANCH  11  13
ENDBRANCH  10  11
ENDBRANCH   4  10
ENDBRANCH   1   7
BRANCH   1  16
ATOM     16  C   UNL     1       3.132   4.341  19.710  0.00  0.00    +0.000 C 
BRANCH  16  17
ATOM     17  C   UNL     1       2.418   5.527  19.106  0.00  0.00    +0.000 C 
ATOM     18  O   UNL     1       1.692   5.405  18.123  0.00  0.00    +0.000 OA
ATOM     19  N   UNL     1       2.652   6.690  19.821  0.00  0.00    +0.000 N 
ATOM     20  H   UNL     1       3.573   6.713  20.239  0.00  0.00    +0.000 HD
BRANCH  19  21
ATOM     21  C   UNL     1       2.058   7.897  19.428  0.00  0.00    +0.000 A 
ATOM     22  C   UNL     1       2.353   8.384  18.149  0.00  0.00    +0.000 A 
ATOM     23  C   UNL     1       1.807   9.588  17.722  0.00  0.00    +0.000 A 
ATOM     24  C   UNL     1       1.032  10.334  18.608  0.00  0.00    +0.000 A 
ATOM     25  C   UNL     1       0.793   9.892  19.923  0.00  0.00    +0.000 A 
ATOM     26  C   UNL     1       0.155  10.735  20.847  0.00  0.00    +0.000 A 
ATOM     27  C   UNL     1      -0.041  10.330  22.168  0.00  0.00    +0.000 A 
ATOM     28  C   UNL     1       0.321   9.051  22.563  0.00  0.00    +0.000 A 
ATOM     29  C   UNL     1       0.949   8.197  21.655  0.00  0.00    +0.000 A 
ATOM     30  C   UNL     1       1.248   8.620  20.335  0.00  0.00    +0.000 A 
ENDBRANCH  19  21
ENDBRANCH  16  17
ENDBRANCH   1  16
TORSDOF 8
ENDMDL
MODEL 3
REMARK VINA RESULT:      -7.8      6.133      9.197
REMARK  Name = 
REMARK  11 active torsions:
REMARK  status: ('A' for Active; 'I' for Inactive)
REMARK    1  A    between atoms: C_1  and  O_2
REMARK    2  A    between atoms: O_2  and  C_3
REMARK    3  A    between atoms: C_5  and  C_6
REMARK    4  A    between atoms: C_6  and  N_7
REMARK    5  A    between atoms: N_7  and  C_8
REMARK    6  A    between atoms: C_8  and  C_9
REMARK    7  A    between atoms: C_8  and  C_10
REMARK    8  A    between atoms: C_13  and  O_14
REMARK    9  A    between atoms: O_14  and  C_15
REMARK   10  A    between atoms: C_15  and  C_16
REMARK   11  A    between atoms: N_18  and  C_19
REMARK                            x       y       z     vdW  Elec       q    Type
REMARK                         _______ _______ _______ _____ _____    ______ ____
ROOT
ATOM      1  O   UNL     1       7.674   7.188  17.146  0.00  0.00    +0.000 OA
ENDROOT
BRANCH   1   7
ATOM      2  C   UNL     1       6.387   5.373  16.230  0.00  0.00    +0.000 A 
ATOM      3  C   UNL     1       5.431   4.364  16.436  0.00  0.00    +0.000 A 
ATOM      4  C   UNL     1       4.854   4.130  17.692  0.00  0.00    +0.000 A 
ATOM      5  C   UNL     1       5.267   4.904  18.773  0.00  0.00    +0.000 A 
ATOM      6  C   UNL     1       6.197   5.917  18.581  0.00  0.00    +0.000 A 
ATOM      7  C   UNL     1       6.778   6.160  17.321  0.00  0.00    +0.000 A 
BRANCH   2   9
ATOM      8  C   UNL     1       6.518   4.395  14.036  0.00  0.00    +0.000 C 
ATOM      9  O   UNL     1       6.757   5.478  14.919  0.00  0.00    +0.000 OA
ENDBRANCH   2   9
BRANCH   4  10
ATOM     10  C   UNL     1       3.727   3.150  17.868  0.00  0.00    +0.000 C 
BRANCH  10  11
ATOM     11  N   UNL     1       3.119   3.237  19.191  0.00  0.00    +0.000 NA
ATOM     12  H   UNL     1       3.608   3.955  19.724  0.00  0.00    +0.000 HD
BRANCH  11  13
ATOM     13  C   UNL     1       1.688   3.565  19.127  0.00  0.00    +0.000 C 
ATOM     14  C   UNL     1       0.827   2.367  18.714  0.00  0.00    +0.000 C 
ATOM     15  C   UNL     1       1.253   4.054  20.509  0.00  0.00    +0.000 C 
ENDBRANCH  11  13
ENDBRANCH  10  11
ENDBRANCH   4  10
ENDBRANCH   1   7
BRANCH   1  16
ATOM     16  C   UNL     1       8.144   7.753  18.374  0.00  0.00    +0.000 C 
BRANCH  16  17
ATOM     17  C   UNL     1       8.417   9.234  18.258  0.00  0.00    +0.000 C 
ATOM     18  O   UNL     1       7.746   9.953  17.523  0.00  0.00    +0.000 OA
ATOM     19  N   UNL     1       9.442   9.639  19.097  0.00  0.00    +0.000 N 
ATOM     20  H   UNL     1      10.145   8.924  19.229  0.00  0.00    +0.000 HD
BRANCH  19  21
ATOM     21  C   UNL     1       9.828  10.984  19.149  0.00  0.00    +0.000 A 
ATOM     22  C   UNL     1      10.612  11.479  18.100  0.00  0.00    +0.000 A 
ATOM     23  C   UNL     1      11.040  12.801  18.118  0.00  0.00    +0.000 A 
ATOM     24  C   UNL     1      10.745  13.596  19.223  0.00  0.00    +0.000 A 
ATOM     25  C   UNL     1      10.025  13.086  20.320  0.00  0.00    +0.000 A 
ATOM     26  C   UNL     1       9.886  13.849  21.490  0.00  0.00    +0.000 A 
ATOM     27  C   UNL     1       9.220  13.336  22.604  0.00  0.00    +0.000 A 
ATOM     28  C   UNL     1       8.613  12.091  22.537  0.00  0.00    +0.000 A 
ATOM     29  C   UNL     1       8.733  11.323  21.377  0.00  0.00    +0.000 A 
ATOM     30  C   UNL     1       9.488  11.781  20.268  0.00  0.00    +0.000 A 
ENDBRANCH  19  21
ENDBRANCH  16  17
ENDBRANCH   1  16
TORSDOF 8
ENDMDL
MODEL 4
REMARK VINA RESULT:      -7.7      6.098      9.323
REMARK  Name = 
REMARK  11 active torsions:
REMARK  status: ('A' for Active; 'I' for Inactive)
REMARK    1  A    between atoms: C_1  and  O_2
REMARK    2  A    between atoms: O_2  and  C_3
REMARK    3  A    between atoms: C_5  and  C_6
REMARK    4  A    between atoms: C_6  and  N_7
REMARK    5  A    between atoms: N_7  and  C_8
REMARK    6  A    between atoms: C_8  and  C_9
REMARK    7  A    between atoms: C_8  and  C_10
REMARK    8  A    between atoms: C_13  and  O_14
REMARK    9  A    between atoms: O_14  and  C_15
REMARK   10  A    between atoms: C_15  and  C_16
REMARK   11  A    between atoms: N_18  and  C_19
REMARK                            x       y       z     vdW  Elec       q    Type
REMARK                         _______ _______ _______ _____ _____    ______ ____
ROOT
ATOM      1  O   UNL     1       8.077   7.113  18.439  0.00  0.00    +0.000 OA
ENDROOT
BRANCH   1   7
ATOM      2  C   UNL     1       6.997   5.512  17.004  0.00  0.00    +0.000 A 
ATOM      3  C   UNL     1       6.015   4.519  16.847  0.00  0.00    +0.000 A 
ATOM      4  C   UNL     1       5.190   4.116  17.906  0.00  0.00    +0.000 A 
ATOM      5  C   UNL     1       5.374   4.697  19.158  0.00  0.00    +0.000 A 
ATOM      6  C   UNL     1       6.329   5.692  19.323  0.00  0.00    +0.000 A 
ATOM      7  C   UNL     1       7.158   6.104  18.262  0.00  0.00    +0.000 A 
BRANCH   2   9
ATOM      8  C   UNL     1       7.301   5.079  14.656  0.00  0.00    +0.000 C 
ATOM      9  O   UNL     1       7.631   5.804  15.829  0.00  0.00    +0.000 OA
ENDBRANCH   2   9
BRANCH   4  10
ATOM     10  C   UNL     1       4.046   3.164  17.692  0.00  0.00    +0.000 C 
BRANCH  10  11
ATOM     11  N   UNL     1       3.254   2.967  18.901  0.00  0.00    +0.000 NA
ATOM     12  H   UNL     1       3.502   3.695  19.570  0.00  0.00    +0.000 HD
BRANCH  11  13
ATOM     13  C   UNL     1       1.810   3.020  18.636  0.00  0.00    +0.000 C 
ATOM     14  C   UNL     1       0.976   3.036  19.922  0.00  0.00    +0.000 C 
ATOM     15  C   UNL     1       1.523   4.285  17.827  0.00  0.00    +0.000 C 
ENDBRANCH  11  13
ENDBRANCH  10  11
ENDBRANCH   4  10
ENDBRANCH   1   7
BRANCH   1  16
ATOM     16  C   UNL     1       7.940   8.182  17.497  0.00  0.00    +0.000 C 
BRANCH  16  17
ATOM     17  C   UNL     1       8.252   9.528  18.107  0.00  0.00    +0.000 C 
ATOM     18  O   UNL     1       7.714  10.555  17.701  0.00  0.00    +0.000 OA
ATOM     19  N   UNL     1       9.142   9.425  19.163  0.00  0.00    +0.000 N 
ATOM     20  H   UNL     1       9.805   8.671  19.043  0.00  0.00    +0.000 HD
BRANCH  19  21
ATOM     21  C   UNL     1       9.538  10.566  19.872  0.00  0.00    +0.000 A 
ATOM     22  C   UNL     1       8.952  10.793  21.124  0.00  0.00    +0.000 A 
ATOM     23  C   UNL     1       9.295  11.923  21.856  0.00  0.00    +0.000 A 
ATOM     24  C   UNL     1      10.164  12.858  21.296  0.00  0.00    +0.000 A 
ATOM     25  C   UNL     1      10.698  12.679  20.005  0.00  0.00    +0.000 A 
ATOM     26  C   UNL     1      11.432  13.709  19.397  0.00  0.00    +0.000 A 
ATOM     27  C   UNL     1      11.923  13.566  18.098  0.00  0.00    +0.000 A 
ATOM     28  C   UNL     1      11.760  12.366  17.423  0.00  0.00    +0.000 A 
ATOM     29  C   UNL     1      11.040  11.328  18.017  0.00  0.00    +0.000 A 
ATOM     30  C   UNL     1      10.448  11.485  19.296  0.00  0.00    +0.000 A 
ENDBRANCH  19  21
ENDBRANCH  16  17
ENDBRANCH   1  16
TORSDOF 8
ENDMDL
MODEL 5
REMARK VINA RESULT:      -7.7      0.986      1.230
REMARK  Name = 
REMARK  11 active torsions:
REMARK  status: ('A' for Active; 'I' for Inactive)
REMARK    1  A    between atoms: C_1  and  O_2
REMARK    2  A    between atoms: O_2  and  C_3
REMARK    3  A    between atoms: C_5  and  C_6
REMARK    4  A    between atoms: C_6  and  N_7
REMARK    5  A    between atoms: N_7  and  C_8
REMARK    6  A    between atoms: C_8  and  C_9
REMARK    7  A    between atoms: C_8  and  C_10
REMARK    8  A    between atoms: C_13  and  O_14
REMARK    9  A    between atoms: O_14  and  C_15
REMARK   10  A    between atoms: C_15  and  C_16
REMARK   11  A    between atoms: N_18  and  C_19
REMARK                            x       y       z     vdW  Elec       q    Type
REMARK                         _______ _______ _______ _____ _____    ______ ____
ROOT
ATOM      1  O   UNL     1       1.375   6.813  20.606  0.00  0.00    +0.000 OA
ENDROOT
BRANCH   1   7
ATOM      2  C   UNL     1       2.377   5.097  19.250  0.00  0.00    +0.000 A 
ATOM      3  C   UNL     1       3.246   4.761  18.197  0.00  0.00    +0.000 A 
ATOM      4  C   UNL     1       3.923   5.737  17.452  0.00  0.00    +0.000 A 
ATOM      5  C   UNL     1       3.703   7.079  17.747  0.00  0.00    +0.000 A 
ATOM      6  C   UNL     1       2.861   7.425  18.797  0.00  0.00    +0.000 A 
ATOM      7  C   UNL     1       2.180   6.451  19.551  0.00  0.00    +0.000 A 
BRANCH   2   9
ATOM      8  C   UNL     1       2.521   3.526  21.066  0.00  0.00    +0.000 C 
ATOM      9  O   UNL     1       1.885   3.994  19.889  0.00  0.00    +0.000 OA
ENDBRANCH   2   9
BRANCH   4  10
ATOM     10  C   UNL     1       4.961   5.363  16.430  0.00  0.00    +0.000 C 
BRANCH  10  11
ATOM     11  N   UNL     1       5.961   6.409  16.247  0.00  0.00    +0.000 NA
ATOM     12  H   UNL     1       5.630   7.255  16.711  0.00  0.00    +0.000 HD
BRANCH  11  13
ATOM     13  C   UNL     1       7.271   6.032  16.795  0.00  0.00    +0.000 C 
ATOM     14  C   UNL     1       7.599   6.770  18.098  0.00  0.00    +0.000 C 
ATOM     15  C   UNL     1       7.259   4.524  17.053  0.00  0.00    +0.000 C 
ENDBRANCH  11  13
ENDBRANCH  10  11
ENDBRANCH   4  10
ENDBRANCH   1   7
BRANCH   1  16
ATOM     16  C   UNL     1       1.575   8.161  21.042  0.00  0.00    +0.000 C 
BRANCH  16  17
ATOM     17  C   UNL     1       0.294   8.959  21.051  0.00  0.00    +0.000 C 
ATOM     18  O   UNL     1      -0.613   8.708  21.840  0.00  0.00    +0.000 OA
ATOM     19  N   UNL     1       0.319   9.989  20.124  0.00  0.00    +0.000 N 
ATOM     20  H   UNL     1       0.859   9.760  19.301  0.00  0.00    +0.000 HD
BRANCH  19  21
ATOM     21  C   UNL     1      -0.774  10.857  19.997  0.00  0.00    +0.000 A 
ATOM     22  C   UNL     1      -1.086  11.679  21.087  0.00  0.00    +0.000 A 
ATOM     23  C   UNL     1      -2.174  12.540  21.018  0.00  0.00    +0.000 A 
ATOM     24  C   UNL     1      -2.988  12.516  19.887  0.00  0.00    +0.000 A 
ATOM     25  C   UNL     1      -2.730  11.637  18.818  0.00  0.00    +0.000 A 
ATOM     26  C   UNL     1      -3.655  11.511  17.769  0.00  0.00    +0.000 A 
ATOM     27  C   UNL     1      -3.437  10.605  16.730  0.00  0.00    +0.000 A 
ATOM     28  C   UNL     1      -2.258   9.877  16.678  0.00  0.00    +0.000 A 
ATOM     29  C   UNL     1      -1.324   9.998  17.708  0.00  0.00    +0.000 A 
ATOM     30  C   UNL     1      -1.567  10.837  18.825  0.00  0.00    +0.000 A 
ENDBRANCH  19  21
ENDBRANCH  16  17
ENDBRANCH   1  16
TORSDOF 8
ENDMDL
MODEL 6
REMARK VINA RESULT:      -7.7      2.085      2.780
REMARK  Name = 
REMARK  11 active torsions:
REMARK  status: ('A' for Active; 'I' for Inactive)
REMARK    1  A    between atoms: C_1  and  O_2
REMARK    2  A    between atoms: O_2  and  C_3
REMARK    3  A    between atoms: C_5  and  C_6
REMARK    4  A    between atoms: C_6  and  N_7
REMARK    5  A    between atoms: N_7  and  C_8
REMARK    6  A    between atoms: C_8  and  C_9
REMARK    7  A    between atoms: C_8  and  C_10
REMARK    8  A    between atoms: C_13  and  O_14
REMARK    9  A    between atoms: O_14  and  C_15
REMARK   10  A    between atoms: C_15  and  C_16
REMARK   11  A    between atoms: N_18  and  C_19
REMARK                            x       y       z     vdW  Elec       q    Type
REMARK                         _______ _______ _______ _____ _____    ______ ____
ROOT
ATOM      1  O   UNL     1       2.782   7.197  18.561  0.00  0.00    +0.000 OA
ENDROOT
BRANCH   1   7
ATOM      2  C   UNL     1       3.613   5.031  17.924  0.00  0.00    +0.000 A 
ATOM      3  C   UNL     1       4.551   4.277  17.198  0.00  0.00    +0.000 A 
ATOM      4  C   UNL     1       5.526   4.881  16.392  0.00  0.00    +0.000 A 
ATOM      5  C   UNL     1       5.543   6.269  16.285  0.00  0.00    +0.000 A 
ATOM      6  C   UNL     1       4.633   7.027  17.012  0.00  0.00    +0.000 A 
ATOM      7  C   UNL     1       3.653   6.428  17.826  0.00  0.00    +0.000 A 
BRANCH   2   9
ATOM      8  C   UNL     1       3.391   3.363  19.644  0.00  0.00    +0.000 C 
ATOM      9  O   UNL     1       2.807   4.247  18.702  0.00  0.00    +0.000 OA
ENDBRANCH   2   9
BRANCH   4  10
ATOM     10  C   UNL     1       6.614   4.074  15.740  0.00  0.00    +0.000 C 
BRANCH  10  11
ATOM     11  N   UNL     1       6.136   3.336  14.576  0.00  0.00    +0.000 NA
ATOM     12  H   UNL     1       5.175   3.043  14.753  0.00  0.00    +0.000 HD
BRANCH  11  13
ATOM     13  C   UNL     1       6.183   4.140  13.347  0.00  0.00    +0.000 C 
ATOM     14  C   UNL     1       7.478   4.949  13.221  0.00  0.00    +0.000 C 
ATOM     15  C   UNL     1       6.057   3.190  12.155  0.00  0.00    +0.000 C 
ENDBRANCH  11  13
ENDBRANCH  10  11
ENDBRANCH   4  10
ENDBRANCH   1   7
BRANCH   1  16
ATOM     16  C   UNL     1       2.501   8.469  17.968  0.00  0.00    +0.000 C 
BRANCH  16  17
ATOM     17  C   UNL     1       1.444   9.236  18.725  0.00  0.00    +0.000 C 
ATOM     18  O   UNL     1       1.134   8.935  19.875  0.00  0.00    +0.000 OA
ATOM     19  N   UNL     1       0.947  10.299  17.988  0.00  0.00    +0.000 N 
ATOM     20  H   UNL     1       0.935  10.112  16.994  0.00  0.00    +0.000 HD
BRANCH  19  21
ATOM     21  C   UNL     1      -0.029  11.145  18.530  0.00  0.00    +0.000 A 
ATOM     22  C   UNL     1       0.373  12.062  19.509  0.00  0.00    +0.000 A 
ATOM     23  C   UNL     1      -0.563  12.907  20.093  0.00  0.00    +0.000 A 
ATOM     24  C   UNL     1      -1.907  12.774  19.749  0.00  0.00    +0.000 A 
ATOM     25  C   UNL     1      -2.333  11.801  18.824  0.00  0.00    +0.000 A 
ATOM     26  C   UNL     1      -3.703  11.573  18.621  0.00  0.00    +0.000 A 
ATOM     27  C   UNL     1      -4.139  10.576  17.747  0.00  0.00    +0.000 A 
ATOM     28  C   UNL     1      -3.219   9.854  17.003  0.00  0.00    +0.000 A 
ATOM     29  C   UNL     1      -1.853  10.075  17.187  0.00  0.00    +0.000 A 
ATOM     30  C   UNL     1      -1.383  11.012  18.141  0.00  0.00    +0.000 A 
ENDBRANCH  19  21
ENDBRANCH  16  17
ENDBRANCH   1  16
TORSDOF 8
ENDMDL
MODEL 7
REMARK VINA RESULT:      -7.7      6.462     10.193
REMARK  Name = 
REMARK  11 active torsions:
REMARK  status: ('A' for Active; 'I' for Inactive)
REMARK    1  A    between atoms: C_1  and  O_2
REMARK    2  A    between atoms: O_2  and  C_3
REMARK    3  A    between atoms: C_5  and  C_6
REMARK    4  A    between atoms: C_6  and  N_7
REMARK    5  A    between atoms: N_7  and  C_8
REMARK    6  A    between atoms: C_8  and  C_9
REMARK    7  A    between atoms: C_8  and  C_10
REMARK    8  A    between atoms: C_13  and  O_14
REMARK    9  A    between atoms: O_14  and  C_15
REMARK   10  A    between atoms: C_15  and  C_16
REMARK   11  A    between atoms: N_18  and  C_19
REMARK                            x       y       z     vdW  Elec       q    Type
REMARK                         _______ _______ _______ _____ _____    ______ ____
ROOT
ATOM      1  O   UNL     1       8.926   9.396  19.074  0.00  0.00    +0.000 OA
ENDROOT
BRANCH   1   7
ATOM      2  C   UNL     1       9.553  11.419  20.214  0.00  0.00    +0.000 A 
ATOM      3  C   UNL     1      10.103  12.711  20.140  0.00  0.00    +0.000 A 
ATOM      4  C   UNL     1      10.590  13.244  18.939  0.00  0.00    +0.000 A 
ATOM      5  C   UNL     1      10.554  12.456  17.792  0.00  0.00    +0.000 A 
ATOM      6  C   UNL     1       9.997  11.185  17.846  0.00  0.00    +0.000 A 
ATOM      7  C   UNL     1       9.502  10.644  19.048  0.00  0.00    +0.000 A 
BRANCH   2   9
ATOM      8  C   UNL     1       8.415  12.142  22.207  0.00  0.00    +0.000 C 
ATOM      9  O   UNL     1       9.070  11.131  21.459  0.00  0.00    +0.000 OA
ENDBRANCH   2   9
BRANCH   4  10
ATOM     10  C   UNL     1      11.038  14.676  18.841  0.00  0.00    +0.000 C 
BRANCH  10  11
ATOM     11  N   UNL     1      10.091  15.597  19.460  0.00  0.00    +0.000 NA
ATOM     12  H   UNL     1       9.624  15.112  20.226  0.00  0.00    +0.000 HD
BRANCH  11  13
ATOM     13  C   UNL     1      10.746  16.807  19.976  0.00  0.00    +0.000 C 
ATOM     14  C   UNL     1      12.077  16.505  20.672  0.00  0.00    +0.000 C 
ATOM     15  C   UNL     1      10.989  17.752  18.799  0.00  0.00    +0.000 C 
ENDBRANCH  11  13
ENDBRANCH  10  11
ENDBRANCH   4  10
ENDBRANCH   1   7
BRANCH   1  16
ATOM     16  C   UNL     1       8.151   9.099  17.908  0.00  0.00    +0.000 C 
BRANCH  16  17
ATOM     17  C   UNL     1       7.707   7.656  17.864  0.00  0.00    +0.000 C 
ATOM     18  O   UNL     1       8.137   6.829  18.664  0.00  0.00    +0.000 OA
ATOM     19  N   UNL     1       6.760   7.436  16.878  0.00  0.00    +0.000 N 
ATOM     20  H   UNL     1       6.890   8.032  16.071  0.00  0.00    +0.000 HD
BRANCH  19  21
ATOM     21  C   UNL     1       6.208   6.161  16.694  0.00  0.00    +0.000 A 
ATOM     22  C   UNL     1       6.905   5.259  15.880  0.00  0.00    +0.000 A 
ATOM     23  C   UNL     1       6.387   3.991  15.649  0.00  0.00    +0.000 A 
ATOM     24  C   UNL     1       5.138   3.661  16.170  0.00  0.00    +0.000 A 
ATOM     25  C   UNL     1       4.392   4.588  16.924  0.00  0.00    +0.000 A 
ATOM     26  C   UNL     1       3.070   4.295  17.294  0.00  0.00    +0.000 A 
ATOM     27  C   UNL     1       2.301   5.226  17.996  0.00  0.00    +0.000 A 
ATOM     28  C   UNL     1       2.867   6.422  18.409  0.00  0.00    +0.000 A 
ATOM     29  C   UNL     1       4.183   6.725  18.057  0.00  0.00    +0.000 A 
ATOM     30  C   UNL     1       4.952   5.839  17.261  0.00  0.00    +0.000 A 
ENDBRANCH  19  21
ENDBRANCH  16  17
ENDBRANCH   1  16
TORSDOF 8
ENDMDL
MODEL 8
REMARK VINA RESULT:      -7.7      6.526     10.203
REMARK  Name = 
REMARK  11 active torsions:
REMARK  status: ('A' for Active; 'I' for Inactive)
REMARK    1  A    between atoms: C_1  and  O_2
REMARK    2  A    between atoms: O_2  and  C_3
REMARK    3  A    between atoms: C_5  and  C_6
REMARK    4  A    between atoms: C_6  and  N_7
REMARK    5  A    between atoms: N_7  and  C_8
REMARK    6  A    between atoms: C_8  and  C_9
REMARK    7  A    between atoms: C_8  and  C_10
REMARK    8  A    between atoms: C_13  and  O_14
REMARK    9  A    between atoms: O_14  and  C_15
REMARK   10  A    between atoms: C_15  and  C_16
REMARK   11  A    between atoms: N_18  and  C_19
REMARK                            x       y       z     vdW  Elec       q    Type
REMARK                         _______ _______ _______ _____ _____    ______ ____
ROOT
ATOM      1  O   UNL     1       8.798   9.861  18.991  0.00  0.00    +0.000 OA
ENDROOT
BRANCH   1   7
ATOM      2  C   UNL     1       9.482  12.085  19.604  0.00  0.00    +0.000 A 
ATOM      3  C   UNL     1      10.306  13.194  19.348  0.00  0.00    +0.000 A 
ATOM      4  C   UNL     1      11.250  13.196  18.312  0.00  0.00    +0.000 A 
ATOM      5  C   UNL     1      11.395  12.051  17.534  0.00  0.00    +0.000 A 
ATOM      6  C   UNL     1      10.575  10.954  17.764  0.00  0.00    +0.000 A 
ATOM      7  C   UNL     1       9.622  10.946  18.801  0.00  0.00    +0.000 A 
BRANCH   2   9
ATOM      8  C   UNL     1       8.824  11.802  21.901  0.00  0.00    +0.000 C 
ATOM      9  O   UNL     1       8.584  12.326  20.605  0.00  0.00    +0.000 OA
ENDBRANCH   2   9
BRANCH   4  10
ATOM     10  C   UNL     1      12.019  14.438  17.954  0.00  0.00    +0.000 C 
BRANCH  10  11
ATOM     11  N   UNL     1      11.506  15.080  16.749  0.00  0.00    +0.000 NA
ATOM     12  H   UNL     1      10.670  14.580  16.449  0.00  0.00    +0.000 HD
BRANCH  11  13
ATOM     13  C   UNL     1      11.175  16.495  16.969  0.00  0.00    +0.000 C 
ATOM     14  C   UNL     1       9.749  16.692  17.494  0.00  0.00    +0.000 C 
ATOM     15  C   UNL     1      12.173  17.063  17.979  0.00  0.00    +0.000 C 
ENDBRANCH  11  13
ENDBRANCH  10  11
ENDBRANCH   4  10
ENDBRANCH   1   7
BRANCH   1  16
ATOM     16  C   UNL     1       8.096   9.460  17.810  0.00  0.00    +0.000 C 
BRANCH  16  17
ATOM     17  C   UNL     1       7.735   7.994  17.825  0.00  0.00    +0.000 C 
ATOM     18  O   UNL     1       8.263   7.212  18.612  0.00  0.00    +0.000 OA
ATOM     19  N   UNL     1       6.740   7.697  16.908  0.00  0.00    +0.000 N 
ATOM     20  H   UNL     1       6.783   8.280  16.083  0.00  0.00    +0.000 HD
BRANCH  19  21
ATOM     21  C   UNL     1       6.253   6.389  16.788  0.00  0.00    +0.000 A 
ATOM     22  C   UNL     1       7.032   5.465  16.080  0.00  0.00    +0.000 A 
ATOM     23  C   UNL     1       6.581   4.161  15.913  0.00  0.00    +0.000 A 
ATOM     24  C   UNL     1       5.318   3.813  16.389  0.00  0.00    +0.000 A 
ATOM     25  C   UNL     1       4.493   4.755  17.033  0.00  0.00    +0.000 A 
ATOM     26  C   UNL     1       3.165   4.430  17.352  0.00  0.00    +0.000 A 
ATOM     27  C   UNL     1       2.321   5.371  17.942  0.00  0.00    +0.000 A 
ATOM     28  C   UNL     1       2.812   6.618  18.298  0.00  0.00    +0.000 A 
ATOM     29  C   UNL     1       4.133   6.954  17.996  0.00  0.00    +0.000 A 
ATOM     30  C   UNL     1       4.981   6.051  17.308  0.00  0.00    +0.000 A 
ENDBRANCH  19  21
ENDBRANCH  16  17
ENDBRANCH   1  16
TORSDOF 8
ENDMDL
MODEL 9
REMARK VINA RESULT:      -7.6      1.300      1.774
REMARK  Name = 
REMARK  11 active torsions:
REMARK  status: ('A' for Active; 'I' for Inactive)
REMARK    1  A    between atoms: C_1  and  O_2
REMARK    2  A    between atoms: O_2  and  C_3
REMARK    3  A    between atoms: C_5  and  C_6
REMARK    4  A    between atoms: C_6  and  N_7
REMARK    5  A    between atoms: N_7  and  C_8
REMARK    6  A    between atoms: C_8  and  C_9
REMARK    7  A    between atoms: C_8  and  C_10
REMARK    8  A    between atoms: C_13  and  O_14
REMARK    9  A    between atoms: O_14  and  C_15
REMARK   10  A    between atoms: C_15  and  C_16
REMARK   11  A    between atoms: N_18  and  C_19
REMARK                            x       y       z     vdW  Elec       q    Type
REMARK                         _______ _______ _______ _____ _____    ______ ____
ROOT
ATOM      1  O   UNL     1       1.447   6.679  20.424  0.00  0.00    +0.000 OA
ENDROOT
BRANCH   1   7
ATOM      2  C   UNL     1       3.341   5.560  19.449  0.00  0.00    +0.000 A 
ATOM      3  C   UNL     1       4.365   5.564  18.486  0.00  0.00    +0.000 A 
ATOM      4  C   UNL     1       4.508   6.602  17.556  0.00  0.00    +0.000 A 
ATOM      5  C   UNL     1       3.585   7.645  17.568  0.00  0.00    +0.000 A 
ATOM      6  C   UNL     1       2.579   7.664  18.525  0.00  0.00    +0.000 A 
ATOM      7  C   UNL     1       2.432   6.626  19.465  0.00  0.00    +0.000 A 
BRANCH   2   9
ATOM      8  C   UNL     1       3.818   3.228  19.799  0.00  0.00    +0.000 C 
ATOM      9  O   UNL     1       3.434   4.497  20.302  0.00  0.00    +0.000 OA
ENDBRANCH   2   9
BRANCH   4  10
ATOM     10  C   UNL     1       5.691   6.670  16.631  0.00  0.00    +0.000 C 
BRANCH  10  11
ATOM     11  N   UNL     1       5.397   6.121  15.312  0.00  0.00    +0.000 NA
ATOM     12  H   UNL     1       5.389   6.887  14.639  0.00  0.00    +0.000 HD
BRANCH  11  13
ATOM     13  C   UNL     1       6.382   5.114  14.894  0.00  0.00    +0.000 C 
ATOM     14  C   UNL     1       7.093   4.457  16.082  0.00  0.00    +0.000 C 
ATOM     15  C   UNL     1       5.649   4.044  14.083  0.00  0.00    +0.000 C 
ENDBRANCH  11  13
ENDBRANCH  10  11
ENDBRANCH   4  10
ENDBRANCH   1   7
BRANCH   1  16
ATOM     16  C   UNL     1       1.513   7.847  21.249  0.00  0.00    +0.000 C 
BRANCH  16  17
ATOM     17  C   UNL     1       0.248   8.668  21.187  0.00  0.00    +0.000 C 
ATOM     18  O   UNL     1      -0.774   8.314  21.769  0.00  0.00    +0.000 OA
ATOM     19  N   UNL     1       0.423   9.835  20.462  0.00  0.00    +0.000 N 
ATOM     20  H   UNL     1       1.089   9.730  19.708  0.00  0.00    +0.000 HD
BRANCH  19  21
ATOM     21  C   UNL     1      -0.634  10.742  20.309  0.00  0.00    +0.000 A 
ATOM     22  C   UNL     1      -0.983  11.530  21.413  0.00  0.00    +0.000 A 
ATOM     23  C   UNL     1      -2.039  12.428  21.318  0.00  0.00    +0.000 A 
ATOM     24  C   UNL     1      -2.787  12.475  20.144  0.00  0.00    +0.000 A 
ATOM     25  C   UNL     1      -2.495  11.631  19.056  0.00  0.00    +0.000 A 
ATOM     26  C   UNL     1      -3.362  11.575  17.953  0.00  0.00    +0.000 A 
ATOM     27  C   UNL     1      -3.112  10.705  16.890  0.00  0.00    +0.000 A 
ATOM     28  C   UNL     1      -1.955   9.942  16.876  0.00  0.00    +0.000 A 
ATOM     29  C   UNL     1      -1.077   9.992  17.960  0.00  0.00    +0.000 A 
ATOM     30  C   UNL     1      -1.359  10.794  19.095  0.00  0.00    +0.000 A 
ENDBRANCH  19  21
ENDBRANCH  16  17
ENDBRANCH   1  16
TORSDOF 8
ENDMDL
