MODEL 1
REMARK VINA RESULT:      -7.4      0.000      0.000
REMARK  Name = 
REMARK  3 active torsions:
REMARK  status: ('A' for Active; 'I' for Inactive)
REMARK    1  A    between atoms: C_1  and  N_2
REMARK    2  A    between atoms: N_2  and  C_3
REMARK    3  A    between atoms: C_12  and  C_13
REMARK                            x       y       z     vdW  Elec       q    Type
REMARK                         _______ _______ _______ _____ _____    ______ ____
ROOT
ATOM      1  C   UNL     1       5.335   5.084  15.793  0.00  0.00    +0.000 C 
ATOM      2  C   UNL     1       5.652   6.420  16.520  0.00  0.00    +0.000 C 
ATOM      3  C   UNL     1       4.388   7.057  17.137  0.00  0.00    +0.000 C 
ATOM      4  C   UNL     1       3.651   6.023  17.907  0.00  0.00    +0.000 A 
ATOM      5  N   UNL     1       2.753   6.252  18.913  0.00  0.00    +0.000 N 
ATOM      6  C   UNL     1       2.321   5.049  19.434  0.00  0.00    +0.000 A 
ATOM      7  C   UNL     1       1.441   4.794  20.492  0.00  0.00    +0.000 A 
ATOM      8  C   UNL     1       1.198   3.458  20.823  0.00  0.00    +0.000 A 
ATOM      9  C   UNL     1       1.809   2.420  20.122  0.00  0.00    +0.000 A 
ATOM     10  C   UNL     1       2.693   2.673  19.055  0.00  0.00    +0.000 A 
ATOM     11  C   UNL     1       3.339   1.516  18.342  0.00  0.00    +0.000 C 
ATOM     12  C   UNL     1       2.944   4.026  18.713  0.00  0.00    +0.000 A 
ATOM     13  C   UNL     1       3.770   4.661  17.741  0.00  0.00    +0.000 A 
ATOM     14  C   UNL     1       4.696   4.049  16.754  0.00  0.00    +0.000 C 
ATOM     15  H   UNL     1       2.472   7.158  19.257  0.00  0.00    +0.000 HD
ENDROOT
BRANCH   1  17
ATOM     16  C   UNL     1       6.345   4.004  13.843  0.00  0.00    +0.000 C 
ATOM     17  N   UNL     1       6.570   4.560  15.172  0.00  0.00    +0.000 NA
ATOM     18  H   UNL     1       7.260   5.307  15.110  0.00  0.00    +0.000 HD
ENDBRANCH   1  17
TORSDOF 1
ENDMDL
MODEL 2
REMARK VINA RESULT:      -7.2      1.677      2.974
REMARK  Name = 
REMARK  3 active torsions:
REMARK  status: ('A' for Active; 'I' for Inactive)
REMARK    1  A    between atoms: C_1  and  N_2
REMARK    2  A    between atoms: N_2  and  C_3
REMARK    3  A    between atoms: C_12  and  C_13
REMARK                            x       y       z     vdW  Elec       q    Type
REMARK                         _______ _______ _______ _____ _____    ______ ____
ROOT
ATOM      1  C   UNL     1       6.067   6.037  17.118  0.00  0.00    +0.000 C 
ATOM      2  C   UNL     1       5.880   5.225  15.807  0.00  0.00    +0.000 C 
ATOM      3  C   UNL     1       5.511   3.751  16.088  0.00  0.00    +0.000 C 
ATOM      4  C   UNL     1       4.405   3.708  17.078  0.00  0.00    +0.000 A 
ATOM      5  N   UNL     1       3.534   2.673  17.270  0.00  0.00    +0.000 N 
ATOM      6  C   UNL     1       2.603   3.018  18.230  0.00  0.00    +0.000 A 
ATOM      7  C   UNL     1       1.508   2.298  18.719  0.00  0.00    +0.000 A 
ATOM      8  C   UNL     1       0.711   2.912  19.688  0.00  0.00    +0.000 A 
ATOM      9  C   UNL     1       1.000   4.195  20.150  0.00  0.00    +0.000 A 
ATOM     10  C   UNL     1       2.102   4.922  19.662  0.00  0.00    +0.000 A 
ATOM     11  C   UNL     1       2.359   6.310  20.182  0.00  0.00    +0.000 C 
ATOM     12  C   UNL     1       2.916   4.305  18.679  0.00  0.00    +0.000 A 
ATOM     13  C   UNL     1       4.068   4.719  17.949  0.00  0.00    +0.000 A 
ATOM     14  C   UNL     1       4.783   6.021  17.988  0.00  0.00    +0.000 C 
ATOM     15  H   UNL     1       3.536   1.798  16.766  0.00  0.00    +0.000 HD
ENDROOT
BRANCH   1  17
ATOM     16  C   UNL     1       7.648   7.858  17.535  0.00  0.00    +0.000 C 
ATOM     17  N   UNL     1       6.479   7.417  16.783  0.00  0.00    +0.000 NA
ATOM     18  H   UNL     1       6.680   7.476  15.786  0.00  0.00    +0.000 HD
ENDBRANCH   1  17
TORSDOF 1
ENDMDL
MODEL 3
REMARK VINA RESULT:      -7.0      1.612      5.708
REMARK  Name = 
REMARK  3 active torsions:
REMARK  status: ('A' for Active; 'I' for Inactive)
REMARK    1  A    between atoms: C_1  and  N_2
REMARK    2  A    between atoms: N_2  and  C_3
REMARK    3  A    between atoms: C_12  and  C_13
REMARK                            x       y       z     vdW  Elec       q    Type
REMARK                         _______ _______ _______ _____ _____    ______ ____
ROOT
ATOM      1  C   UNL     1       1.403   3.020  19.263  0.00  0.00    +0.000 C 
ATOM      2  C   UNL     1       2.410   1.864  19.509  0.00  0.00    +0.000 C 
ATOM      3  C   UNL     1       3.260   1.560  18.256  0.00  0.00    +0.000 C 
ATOM      4  C   UNL     1       3.806   2.833  17.720  0.00  0.00    +0.000 A 
ATOM      5  N   UNL     1       4.903   2.965  16.915  0.00  0.00    +0.000 N 
ATOM      6  C   UNL     1       5.143   4.303  16.672  0.00  0.00    +0.000 A 
ATOM      7  C   UNL     1       6.170   4.912  15.941  0.00  0.00    +0.000 A 
ATOM      8  C   UNL     1       6.179   6.308  15.880  0.00  0.00    +0.000 A 
ATOM      9  C   UNL     1       5.200   7.063  16.522  0.00  0.00    +0.000 A 
ATOM     10  C   UNL     1       4.164   6.454  17.256  0.00  0.00    +0.000 A 
ATOM     11  C   UNL     1       3.141   7.316  17.944  0.00  0.00    +0.000 C 
ATOM     12  C   UNL     1       4.147   5.038  17.322  0.00  0.00    +0.000 A 
ATOM     13  C   UNL     1       3.301   4.089  17.967  0.00  0.00    +0.000 A 
ATOM     14  C   UNL     1       2.126   4.327  18.845  0.00  0.00    +0.000 C 
ATOM     15  H   UNL     1       5.480   2.210  16.575  0.00  0.00    +0.000 HD
ENDROOT
BRANCH   1  17
ATOM     16  C   UNL     1       1.262   2.809  21.696  0.00  0.00    +0.000 C 
ATOM     17  N   UNL     1       0.580   3.219  20.475  0.00  0.00    +0.000 NA
ATOM     18  H   UNL     1       0.321   4.201  20.549  0.00  0.00    +0.000 HD
ENDBRANCH   1  17
TORSDOF 1
ENDMDL
MODEL 4
REMARK VINA RESULT:      -6.7      1.733      2.183
REMARK  Name = 
REMARK  3 active torsions:
REMARK  status: ('A' for Active; 'I' for Inactive)
REMARK    1  A    between atoms: C_1  and  N_2
REMARK    2  A    between atoms: N_2  and  C_3
REMARK    3  A    between atoms: C_12  and  C_13
REMARK                            x       y       z     vdW  Elec       q    Type
REMARK                         _______ _______ _______ _____ _____    ______ ____
ROOT
ATOM      1  C   UNL     1       5.786   5.599  16.298  0.00  0.00    +0.000 C 
ATOM      2  C   UNL     1       6.937   4.687  16.806  0.00  0.00    +0.000 C 
ATOM      3  C   UNL     1       6.912   4.526  18.342  0.00  0.00    +0.000 C 
ATOM      4  C   UNL     1       5.532   4.182  18.771  0.00  0.00    +0.000 A 
ATOM      5  N   UNL     1       5.181   3.563  19.938  0.00  0.00    +0.000 N 
ATOM      6  C   UNL     1       3.817   3.351  19.961  0.00  0.00    +0.000 A 
ATOM      7  C   UNL     1       3.022   2.722  20.926  0.00  0.00    +0.000 A 
ATOM      8  C   UNL     1       1.651   2.628  20.673  0.00  0.00    +0.000 A 
ATOM      9  C   UNL     1       1.098   3.144  19.502  0.00  0.00    +0.000 A 
ATOM     10  C   UNL     1       1.894   3.780  18.530  0.00  0.00    +0.000 A 
ATOM     11  C   UNL     1       1.249   4.305  17.277  0.00  0.00    +0.000 C 
ATOM     12  C   UNL     1       3.286   3.880  18.780  0.00  0.00    +0.000 A 
ATOM     13  C   UNL     1       4.385   4.415  18.047  0.00  0.00    +0.000 A 
ATOM     14  C   UNL     1       4.396   5.040  16.700  0.00  0.00    +0.000 C 
ATOM     15  H   UNL     1       5.817   3.267  20.664  0.00  0.00    +0.000 HD
ENDROOT
BRANCH   1  17
ATOM     16  C   UNL     1       6.731   4.736  14.212  0.00  0.00    +0.000 C 
ATOM     17  N   UNL     1       5.903   5.763  14.833  0.00  0.00    +0.000 NA
ATOM     18  H   UNL     1       4.974   5.742  14.416  0.00  0.00    +0.000 HD
ENDBRANCH   1  17
TORSDOF 1
ENDMDL
MODEL 5
REMARK VINA RESULT:      -6.7      1.296      1.476
REMARK  Name = 
REMARK  3 active torsions:
REMARK  status: ('A' for Active; 'I' for Inactive)
REMARK    1  A    between atoms: C_1  and  N_2
REMARK    2  A    between atoms: N_2  and  C_3
REMARK    3  A    between atoms: C_12  and  C_13
REMARK                            x       y       z     vdW  Elec       q    Type
REMARK                         _______ _______ _______ _____ _____    ______ ____
ROOT
ATOM      1  C   UNL     1       5.946   5.206  16.781  0.00  0.00    +0.000 C 
ATOM      2  C   UNL     1       5.580   6.695  17.035  0.00  0.00    +0.000 C 
ATOM      3  C   UNL     1       4.054   6.905  17.143  0.00  0.00    +0.000 C 
ATOM      4  C   UNL     1       3.491   5.899  18.078  0.00  0.00    +0.000 A 
ATOM      5  N   UNL     1       2.307   5.998  18.754  0.00  0.00    +0.000 N 
ATOM      6  C   UNL     1       2.147   4.902  19.578  0.00  0.00    +0.000 A 
ATOM      7  C   UNL     1       1.118   4.597  20.476  0.00  0.00    +0.000 A 
ATOM      8  C   UNL     1       1.228   3.411  21.207  0.00  0.00    +0.000 A 
ATOM      9  C   UNL     1       2.323   2.564  21.043  0.00  0.00    +0.000 A 
ATOM     10  C   UNL     1       3.359   2.866  20.139  0.00  0.00    +0.000 A 
ATOM     11  C   UNL     1       4.527   1.927  20.013  0.00  0.00    +0.000 C 
ATOM     12  C   UNL     1       3.254   4.068  19.393  0.00  0.00    +0.000 A 
ATOM     13  C   UNL     1       4.086   4.708  18.430  0.00  0.00    +0.000 A 
ATOM     14  C   UNL     1       5.413   4.288  17.912  0.00  0.00    +0.000 C 
ATOM     15  H   UNL     1       1.658   6.770  18.698  0.00  0.00    +0.000 HD
ENDROOT
BRANCH   1  17
ATOM     16  C   UNL     1       8.064   4.543  17.812  0.00  0.00    +0.000 C 
ATOM     17  N   UNL     1       7.411   5.083  16.625  0.00  0.00    +0.000 NA
ATOM     18  H   UNL     1       7.615   4.482  15.828  0.00  0.00    +0.000 HD
ENDBRANCH   1  17
TORSDOF 1
ENDMDL
MODEL 6
REMARK VINA RESULT:      -6.7      2.245      4.649
REMARK  Name = 
REMARK  3 active torsions:
REMARK  status: ('A' for Active; 'I' for Inactive)
REMARK    1  A    between atoms: C_1  and  N_2
REMARK    2  A    between atoms: N_2  and  C_3
REMARK    3  A    between atoms: C_12  and  C_13
REMARK                            x       y       z     vdW  Elec       q    Type
REMARK                         _______ _______ _______ _____ _____    ______ ____
ROOT
ATOM      1  C   UNL     1       4.064   2.917  20.023  0.00  0.00    +0.000 C 
ATOM      2  C   UNL     1       2.717   2.655  20.751  0.00  0.00    +0.000 C 
ATOM      3  C   UNL     1       2.260   3.877  21.577  0.00  0.00    +0.000 C 
ATOM      4  C   UNL     1       2.350   5.095  20.732  0.00  0.00    +0.000 A 
ATOM      5  N   UNL     1       1.669   6.265  20.926  0.00  0.00    +0.000 N 
ATOM      6  C   UNL     1       1.959   7.148  19.905  0.00  0.00    +0.000 A 
ATOM      7  C   UNL     1       1.470   8.437  19.667  0.00  0.00    +0.000 A 
ATOM      8  C   UNL     1       1.927   9.102  18.527  0.00  0.00    +0.000 A 
ATOM      9  C   UNL     1       2.839   8.501  17.661  0.00  0.00    +0.000 A 
ATOM     10  C   UNL     1       3.336   7.205  17.898  0.00  0.00    +0.000 A 
ATOM     11  C   UNL     1       4.306   6.596  16.922  0.00  0.00    +0.000 C 
ATOM     12  C   UNL     1       2.877   6.524  19.054  0.00  0.00    +0.000 A 
ATOM     13  C   UNL     1       3.124   5.232  19.602  0.00  0.00    +0.000 A 
ATOM     14  C   UNL     1       3.970   4.134  19.067  0.00  0.00    +0.000 C 
ATOM     15  H   UNL     1       1.020   6.453  21.677  0.00  0.00    +0.000 HD
ENDROOT
BRANCH   1  17
ATOM     16  C   UNL     1       3.609   1.378  18.176  0.00  0.00    +0.000 C 
ATOM     17  N   UNL     1       4.477   1.692  19.305  0.00  0.00    +0.000 NA
ATOM     18  H   UNL     1       5.434   1.804  18.971  0.00  0.00    +0.000 HD
ENDBRANCH   1  17
TORSDOF 1
ENDMDL
MODEL 7
REMARK VINA RESULT:      -6.6      2.161      4.842
REMARK  Name = 
REMARK  3 active torsions:
REMARK  status: ('A' for Active; 'I' for Inactive)
REMARK    1  A    between atoms: C_1  and  N_2
REMARK    2  A    between atoms: N_2  and  C_3
REMARK    3  A    between atoms: C_12  and  C_13
REMARK                            x       y       z     vdW  Elec       q    Type
REMARK                         _______ _______ _______ _____ _____    ______ ____
ROOT
ATOM      1  C   UNL     1       1.759   8.006  20.315  0.00  0.00    +0.000 C 
ATOM      2  C   UNL     1       1.774   8.517  18.849  0.00  0.00    +0.000 C 
ATOM      3  C   UNL     1       2.939   7.911  18.037  0.00  0.00    +0.000 C 
ATOM      4  C   UNL     1       2.962   6.441  18.243  0.00  0.00    +0.000 A 
ATOM      5  N   UNL     1       3.535   5.518  17.414  0.00  0.00    +0.000 N 
ATOM      6  C   UNL     1       3.300   4.246  17.899  0.00  0.00    +0.000 A 
ATOM      7  C   UNL     1       3.658   3.003  17.367  0.00  0.00    +0.000 A 
ATOM      8  C   UNL     1       3.264   1.861  18.069  0.00  0.00    +0.000 A 
ATOM      9  C   UNL     1       2.541   1.961  19.257  0.00  0.00    +0.000 A 
ATOM     10  C   UNL     1       2.181   3.211  19.797  0.00  0.00    +0.000 A 
ATOM     11  C   UNL     1       1.387   3.262  21.073  0.00  0.00    +0.000 C 
ATOM     12  C   UNL     1       2.579   4.374  19.090  0.00  0.00    +0.000 A 
ATOM     13  C   UNL     1       2.387   5.770  19.299  0.00  0.00    +0.000 A 
ATOM     14  C   UNL     1       1.637   6.461  20.379  0.00  0.00    +0.000 C 
ATOM     15  H   UNL     1       4.025   5.720  16.554  0.00  0.00    +0.000 HD
ENDROOT
BRANCH   1  17
ATOM     16  C   UNL     1       1.094   9.227  22.329  0.00  0.00    +0.000 C 
ATOM     17  N   UNL     1       0.662   8.669  21.053  0.00  0.00    +0.000 NA
ATOM     18  H   UNL     1       0.270   9.412  20.477  0.00  0.00    +0.000 HD
ENDBRANCH   1  17
TORSDOF 1
ENDMDL
MODEL 8
REMARK VINA RESULT:      -6.5      2.303      5.437
REMARK  Name = 
REMARK  3 active torsions:
REMARK  status: ('A' for Active; 'I' for Inactive)
REMARK    1  A    between atoms: C_1  and  N_2
REMARK    2  A    between atoms: N_2  and  C_3
REMARK    3  A    between atoms: C_12  and  C_13
REMARK                            x       y       z     vdW  Elec       q    Type
REMARK                         _______ _______ _______ _____ _____    ______ ____
ROOT
ATOM      1  C   UNL     1       2.688   3.159  17.960  0.00  0.00    +0.000 C 
ATOM      2  C   UNL     1       2.929   2.874  19.468  0.00  0.00    +0.000 C 
ATOM      3  C   UNL     1       4.431   2.729  19.796  0.00  0.00    +0.000 C 
ATOM      4  C   UNL     1       5.172   3.866  19.192  0.00  0.00    +0.000 A 
ATOM      5  N   UNL     1       6.397   4.330  19.583  0.00  0.00    +0.000 N 
ATOM      6  C   UNL     1       6.737   5.438  18.832  0.00  0.00    +0.000 A 
ATOM      7  C   UNL     1       7.867   6.260  18.906  0.00  0.00    +0.000 A 
ATOM      8  C   UNL     1       7.939   7.341  18.024  0.00  0.00    +0.000 A 
ATOM      9  C   UNL     1       6.921   7.588  17.105  0.00  0.00    +0.000 A 
ATOM     10  C   UNL     1       5.783   6.763  17.026  0.00  0.00    +0.000 A 
ATOM     11  C   UNL     1       4.705   7.084  16.027  0.00  0.00    +0.000 C 
ATOM     12  C   UNL     1       5.703   5.663  17.917  0.00  0.00    +0.000 A 
ATOM     13  C   UNL     1       4.729   4.649  18.150  0.00  0.00    +0.000 A 
ATOM     14  C   UNL     1       3.407   4.454  17.501  0.00  0.00    +0.000 C 
ATOM     15  H   UNL     1       6.960   3.952  20.331  0.00  0.00    +0.000 HD
ENDROOT
BRANCH   1  17
ATOM     16  C   UNL     1       0.438   2.688  18.799  0.00  0.00    +0.000 C 
ATOM     17  N   UNL     1       1.234   3.224  17.701  0.00  0.00    +0.000 NA
ATOM     18  H   UNL     1       0.964   4.192  17.533  0.00  0.00    +0.000 HD
ENDBRANCH   1  17
TORSDOF 1
ENDMDL
MODEL 9
REMARK VINA RESULT:      -6.5      2.935      4.653
REMARK  Name = 
REMARK  3 active torsions:
REMARK  status: ('A' for Active; 'I' for Inactive)
REMARK    1  A    between atoms: C_1  and  N_2
REMARK    2  A    between atoms: N_2  and  C_3
REMARK    3  A    between atoms: C_12  and  C_13
REMARK                            x       y       z     vdW  Elec       q    Type
REMARK                         _______ _______ _______ _____ _____    ______ ____
ROOT
ATOM      1  C   UNL     1       5.371   3.833  12.397  0.00  0.00    +0.000 C 
ATOM      2  C   UNL     1       6.912   3.845  12.204  0.00  0.00    +0.000 C 
ATOM      3  C   UNL     1       7.580   5.014  12.961  0.00  0.00    +0.000 C 
ATOM      4  C   UNL     1       7.070   5.044  14.355  0.00  0.00    +0.000 A 
ATOM      5  N   UNL     1       7.688   5.623  15.428  0.00  0.00    +0.000 N 
ATOM      6  C   UNL     1       6.947   5.395  16.571  0.00  0.00    +0.000 A 
ATOM      7  C   UNL     1       7.207   5.760  17.897  0.00  0.00    +0.000 A 
ATOM      8  C   UNL     1       6.280   5.372  18.868  0.00  0.00    +0.000 A 
ATOM      9  C   UNL     1       5.139   4.649  18.525  0.00  0.00    +0.000 A 
ATOM     10  C   UNL     1       4.873   4.282  17.192  0.00  0.00    +0.000 A 
ATOM     11  C   UNL     1       3.635   3.487  16.878  0.00  0.00    +0.000 C 
ATOM     12  C   UNL     1       5.808   4.673  16.201  0.00  0.00    +0.000 A 
ATOM     13  C   UNL     1       5.896   4.474  14.792  0.00  0.00    +0.000 A 
ATOM     14  C   UNL     1       4.984   3.719  13.895  0.00  0.00    +0.000 C 
ATOM     15  H   UNL     1       8.571   6.111  15.408  0.00  0.00    +0.000 HD
ENDROOT
BRANCH   1  17
ATOM     16  C   UNL     1       3.623   3.148  10.827  0.00  0.00    +0.000 C 
ATOM     17  N   UNL     1       4.787   2.732  11.600  0.00  0.00    +0.000 NA
ATOM     18  H   UNL     1       5.495   2.362  10.968  0.00  0.00    +0.000 HD
ENDBRANCH   1  17
TORSDOF 1
ENDMDL
