MODEL 1
REMARK VINA RESULT:      -6.8      0.000      0.000
REMARK  Name = 
REMARK  11 active torsions:
REMARK  status: ('A' for Active; 'I' for Inactive)
REMARK    1  A    between atoms: C_1  and  N_2
REMARK    2  A    between atoms: N_2  and  C_3
REMARK    3  A    between atoms: C_3  and  C_4
REMARK    4  A    between atoms: N_6  and  C_7
REMARK    5  A    between atoms: C_14  and  C_16
REMARK    6  A    between atoms: C_16  and  O_17
REMARK    7  A    between atoms: O_17  and  C_18
REMARK    8  A    between atoms: C_18  and  C_20
REMARK    9  A    between atoms: C_20  and  O_21
REMARK   10  A    between atoms: O_21  and  C_22
REMARK   11  A    between atoms: C_25  and  C_26
REMARK                            x       y       z     vdW  Elec       q    Type
REMARK                         _______ _______ _______ _____ _____    ______ ____
ROOT
ATOM      1  C   UNL     1       1.821   8.957  18.784  0.00  0.00    +0.000 C 
ATOM      2  N   UNL     1       1.645   8.034  19.895  0.00  0.00    +0.000 N 
ATOM      3  C   UNL     1       2.244   6.777  19.747  0.00  0.00    +0.000 C 
ATOM      4  O   UNL     1       2.893   6.511  18.732  0.00  0.00    +0.000 OA
ENDROOT
BRANCH   2   5
ATOM      5  C   UNL     1       0.625   8.368  20.898  0.00  0.00    +0.000 C 
BRANCH   5   6
ATOM      6  C   UNL     1       0.680   9.746  21.566  0.00  0.00    +0.000 C 
ATOM      7  O   UNL     1       1.514   9.950  22.450  0.00  0.00    +0.000 OA
ATOM      8  N   UNL     1      -0.314  10.643  21.214  0.00  0.00    +0.000 N 
ATOM      9  H   UNL     1      -1.152  10.247  20.802  0.00  0.00    +0.000 HD
BRANCH   8  10
ATOM     10  C   UNL     1      -0.419  11.906  21.839  0.00  0.00    +0.000 A 
ATOM     11  C   UNL     1      -1.262  12.105  22.942  0.00  0.00    +0.000 A 
ATOM     12  C   UNL     1      -1.410  13.376  23.500  0.00  0.00    +0.000 A 
ATOM     13  C   UNL     1      -0.732  14.449  22.935  0.00  0.00    +0.000 A 
ATOM     14  F   UNL     1      -0.912  15.679  23.435  0.00  0.00    +0.000 F 
ATOM     15  C   UNL     1       0.124  14.264  21.854  0.00  0.00    +0.000 A 
ATOM     16  C   UNL     1       0.308  12.983  21.323  0.00  0.00    +0.000 A 
ENDBRANCH   8  10
ENDBRANCH   5   6
ENDBRANCH   2   5
BRANCH   3  17
ATOM     17  C   UNL     1       2.087   5.746  20.876  0.00  0.00    +0.000 C 
BRANCH  17  18
ATOM     18  O   UNL     1       1.103   4.729  20.650  0.00  0.00    +0.000 OA
BRANCH  18  19
ATOM     19  C   UNL     1       1.523   3.450  20.862  0.00  0.00    +0.000 C 
ATOM     20  O   UNL     1       1.731   2.950  21.960  0.00  0.00    +0.000 OA
BRANCH  19  21
ATOM     21  C   UNL     1       1.496   2.660  19.558  0.00  0.00    +0.000 C 
BRANCH  21  22
ATOM     22  O   UNL     1       2.712   2.051  19.157  0.00  0.00    +0.000 OA
BRANCH  22  23
ATOM     23  C   UNL     1       3.671   2.906  18.664  0.00  0.00    +0.000 A 
ATOM     24  C   UNL     1       4.758   3.411  19.383  0.00  0.00    +0.000 A 
ATOM     25  C   UNL     1       5.679   4.271  18.768  0.00  0.00    +0.000 A 
ATOM     26  C   UNL     1       5.525   4.638  17.429  0.00  0.00    +0.000 A 
ATOM     27  C   UNL     1       4.432   4.134  16.707  0.00  0.00    +0.000 A 
ATOM     28  C   UNL     1       3.510   3.271  17.329  0.00  0.00    +0.000 A 
BRANCH  26  29
ATOM     29  C   UNL     1       6.473   5.519  16.800  0.00  0.00    +0.000 C 
ATOM     30  N   UNL     1       7.231   6.245  16.290  0.00  0.00    +0.000 NA
ENDBRANCH  26  29
ENDBRANCH  22  23
ENDBRANCH  21  22
ENDBRANCH  19  21
ENDBRANCH  18  19
ENDBRANCH  17  18
ENDBRANCH   3  17
TORSDOF 10
ENDMDL
MODEL 2
REMARK VINA RESULT:      -6.7      3.066      5.467
REMARK  Name = 
REMARK  11 active torsions:
REMARK  status: ('A' for Active; 'I' for Inactive)
REMARK    1  A    between atoms: C_1  and  N_2
REMARK    2  A    between atoms: N_2  and  C_3
REMARK    3  A    between atoms: C_3  and  C_4
REMARK    4  A    between atoms: N_6  and  C_7
REMARK    5  A    between atoms: C_14  and  C_16
REMARK    6  A    between atoms: C_16  and  O_17
REMARK    7  A    between atoms: O_17  and  C_18
REMARK    8  A    between atoms: C_18  and  C_20
REMARK    9  A    between atoms: C_20  and  O_21
REMARK   10  A    between atoms: O_21  and  C_22
REMARK   11  A    between atoms: C_25  and  C_26
REMARK                            x       y       z     vdW  Elec       q    Type
REMARK                         _______ _______ _______ _____ _____    ______ ____
ROOT
ATOM      1  C   UNL     1       1.870   2.098  19.319  0.00  0.00    +0.000 C 
ATOM      2  N   UNL     1       2.872   3.136  19.508  0.00  0.00    +0.000 N 
ATOM      3  C   UNL     1       4.034   3.013  18.737  0.00  0.00    +0.000 C 
ATOM      4  O   UNL     1       4.157   2.079  17.939  0.00  0.00    +0.000 OA
ENDROOT
BRANCH   2   5
ATOM      5  C   UNL     1       2.727   4.012  20.677  0.00  0.00    +0.000 C 
BRANCH   5   6
ATOM      6  C   UNL     1       1.897   5.294  20.534  0.00  0.00    +0.000 C 
ATOM      7  O   UNL     1       0.668   5.211  20.513  0.00  0.00    +0.000 OA
ATOM      8  N   UNL     1       2.602   6.463  20.304  0.00  0.00    +0.000 N 
ATOM      9  H   UNL     1       3.545   6.356  19.946  0.00  0.00    +0.000 HD
BRANCH   8  10
ATOM     10  C   UNL     1       1.936   7.685  20.058  0.00  0.00    +0.000 A 
ATOM     11  C   UNL     1       1.919   8.261  18.780  0.00  0.00    +0.000 A 
ATOM     12  C   UNL     1       1.321   9.505  18.572  0.00  0.00    +0.000 A 
ATOM     13  C   UNL     1       0.765  10.180  19.650  0.00  0.00    +0.000 A 
ATOM     14  F   UNL     1       0.237  11.398  19.466  0.00  0.00    +0.000 F 
ATOM     15  C   UNL     1       0.756   9.613  20.921  0.00  0.00    +0.000 A 
ATOM     16  C   UNL     1       1.314   8.346  21.121  0.00  0.00    +0.000 A 
ENDBRANCH   8  10
ENDBRANCH   5   6
ENDBRANCH   2   5
BRANCH   3  17
ATOM     17  C   UNL     1       5.142   4.067  18.895  0.00  0.00    +0.000 C 
BRANCH  17  18
ATOM     18  O   UNL     1       4.721   5.429  18.757  0.00  0.00    +0.000 OA
BRANCH  18  19
ATOM     19  C   UNL     1       5.350   6.141  17.780  0.00  0.00    +0.000 C 
ATOM     20  O   UNL     1       4.959   7.208  17.324  0.00  0.00    +0.000 OA
BRANCH  19  21
ATOM     21  C   UNL     1       6.717   5.535  17.479  0.00  0.00    +0.000 C 
BRANCH  21  22
ATOM     22  O   UNL     1       7.333   5.926  16.263  0.00  0.00    +0.000 OA
BRANCH  22  23
ATOM     23  C   UNL     1       6.981   5.190  15.155  0.00  0.00    +0.000 A 
ATOM     24  C   UNL     1       7.568   5.290  13.891  0.00  0.00    +0.000 A 
ATOM     25  C   UNL     1       7.129   4.478  12.836  0.00  0.00    +0.000 A 
ATOM     26  C   UNL     1       6.097   3.556  13.031  0.00  0.00    +0.000 A 
ATOM     27  C   UNL     1       5.504   3.456  14.299  0.00  0.00    +0.000 A 
ATOM     28  C   UNL     1       5.948   4.275  15.355  0.00  0.00    +0.000 A 
BRANCH  26  29
ATOM     29  C   UNL     1       5.650   2.721  11.948  0.00  0.00    +0.000 C 
ATOM     30  N   UNL     1       5.277   2.036  11.080  0.00  0.00    +0.000 NA
ENDBRANCH  26  29
ENDBRANCH  22  23
ENDBRANCH  21  22
ENDBRANCH  19  21
ENDBRANCH  18  19
ENDBRANCH  17  18
ENDBRANCH   3  17
TORSDOF 10
ENDMDL
MODEL 3
REMARK VINA RESULT:      -6.6      4.443      9.157
REMARK  Name = 
REMARK  11 active torsions:
REMARK  status: ('A' for Active; 'I' for Inactive)
REMARK    1  A    between atoms: C_1  and  N_2
REMARK    2  A    between atoms: N_2  and  C_3
REMARK    3  A    between atoms: C_3  and  C_4
REMARK    4  A    between atoms: N_6  and  C_7
REMARK    5  A    between atoms: C_14  and  C_16
REMARK    6  A    between atoms: C_16  and  O_17
REMARK    7  A    between atoms: O_17  and  C_18
REMARK    8  A    between atoms: C_18  and  C_20
REMARK    9  A    between atoms: C_20  and  O_21
REMARK   10  A    between atoms: O_21  and  C_22
REMARK   11  A    between atoms: C_25  and  C_26
REMARK                            x       y       z     vdW  Elec       q    Type
REMARK                         _______ _______ _______ _____ _____    ______ ____
ROOT
ATOM      1  C   UNL     1       2.285   3.505  16.665  0.00  0.00    +0.000 C 
ATOM      2  N   UNL     1       3.166   3.126  17.760  0.00  0.00    +0.000 N 
ATOM      3  C   UNL     1       2.589   2.343  18.767  0.00  0.00    +0.000 C 
ATOM      4  O   UNL     1       1.407   1.996  18.688  0.00  0.00    +0.000 OA
ENDROOT
BRANCH   2   5
ATOM      5  C   UNL     1       4.447   3.835  17.874  0.00  0.00    +0.000 C 
BRANCH   5   6
ATOM      6  C   UNL     1       5.080   4.413  16.603  0.00  0.00    +0.000 C 
ATOM      7  O   UNL     1       4.844   5.583  16.296  0.00  0.00    +0.000 OA
ATOM      8  N   UNL     1       5.782   3.526  15.805  0.00  0.00    +0.000 N 
ATOM      9  H   UNL     1       5.576   2.542  15.937  0.00  0.00    +0.000 HD
BRANCH   8  10
ATOM     10  C   UNL     1       6.323   3.926  14.562  0.00  0.00    +0.000 A 
ATOM     11  C   UNL     1       7.341   4.887  14.486  0.00  0.00    +0.000 A 
ATOM     12  C   UNL     1       7.811   5.325  13.247  0.00  0.00    +0.000 A 
ATOM     13  C   UNL     1       7.241   4.818  12.087  0.00  0.00    +0.000 A 
ATOM     14  F   UNL     1       7.652   5.274  10.896  0.00  0.00    +0.000 F 
ATOM     15  C   UNL     1       6.244   3.849  12.145  0.00  0.00    +0.000 A 
ATOM     16  C   UNL     1       5.805   3.376  13.386  0.00  0.00    +0.000 A 
ENDBRANCH   8  10
ENDBRANCH   5   6
ENDBRANCH   2   5
BRANCH   3  17
ATOM     17  C   UNL     1       3.458   1.918  19.962  0.00  0.00    +0.000 C 
BRANCH  17  18
ATOM     18  O   UNL     1       3.473   2.827  21.069  0.00  0.00    +0.000 OA
BRANCH  18  19
ATOM     19  C   UNL     1       2.250   3.234  21.509  0.00  0.00    +0.000 C 
ATOM     20  O   UNL     1       1.464   2.542  22.144  0.00  0.00    +0.000 OA
BRANCH  19  21
ATOM     21  C   UNL     1       2.079   4.734  21.289  0.00  0.00    +0.000 C 
BRANCH  21  22
ATOM     22  O   UNL     1       2.787   5.302  20.200  0.00  0.00    +0.000 OA
BRANCH  22  23
ATOM     23  C   UNL     1       2.361   6.548  19.799  0.00  0.00    +0.000 A 
ATOM     24  C   UNL     1       2.541   7.100  18.528  0.00  0.00    +0.000 A 
ATOM     25  C   UNL     1       2.053   8.380  18.232  0.00  0.00    +0.000 A 
ATOM     26  C   UNL     1       1.379   9.125  19.204  0.00  0.00    +0.000 A 
ATOM     27  C   UNL     1       1.200   8.573  20.482  0.00  0.00    +0.000 A 
ATOM     28  C   UNL     1       1.693   7.288  20.773  0.00  0.00    +0.000 A 
BRANCH  26  29
ATOM     29  C   UNL     1       0.876  10.438  18.898  0.00  0.00    +0.000 C 
ATOM     30  N   UNL     1       0.483  11.507  18.645  0.00  0.00    +0.000 NA
ENDBRANCH  26  29
ENDBRANCH  22  23
ENDBRANCH  21  22
ENDBRANCH  19  21
ENDBRANCH  18  19
ENDBRANCH  17  18
ENDBRANCH   3  17
TORSDOF 10
ENDMDL
MODEL 4
REMARK VINA RESULT:      -6.6      3.478      8.086
REMARK  Name = 
REMARK  11 active torsions:
REMARK  status: ('A' for Active; 'I' for Inactive)
REMARK    1  A    between atoms: C_1  and  N_2
REMARK    2  A    between atoms: N_2  and  C_3
REMARK    3  A    between atoms: C_3  and  C_4
REMARK    4  A    between atoms: N_6  and  C_7
REMARK    5  A    between atoms: C_14  and  C_16
REMARK    6  A    between atoms: C_16  and  O_17
REMARK    7  A    between atoms: O_17  and  C_18
REMARK    8  A    between atoms: C_18  and  C_20
REMARK    9  A    between atoms: C_20  and  O_21
REMARK   10  A    between atoms: O_21  and  C_22
REMARK   11  A    between atoms: C_25  and  C_26
REMARK                            x       y       z     vdW  Elec       q    Type
REMARK                         _______ _______ _______ _____ _____    ______ ____
ROOT
ATOM      1  C   UNL     1       2.452   2.160  21.354  0.00  0.00    +0.000 C 
ATOM      2  N   UNL     1       2.988   2.264  20.004  0.00  0.00    +0.000 N 
ATOM      3  C   UNL     1       2.066   2.097  18.965  0.00  0.00    +0.000 C 
ATOM      4  O   UNL     1       0.874   1.898  19.214  0.00  0.00    +0.000 OA
ENDROOT
BRANCH   2   5
ATOM      5  C   UNL     1       4.448   2.216  19.850  0.00  0.00    +0.000 C 
BRANCH   5   6
ATOM      6  C   UNL     1       5.207   3.534  19.653  0.00  0.00    +0.000 C 
ATOM      7  O   UNL     1       5.144   4.397  20.531  0.00  0.00    +0.000 OA
ATOM      8  N   UNL     1       5.816   3.717  18.424  0.00  0.00    +0.000 N 
ATOM      9  H   UNL     1       5.473   3.143  17.662  0.00  0.00    +0.000 HD
BRANCH   8  10
ATOM     10  C   UNL     1       6.459   4.933  18.097  0.00  0.00    +0.000 A 
ATOM     11  C   UNL     1       7.465   5.467  18.914  0.00  0.00    +0.000 A 
ATOM     12  C   UNL     1       8.036   6.706  18.615  0.00  0.00    +0.000 A 
ATOM     13  C   UNL     1       7.578   7.417  17.515  0.00  0.00    +0.000 A 
ATOM     14  F   UNL     1       8.086   8.630  17.255  0.00  0.00    +0.000 F 
ATOM     15  C   UNL     1       6.594   6.892  16.683  0.00  0.00    +0.000 A 
ATOM     16  C   UNL     1       6.054   5.630  16.955  0.00  0.00    +0.000 A 
ENDBRANCH   8  10
ENDBRANCH   5   6
ENDBRANCH   2   5
BRANCH   3  17
ATOM     17  C   UNL     1       2.565   2.181  17.513  0.00  0.00    +0.000 C 
BRANCH  17  18
ATOM     18  O   UNL     1       2.932   3.490  17.061  0.00  0.00    +0.000 OA
BRANCH  18  19
ATOM     19  C   UNL     1       2.057   4.486  17.377  0.00  0.00    +0.000 C 
ATOM     20  O   UNL     1       0.882   4.525  17.034  0.00  0.00    +0.000 OA
BRANCH  19  21
ATOM     21  C   UNL     1       2.680   5.438  18.392  0.00  0.00    +0.000 C 
BRANCH  21  22
ATOM     22  O   UNL     1       2.857   6.783  17.979  0.00  0.00    +0.000 OA
BRANCH  22  23
ATOM     23  C   UNL     1       2.144   7.721  18.690  0.00  0.00    +0.000 A 
ATOM     24  C   UNL     1       1.929   7.707  20.070  0.00  0.00    +0.000 A 
ATOM     25  C   UNL     1       1.191   8.727  20.686  0.00  0.00    +0.000 A 
ATOM     26  C   UNL     1       0.658   9.774  19.930  0.00  0.00    +0.000 A 
ATOM     27  C   UNL     1       0.870   9.789  18.543  0.00  0.00    +0.000 A 
ATOM     28  C   UNL     1       1.611   8.761  17.929  0.00  0.00    +0.000 A 
BRANCH  26  29
ATOM     29  C   UNL     1      -0.097  10.822  20.565  0.00  0.00    +0.000 C 
ATOM     30  N   UNL     1      -0.716  11.675  21.065  0.00  0.00    +0.000 NA
ENDBRANCH  26  29
ENDBRANCH  22  23
ENDBRANCH  21  22
ENDBRANCH  19  21
ENDBRANCH  18  19
ENDBRANCH  17  18
ENDBRANCH   3  17
TORSDOF 10
ENDMDL
MODEL 5
REMARK VINA RESULT:      -6.6      6.309      9.339
REMARK  Name = 
REMARK  11 active torsions:
REMARK  status: ('A' for Active; 'I' for Inactive)
REMARK    1  A    between atoms: C_1  and  N_2
REMARK    2  A    between atoms: N_2  and  C_3
REMARK    3  A    between atoms: C_3  and  C_4
REMARK    4  A    between atoms: N_6  and  C_7
REMARK    5  A    between atoms: C_14  and  C_16
REMARK    6  A    between atoms: C_16  and  O_17
REMARK    7  A    between atoms: O_17  and  C_18
REMARK    8  A    between atoms: C_18  and  C_20
REMARK    9  A    between atoms: C_20  and  O_21
REMARK   10  A    between atoms: O_21  and  C_22
REMARK   11  A    between atoms: C_25  and  C_26
REMARK                            x       y       z     vdW  Elec       q    Type
REMARK                         _______ _______ _______ _____ _____    ______ ____
ROOT
ATOM      1  C   UNL     1       6.384   3.967  13.347  0.00  0.00    +0.000 C 
ATOM      2  N   UNL     1       6.412   4.067  14.799  0.00  0.00    +0.000 N 
ATOM      3  C   UNL     1       7.321   4.987  15.332  0.00  0.00    +0.000 C 
ATOM      4  O   UNL     1       8.027   5.672  14.585  0.00  0.00    +0.000 OA
ENDROOT
BRANCH   2   5
ATOM      5  C   UNL     1       5.740   3.007  15.563  0.00  0.00    +0.000 C 
BRANCH   5   6
ATOM      6  C   UNL     1       4.589   3.396  16.497  0.00  0.00    +0.000 C 
ATOM      7  O   UNL     1       4.089   4.518  16.396  0.00  0.00    +0.000 OA
ATOM      8  N   UNL     1       4.270   2.490  17.494  0.00  0.00    +0.000 N 
ATOM      9  H   UNL     1       4.985   1.811  17.730  0.00  0.00    +0.000 HD
BRANCH   8  10
ATOM     10  C   UNL     1       3.293   2.787  18.471  0.00  0.00    +0.000 A 
ATOM     11  C   UNL     1       1.955   2.401  18.305  0.00  0.00    +0.000 A 
ATOM     12  C   UNL     1       0.990   2.768  19.245  0.00  0.00    +0.000 A 
ATOM     13  C   UNL     1       1.364   3.543  20.334  0.00  0.00    +0.000 A 
ATOM     14  F   UNL     1       0.432   3.942  21.210  0.00  0.00    +0.000 F 
ATOM     15  C   UNL     1       2.690   3.917  20.524  0.00  0.00    +0.000 A 
ATOM     16  C   UNL     1       3.666   3.511  19.607  0.00  0.00    +0.000 A 
ENDBRANCH   8  10
ENDBRANCH   5   6
ENDBRANCH   2   5
BRANCH   3  17
ATOM     17  C   UNL     1       7.414   5.135  16.860  0.00  0.00    +0.000 C 
BRANCH  17  18
ATOM     18  O   UNL     1       7.948   6.379  17.328  0.00  0.00    +0.000 OA
BRANCH  18  19
ATOM     19  C   UNL     1       7.059   7.409  17.400  0.00  0.00    +0.000 C 
ATOM     20  O   UNL     1       5.841   7.286  17.440  0.00  0.00    +0.000 OA
BRANCH  19  21
ATOM     21  C   UNL     1       7.791   8.726  17.637  0.00  0.00    +0.000 C 
BRANCH  21  22
ATOM     22  O   UNL     1       8.662   8.777  18.755  0.00  0.00    +0.000 OA
BRANCH  22  23
ATOM     23  C   UNL     1       9.174  10.020  19.053  0.00  0.00    +0.000 A 
ATOM     24  C   UNL     1       9.474  10.491  20.334  0.00  0.00    +0.000 A 
ATOM     25  C   UNL     1      10.003  11.777  20.513  0.00  0.00    +0.000 A 
ATOM     26  C   UNL     1      10.238  12.608  19.414  0.00  0.00    +0.000 A 
ATOM     27  C   UNL     1       9.935  12.137  18.127  0.00  0.00    +0.000 A 
ATOM     28  C   UNL     1       9.403  10.845  17.953  0.00  0.00    +0.000 A 
BRANCH  26  29
ATOM     29  C   UNL     1      10.784  13.926  19.600  0.00  0.00    +0.000 C 
ATOM     30  N   UNL     1      11.213  15.002  19.742  0.00  0.00    +0.000 NA
ENDBRANCH  26  29
ENDBRANCH  22  23
ENDBRANCH  21  22
ENDBRANCH  19  21
ENDBRANCH  18  19
ENDBRANCH  17  18
ENDBRANCH   3  17
TORSDOF 10
ENDMDL
MODEL 6
REMARK VINA RESULT:      -6.6      4.828      9.241
REMARK  Name = 
REMARK  11 active torsions:
REMARK  status: ('A' for Active; 'I' for Inactive)
REMARK    1  A    between atoms: C_1  and  N_2
REMARK    2  A    between atoms: N_2  and  C_3
REMARK    3  A    between atoms: C_3  and  C_4
REMARK    4  A    between atoms: N_6  and  C_7
REMARK    5  A    between atoms: C_14  and  C_16
REMARK    6  A    between atoms: C_16  and  O_17
REMARK    7  A    between atoms: O_17  and  C_18
REMARK    8  A    between atoms: C_18  and  C_20
REMARK    9  A    between atoms: C_20  and  O_21
REMARK   10  A    between atoms: O_21  and  C_22
REMARK   11  A    between atoms: C_25  and  C_26
REMARK                            x       y       z     vdW  Elec       q    Type
REMARK                         _______ _______ _______ _____ _____    ______ ____
ROOT
ATOM      1  C   UNL     1       8.134   7.720  17.913  0.00  0.00    +0.000 C 
ATOM      2  N   UNL     1       6.951   6.914  18.178  0.00  0.00    +0.000 N 
ATOM      3  C   UNL     1       7.148   5.784  18.981  0.00  0.00    +0.000 C 
ATOM      4  O   UNL     1       8.267   5.529  19.436  0.00  0.00    +0.000 OA
ENDROOT
BRANCH   2   5
ATOM      5  C   UNL     1       5.763   7.164  17.353  0.00  0.00    +0.000 C 
BRANCH   5   6
ATOM      6  C   UNL     1       5.720   6.580  15.936  0.00  0.00    +0.000 C 
ATOM      7  O   UNL     1       4.836   6.953  15.161  0.00  0.00    +0.000 OA
ATOM      8  N   UNL     1       6.616   5.561  15.661  0.00  0.00    +0.000 N 
ATOM      9  H   UNL     1       7.002   5.074  16.461  0.00  0.00    +0.000 HD
BRANCH   8  10
ATOM     10  C   UNL     1       6.599   4.883  14.421  0.00  0.00    +0.000 A 
ATOM     11  C   UNL     1       5.667   3.869  14.157  0.00  0.00    +0.000 A 
ATOM     12  C   UNL     1       5.713   3.160  12.956  0.00  0.00    +0.000 A 
ATOM     13  C   UNL     1       6.709   3.451  12.033  0.00  0.00    +0.000 A 
ATOM     14  F   UNL     1       6.789   2.737  10.902  0.00  0.00    +0.000 F 
ATOM     15  C   UNL     1       7.628   4.468  12.270  0.00  0.00    +0.000 A 
ATOM     16  C   UNL     1       7.554   5.210  13.454  0.00  0.00    +0.000 A 
ENDBRANCH   8  10
ENDBRANCH   5   6
ENDBRANCH   2   5
BRANCH   3  17
ATOM     17  C   UNL     1       5.945   4.879  19.291  0.00  0.00    +0.000 C 
BRANCH  17  18
ATOM     18  O   UNL     1       5.572   3.969  18.249  0.00  0.00    +0.000 OA
BRANCH  18  19
ATOM     19  C   UNL     1       4.307   3.472  18.329  0.00  0.00    +0.000 C 
ATOM     20  O   UNL     1       3.840   2.613  17.593  0.00  0.00    +0.000 OA
BRANCH  19  21
ATOM     21  C   UNL     1       3.619   3.975  19.595  0.00  0.00    +0.000 C 
BRANCH  21  22
ATOM     22  O   UNL     1       2.287   4.441  19.453  0.00  0.00    +0.000 OA
BRANCH  22  23
ATOM     23  C   UNL     1       2.150   5.792  19.230  0.00  0.00    +0.000 A 
ATOM     24  C   UNL     1       2.301   6.434  17.998  0.00  0.00    +0.000 A 
ATOM     25  C   UNL     1       2.127   7.821  17.892  0.00  0.00    +0.000 A 
ATOM     26  C   UNL     1       1.802   8.584  19.016  0.00  0.00    +0.000 A 
ATOM     27  C   UNL     1       1.654   7.942  20.255  0.00  0.00    +0.000 A 
ATOM     28  C   UNL     1       1.830   6.549  20.356  0.00  0.00    +0.000 A 
BRANCH  26  29
ATOM     29  C   UNL     1       1.621  10.007  18.904  0.00  0.00    +0.000 C 
ATOM     30  N   UNL     1       1.467  11.159  18.799  0.00  0.00    +0.000 NA
ENDBRANCH  26  29
ENDBRANCH  22  23
ENDBRANCH  21  22
ENDBRANCH  19  21
ENDBRANCH  18  19
ENDBRANCH  17  18
ENDBRANCH   3  17
TORSDOF 10
ENDMDL
MODEL 7
REMARK VINA RESULT:      -6.5      1.132      1.143
REMARK  Name = 
REMARK  11 active torsions:
REMARK  status: ('A' for Active; 'I' for Inactive)
REMARK    1  A    between atoms: C_1  and  N_2
REMARK    2  A    between atoms: N_2  and  C_3
REMARK    3  A    between atoms: C_3  and  C_4
REMARK    4  A    between atoms: N_6  and  C_7
REMARK    5  A    between atoms: C_14  and  C_16
REMARK    6  A    between atoms: C_16  and  O_17
REMARK    7  A    between atoms: O_17  and  C_18
REMARK    8  A    between atoms: C_18  and  C_20
REMARK    9  A    between atoms: C_20  and  O_21
REMARK   10  A    between atoms: O_21  and  C_22
REMARK   11  A    between atoms: C_25  and  C_26
REMARK                            x       y       z     vdW  Elec       q    Type
REMARK                         _______ _______ _______ _____ _____    ______ ____
ROOT
ATOM      1  C   UNL     1       1.990   8.775  18.546  0.00  0.00    +0.000 C 
ATOM      2  N   UNL     1       1.979   7.907  19.715  0.00  0.00    +0.000 N 
ATOM      3  C   UNL     1       2.122   6.538  19.462  0.00  0.00    +0.000 C 
ATOM      4  O   UNL     1       2.267   6.128  18.307  0.00  0.00    +0.000 OA
ENDROOT
BRANCH   2   5
ATOM      5  C   UNL     1       1.517   8.485  20.983  0.00  0.00    +0.000 C 
BRANCH   5   6
ATOM      6  C   UNL     1       0.417   9.553  20.943  0.00  0.00    +0.000 C 
ATOM      7  O   UNL     1      -0.631   9.310  20.343  0.00  0.00    +0.000 OA
ATOM      8  N   UNL     1       0.735  10.787  21.484  0.00  0.00    +0.000 N 
ATOM      9  H   UNL     1       1.723  10.996  21.579  0.00  0.00    +0.000 HD
BRANCH   8  10
ATOM     10  C   UNL     1      -0.165  11.874  21.414  0.00  0.00    +0.000 A 
ATOM     11  C   UNL     1      -1.122  12.094  22.415  0.00  0.00    +0.000 A 
ATOM     12  C   UNL     1      -2.052  13.127  22.291  0.00  0.00    +0.000 A 
ATOM     13  C   UNL     1      -2.037  13.922  21.152  0.00  0.00    +0.000 A 
ATOM     14  F   UNL     1      -2.961  14.881  21.005  0.00  0.00    +0.000 F 
ATOM     15  C   UNL     1      -1.082  13.729  20.159  0.00  0.00    +0.000 A 
ATOM     16  C   UNL     1      -0.121  12.723  20.304  0.00  0.00    +0.000 A 
ENDBRANCH   8  10
ENDBRANCH   5   6
ENDBRANCH   2   5
BRANCH   3  17
ATOM     17  C   UNL     1       2.106   5.561  20.650  0.00  0.00    +0.000 C 
BRANCH  17  18
ATOM     18  O   UNL     1       1.070   4.573  20.622  0.00  0.00    +0.000 OA
BRANCH  18  19
ATOM     19  C   UNL     1       1.477   3.290  20.832  0.00  0.00    +0.000 C 
ATOM     20  O   UNL     1       1.694   2.791  21.928  0.00  0.00    +0.000 OA
BRANCH  19  21
ATOM     21  C   UNL     1       1.421   2.496  19.530  0.00  0.00    +0.000 C 
BRANCH  21  22
ATOM     22  O   UNL     1       2.631   1.894  19.099  0.00  0.00    +0.000 OA
BRANCH  22  23
ATOM     23  C   UNL     1       3.596   2.762  18.640  0.00  0.00    +0.000 A 
ATOM     24  C   UNL     1       4.587   3.363  19.419  0.00  0.00    +0.000 A 
ATOM     25  C   UNL     1       5.526   4.226  18.836  0.00  0.00    +0.000 A 
ATOM     26  C   UNL     1       5.483   4.499  17.466  0.00  0.00    +0.000 A 
ATOM     27  C   UNL     1       4.486   3.899  16.682  0.00  0.00    +0.000 A 
ATOM     28  C   UNL     1       3.546   3.034  17.274  0.00  0.00    +0.000 A 
BRANCH  26  29
ATOM     29  C   UNL     1       6.449   5.383  16.868  0.00  0.00    +0.000 C 
ATOM     30  N   UNL     1       7.220   6.107  16.375  0.00  0.00    +0.000 NA
ENDBRANCH  26  29
ENDBRANCH  22  23
ENDBRANCH  21  22
ENDBRANCH  19  21
ENDBRANCH  18  19
ENDBRANCH  17  18
ENDBRANCH   3  17
TORSDOF 10
ENDMDL
MODEL 8
REMARK VINA RESULT:      -6.5      3.448      8.843
REMARK  Name = 
REMARK  11 active torsions:
REMARK  status: ('A' for Active; 'I' for Inactive)
REMARK    1  A    between atoms: C_1  and  N_2
REMARK    2  A    between atoms: N_2  and  C_3
REMARK    3  A    between atoms: C_3  and  C_4
REMARK    4  A    between atoms: N_6  and  C_7
REMARK    5  A    between atoms: C_14  and  C_16
REMARK    6  A    between atoms: C_16  and  O_17
REMARK    7  A    between atoms: O_17  and  C_18
REMARK    8  A    between atoms: C_18  and  C_20
REMARK    9  A    between atoms: C_20  and  O_21
REMARK   10  A    between atoms: O_21  and  C_22
REMARK   11  A    between atoms: C_25  and  C_26
REMARK                            x       y       z     vdW  Elec       q    Type
REMARK                         _______ _______ _______ _____ _____    ______ ____
ROOT
ATOM      1  C   UNL     1       6.589   4.409  15.100  0.00  0.00    +0.000 C 
ATOM      2  N   UNL     1       6.069   5.090  16.276  0.00  0.00    +0.000 N 
ATOM      3  C   UNL     1       5.371   6.279  16.036  0.00  0.00    +0.000 C 
ATOM      4  O   UNL     1       5.206   6.684  14.882  0.00  0.00    +0.000 OA
ENDROOT
BRANCH   2   5
ATOM      5  C   UNL     1       6.576   4.661  17.586  0.00  0.00    +0.000 C 
BRANCH   5   6
ATOM      6  C   UNL     1       5.583   4.528  18.747  0.00  0.00    +0.000 C 
ATOM      7  O   UNL     1       5.875   5.014  19.842  0.00  0.00    +0.000 OA
ATOM      8  N   UNL     1       4.464   3.747  18.516  0.00  0.00    +0.000 N 
ATOM      9  H   UNL     1       4.526   3.090  17.747  0.00  0.00    +0.000 HD
BRANCH   8  10
ATOM     10  C   UNL     1       3.533   3.475  19.544  0.00  0.00    +0.000 A 
ATOM     11  C   UNL     1       3.814   2.544  20.553  0.00  0.00    +0.000 A 
ATOM     12  C   UNL     1       2.853   2.233  21.518  0.00  0.00    +0.000 A 
ATOM     13  C   UNL     1       1.605   2.838  21.452  0.00  0.00    +0.000 A 
ATOM     14  F   UNL     1       0.663   2.504  22.344  0.00  0.00    +0.000 F 
ATOM     15  C   UNL     1       1.318   3.779  20.469  0.00  0.00    +0.000 A 
ATOM     16  C   UNL     1       2.295   4.125  19.530  0.00  0.00    +0.000 A 
ENDBRANCH   8  10
ENDBRANCH   5   6
ENDBRANCH   2   5
BRANCH   3  17
ATOM     17  C   UNL     1       4.805   7.059  17.234  0.00  0.00    +0.000 C 
BRANCH  17  18
ATOM     18  O   UNL     1       3.588   7.773  16.986  0.00  0.00    +0.000 OA
BRANCH  18  19
ATOM     19  C   UNL     1       2.688   7.772  18.009  0.00  0.00    +0.000 C 
ATOM     20  O   UNL     1       2.812   7.146  19.054  0.00  0.00    +0.000 OA
BRANCH  19  21
ATOM     21  C   UNL     1       1.609   8.822  17.767  0.00  0.00    +0.000 C 
BRANCH  21  22
ATOM     22  O   UNL     1       1.888  10.137  18.216  0.00  0.00    +0.000 OA
BRANCH  22  23
ATOM     23  C   UNL     1       1.107  10.588  19.257  0.00  0.00    +0.000 A 
ATOM     24  C   UNL     1       0.915  11.926  19.609  0.00  0.00    +0.000 A 
ATOM     25  C   UNL     1       0.086  12.266  20.688  0.00  0.00    +0.000 A 
ATOM     26  C   UNL     1      -0.560  11.271  21.427  0.00  0.00    +0.000 A 
ATOM     27  C   UNL     1      -0.366   9.927  21.076  0.00  0.00    +0.000 A 
ATOM     28  C   UNL     1       0.468   9.591  19.993  0.00  0.00    +0.000 A 
BRANCH  26  29
ATOM     29  C   UNL     1      -1.413  11.622  22.532  0.00  0.00    +0.000 C 
ATOM     30  N   UNL     1      -2.104  11.923  23.423  0.00  0.00    +0.000 NA
ENDBRANCH  26  29
ENDBRANCH  22  23
ENDBRANCH  21  22
ENDBRANCH  19  21
ENDBRANCH  18  19
ENDBRANCH  17  18
ENDBRANCH   3  17
TORSDOF 10
ENDMDL
MODEL 9
REMARK VINA RESULT:      -6.4      4.431      9.298
REMARK  Name = 
REMARK  11 active torsions:
REMARK  status: ('A' for Active; 'I' for Inactive)
REMARK    1  A    between atoms: C_1  and  N_2
REMARK    2  A    between atoms: N_2  and  C_3
REMARK    3  A    between atoms: C_3  and  C_4
REMARK    4  A    between atoms: N_6  and  C_7
REMARK    5  A    between atoms: C_14  and  C_16
REMARK    6  A    between atoms: C_16  and  O_17
REMARK    7  A    between atoms: O_17  and  C_18
REMARK    8  A    between atoms: C_18  and  C_20
REMARK    9  A    between atoms: C_20  and  O_21
REMARK   10  A    between atoms: O_21  and  C_22
REMARK   11  A    between atoms: C_25  and  C_26
REMARK                            x       y       z     vdW  Elec       q    Type
REMARK                         _______ _______ _______ _____ _____    ______ ____
ROOT
ATOM      1  C   UNL     1       6.808   5.426  19.430  0.00  0.00    +0.000 C 
ATOM      2  N   UNL     1       5.529   5.207  18.769  0.00  0.00    +0.000 N 
ATOM      3  C   UNL     1       4.994   3.918  18.883  0.00  0.00    +0.000 C 
ATOM      4  O   UNL     1       5.588   3.051  19.530  0.00  0.00    +0.000 OA
ENDROOT
BRANCH   2   5
ATOM      5  C   UNL     1       5.081   6.223  17.808  0.00  0.00    +0.000 C 
BRANCH   5   6
ATOM      6  C   UNL     1       5.503   6.079  16.341  0.00  0.00    +0.000 C 
ATOM      7  O   UNL     1       5.068   6.881  15.513  0.00  0.00    +0.000 OA
ATOM      8  N   UNL     1       6.255   4.962  16.022  0.00  0.00    +0.000 N 
ATOM      9  H   UNL     1       6.211   4.188  16.676  0.00  0.00    +0.000 HD
BRANCH   8  10
ATOM     10  C   UNL     1       6.615   4.677  14.685  0.00  0.00    +0.000 A 
ATOM     11  C   UNL     1       7.643   5.381  14.042  0.00  0.00    +0.000 A 
ATOM     12  C   UNL     1       7.934   5.138  12.698  0.00  0.00    +0.000 A 
ATOM     13  C   UNL     1       7.178   4.209  11.997  0.00  0.00    +0.000 A 
ATOM     14  F   UNL     1       7.420   4.010  10.694  0.00  0.00    +0.000 F 
ATOM     15  C   UNL     1       6.169   3.487  12.626  0.00  0.00    +0.000 A 
ATOM     16  C   UNL     1       5.906   3.697  13.984  0.00  0.00    +0.000 A 
ENDBRANCH   8  10
ENDBRANCH   5   6
ENDBRANCH   2   5
BRANCH   3  17
ATOM     17  C   UNL     1       3.652   3.612  18.198  0.00  0.00    +0.000 C 
BRANCH  17  18
ATOM     18  O   UNL     1       2.606   3.162  19.066  0.00  0.00    +0.000 OA
BRANCH  18  19
ATOM     19  C   UNL     1       1.425   3.833  18.958  0.00  0.00    +0.000 C 
ATOM     20  O   UNL     1       0.535   3.567  18.160  0.00  0.00    +0.000 OA
BRANCH  19  21
ATOM     21  C   UNL     1       1.273   4.826  20.106  0.00  0.00    +0.000 C 
BRANCH  21  22
ATOM     22  O   UNL     1       2.293   5.800  20.244  0.00  0.00    +0.000 OA
BRANCH  22  23
ATOM     23  C   UNL     1       1.945   7.081  19.878  0.00  0.00    +0.000 A 
ATOM     24  C   UNL     1       2.138   7.648  18.616  0.00  0.00    +0.000 A 
ATOM     25  C   UNL     1       1.732   8.965  18.358  0.00  0.00    +0.000 A 
ATOM     26  C   UNL     1       1.130   9.732  19.359  0.00  0.00    +0.000 A 
ATOM     27  C   UNL     1       0.938   9.165  20.628  0.00  0.00    +0.000 A 
ATOM     28  C   UNL     1       1.348   7.842  20.882  0.00  0.00    +0.000 A 
BRANCH  26  29
ATOM     29  C   UNL     1       0.711  11.082  19.092  0.00  0.00    +0.000 C 
ATOM     30  N   UNL     1       0.381  12.177  18.860  0.00  0.00    +0.000 NA
ENDBRANCH  26  29
ENDBRANCH  22  23
ENDBRANCH  21  22
ENDBRANCH  19  21
ENDBRANCH  18  19
ENDBRANCH  17  18
ENDBRANCH   3  17
TORSDOF 10
ENDMDL
