MODEL 1
REMARK VINA RESULT:      -6.9      0.000      0.000
REMARK  Name = 
REMARK  8 active torsions:
REMARK  status: ('A' for Active; 'I' for Inactive)
REMARK    1  A    between atoms: C_1  and  C_2
REMARK    2  A    between atoms: C_2  and  C_3
REMARK    3  A    between atoms: C_3  and  C_4
REMARK    4  A    between atoms: C_4  and  C_5
REMARK    5  A    between atoms: C_9  and  C_10
REMARK    6  A    between atoms: C_10  and  C_11
REMARK    7  A    between atoms: C_10  and  C_12
REMARK    8  A    between atoms: C_12  and  O_14
REMARK                            x       y       z     vdW  Elec       q    Type
REMARK                         _______ _______ _______ _____ _____    ______ ____
ROOT
ATOM      1  C   UNL     1       2.772   4.014  18.004  0.00  0.00    +0.000 A 
ATOM      2  C   UNL     1       2.655   5.383  18.273  0.00  0.00    +0.000 A 
ATOM      3  C   UNL     1       3.573   6.286  17.741  0.00  0.00    +0.000 A 
ATOM      4  C   UNL     1       4.612   5.833  16.928  0.00  0.00    +0.000 A 
ATOM      5  C   UNL     1       4.744   4.469  16.630  0.00  0.00    +0.000 A 
ATOM      6  C   UNL     1       3.817   3.568  17.180  0.00  0.00    +0.000 A 
ENDROOT
BRANCH   5   7
ATOM      7  C   UNL     1       5.909   3.996  15.775  0.00  0.00    +0.000 C 
ATOM      8  C   UNL     1       5.588   4.172  14.289  0.00  0.00    +0.000 C 
BRANCH   7   9
ATOM      9  C   UNL     1       7.243   4.652  16.126  0.00  0.00    +0.000 C 
ATOM     10  O   UNL     1       7.932   4.369  17.094  0.00  0.00    +0.000 OA
BRANCH   9  11
ATOM     11  O   UNL     1       7.600   5.638  15.264  0.00  0.00    +0.000 OA
ATOM     12  H   UNL     1       7.231   6.511  15.503  0.00  0.00    +0.000 HD
ENDBRANCH   9  11
ENDBRANCH   7   9
ENDBRANCH   5   7
BRANCH   1  13
ATOM     13  C   UNL     1       1.801   3.032  18.617  0.00  0.00    +0.000 C 
BRANCH  13  14
ATOM     14  C   UNL     1       0.947   3.627  19.744  0.00  0.00    +0.000 C 
BRANCH  14  16
ATOM     15  C   UNL     1       2.680   2.726  21.337  0.00  0.00    +0.000 C 
ATOM     16  C   UNL     1       1.196   2.958  21.099  0.00  0.00    +0.000 C 
ENDBRANCH  14  16
ENDBRANCH  13  14
ENDBRANCH   1  13
TORSDOF 6
ENDMDL
MODEL 2
REMARK VINA RESULT:      -6.5      1.694      2.042
REMARK  Name = 
REMARK  8 active torsions:
REMARK  status: ('A' for Active; 'I' for Inactive)
REMARK    1  A    between atoms: C_1  and  C_2
REMARK    2  A    between atoms: C_2  and  C_3
REMARK    3  A    between atoms: C_3  and  C_4
REMARK    4  A    between atoms: C_4  and  C_5
REMARK    5  A    between atoms: C_9  and  C_10
REMARK    6  A    between atoms: C_10  and  C_11
REMARK    7  A    between atoms: C_10  and  C_12
REMARK    8  A    between atoms: C_12  and  O_14
REMARK                            x       y       z     vdW  Elec       q    Type
REMARK                         _______ _______ _______ _____ _____    ______ ____
ROOT
ATOM      1  C   UNL     1       3.394   4.567  18.372  0.00  0.00    +0.000 A 
ATOM      2  C   UNL     1       2.610   5.719  18.245  0.00  0.00    +0.000 A 
ATOM      3  C   UNL     1       3.186   6.924  17.846  0.00  0.00    +0.000 A 
ATOM      4  C   UNL     1       4.550   6.988  17.562  0.00  0.00    +0.000 A 
ATOM      5  C   UNL     1       5.357   5.844  17.666  0.00  0.00    +0.000 A 
ATOM      6  C   UNL     1       4.765   4.639  18.078  0.00  0.00    +0.000 A 
ENDROOT
BRANCH   5   7
ATOM      7  C   UNL     1       6.849   5.950  17.391  0.00  0.00    +0.000 C 
ATOM      8  C   UNL     1       7.300   7.412  17.443  0.00  0.00    +0.000 C 
BRANCH   7   9
ATOM      9  C   UNL     1       7.712   5.080  18.303  0.00  0.00    +0.000 C 
ATOM     10  O   UNL     1       7.936   5.307  19.483  0.00  0.00    +0.000 OA
BRANCH   9  11
ATOM     11  O   UNL     1       8.258   4.013  17.669  0.00  0.00    +0.000 OA
ATOM     12  H   UNL     1       8.618   4.232  16.786  0.00  0.00    +0.000 HD
ENDBRANCH   9  11
ENDBRANCH   7   9
ENDBRANCH   5   7
BRANCH   1  13
ATOM     13  C   UNL     1       2.775   3.273  18.845  0.00  0.00    +0.000 C 
BRANCH  13  14
ATOM     14  C   UNL     1       1.306   3.407  19.267  0.00  0.00    +0.000 C 
BRANCH  14  16
ATOM     15  C   UNL     1       2.371   2.810  21.471  0.00  0.00    +0.000 C 
ATOM     16  C   UNL     1       1.105   3.289  20.780  0.00  0.00    +0.000 C 
ENDBRANCH  14  16
ENDBRANCH  13  14
ENDBRANCH   1  13
TORSDOF 6
ENDMDL
MODEL 3
REMARK VINA RESULT:      -6.5      0.762      1.166
REMARK  Name = 
REMARK  8 active torsions:
REMARK  status: ('A' for Active; 'I' for Inactive)
REMARK    1  A    between atoms: C_1  and  C_2
REMARK    2  A    between atoms: C_2  and  C_3
REMARK    3  A    between atoms: C_3  and  C_4
REMARK    4  A    between atoms: C_4  and  C_5
REMARK    5  A    between atoms: C_9  and  C_10
REMARK    6  A    between atoms: C_10  and  C_11
REMARK    7  A    between atoms: C_10  and  C_12
REMARK    8  A    between atoms: C_12  and  O_14
REMARK                            x       y       z     vdW  Elec       q    Type
REMARK                         _______ _______ _______ _____ _____    ______ ____
ROOT
ATOM      1  C   UNL     1       2.499   4.247  18.019  0.00  0.00    +0.000 A 
ATOM      2  C   UNL     1       2.691   5.392  18.800  0.00  0.00    +0.000 A 
ATOM      3  C   UNL     1       3.877   6.118  18.707  0.00  0.00    +0.000 A 
ATOM      4  C   UNL     1       4.880   5.713  17.825  0.00  0.00    +0.000 A 
ATOM      5  C   UNL     1       4.707   4.579  17.018  0.00  0.00    +0.000 A 
ATOM      6  C   UNL     1       3.510   3.851  17.129  0.00  0.00    +0.000 A 
ENDROOT
BRANCH   5   7
ATOM      7  C   UNL     1       5.832   4.135  16.095  0.00  0.00    +0.000 C 
ATOM      8  C   UNL     1       5.434   4.340  14.632  0.00  0.00    +0.000 C 
BRANCH   7   9
ATOM      9  C   UNL     1       7.176   4.796  16.393  0.00  0.00    +0.000 C 
ATOM     10  O   UNL     1       7.547   5.868  15.939  0.00  0.00    +0.000 OA
BRANCH   9  11
ATOM     11  O   UNL     1       7.970   4.056  17.207  0.00  0.00    +0.000 OA
ATOM     12  H   UNL     1       8.922   4.252  17.098  0.00  0.00    +0.000 HD
ENDBRANCH   9  11
ENDBRANCH   7   9
ENDBRANCH   5   7
BRANCH   1  13
ATOM     13  C   UNL     1       1.230   3.438  18.152  0.00  0.00    +0.000 C 
BRANCH  13  14
ATOM     14  C   UNL     1       1.383   2.187  19.028  0.00  0.00    +0.000 C 
BRANCH  14  16
ATOM     15  C   UNL     1       1.589   2.630  21.500  0.00  0.00    +0.000 C 
ATOM     16  C   UNL     1       2.344   2.393  20.202  0.00  0.00    +0.000 C 
ENDBRANCH  14  16
ENDBRANCH  13  14
ENDBRANCH   1  13
TORSDOF 6
ENDMDL
MODEL 4
REMARK VINA RESULT:      -6.5      1.156      1.618
REMARK  Name = 
REMARK  8 active torsions:
REMARK  status: ('A' for Active; 'I' for Inactive)
REMARK    1  A    between atoms: C_1  and  C_2
REMARK    2  A    between atoms: C_2  and  C_3
REMARK    3  A    between atoms: C_3  and  C_4
REMARK    4  A    between atoms: C_4  and  C_5
REMARK    5  A    between atoms: C_9  and  C_10
REMARK    6  A    between atoms: C_10  and  C_11
REMARK    7  A    between atoms: C_10  and  C_12
REMARK    8  A    between atoms: C_12  and  O_14
REMARK                            x       y       z     vdW  Elec       q    Type
REMARK                         _______ _______ _______ _____ _____    ______ ____
ROOT
ATOM      1  C   UNL     1       2.942   5.683  19.281  0.00  0.00    +0.000 A 
ATOM      2  C   UNL     1       2.678   6.968  18.795  0.00  0.00    +0.000 A 
ATOM      3  C   UNL     1       3.353   7.451  17.676  0.00  0.00    +0.000 A 
ATOM      4  C   UNL     1       4.291   6.650  17.024  0.00  0.00    +0.000 A 
ATOM      5  C   UNL     1       4.563   5.351  17.480  0.00  0.00    +0.000 A 
ATOM      6  C   UNL     1       3.883   4.881  18.615  0.00  0.00    +0.000 A 
ENDROOT
BRANCH   5   7
ATOM      7  C   UNL     1       5.620   4.514  16.776  0.00  0.00    +0.000 C 
ATOM      8  C   UNL     1       5.305   4.401  15.283  0.00  0.00    +0.000 C 
BRANCH   7   9
ATOM      9  C   UNL     1       7.049   5.007  16.996  0.00  0.00    +0.000 C 
ATOM     10  O   UNL     1       7.581   5.918  16.379  0.00  0.00    +0.000 OA
BRANCH   9  11
ATOM     11  O   UNL     1       7.720   4.305  17.944  0.00  0.00    +0.000 OA
ATOM     12  H   UNL     1       7.232   3.517  18.257  0.00  0.00    +0.000 HD
ENDBRANCH   9  11
ENDBRANCH   7   9
ENDBRANCH   5   7
BRANCH   1  13
ATOM     13  C   UNL     1       2.240   5.178  20.520  0.00  0.00    +0.000 C 
BRANCH  13  14
ATOM     14  C   UNL     1       1.061   4.242  20.226  0.00  0.00    +0.000 C 
BRANCH  14  16
ATOM     15  C   UNL     1       2.538   2.695  21.558  0.00  0.00    +0.000 C 
ATOM     16  C   UNL     1       1.148   2.914  20.983  0.00  0.00    +0.000 C 
ENDBRANCH  14  16
ENDBRANCH  13  14
ENDBRANCH   1  13
TORSDOF 6
ENDMDL
MODEL 5
REMARK VINA RESULT:      -6.4      1.125      1.768
REMARK  Name = 
REMARK  8 active torsions:
REMARK  status: ('A' for Active; 'I' for Inactive)
REMARK    1  A    between atoms: C_1  and  C_2
REMARK    2  A    between atoms: C_2  and  C_3
REMARK    3  A    between atoms: C_3  and  C_4
REMARK    4  A    between atoms: C_4  and  C_5
REMARK    5  A    between atoms: C_9  and  C_10
REMARK    6  A    between atoms: C_10  and  C_11
REMARK    7  A    between atoms: C_10  and  C_12
REMARK    8  A    between atoms: C_12  and  O_14
REMARK                            x       y       z     vdW  Elec       q    Type
REMARK                         _______ _______ _______ _____ _____    ______ ____
ROOT
ATOM      1  C   UNL     1       3.279   4.575  18.314  0.00  0.00    +0.000 A 
ATOM      2  C   UNL     1       2.506   5.736  18.425  0.00  0.00    +0.000 A 
ATOM      3  C   UNL     1       3.000   6.958  17.974  0.00  0.00    +0.000 A 
ATOM      4  C   UNL     1       4.268   7.031  17.397  0.00  0.00    +0.000 A 
ATOM      5  C   UNL     1       5.058   5.880  17.258  0.00  0.00    +0.000 A 
ATOM      6  C   UNL     1       4.551   4.656  17.727  0.00  0.00    +0.000 A 
ENDROOT
BRANCH   5   7
ATOM      7  C   UNL     1       6.454   5.994  16.664  0.00  0.00    +0.000 C 
ATOM      8  C   UNL     1       7.397   6.690  17.647  0.00  0.00    +0.000 C 
BRANCH   7   9
ATOM      9  C   UNL     1       7.039   4.663  16.196  0.00  0.00    +0.000 C 
ATOM     10  O   UNL     1       6.725   4.080  15.169  0.00  0.00    +0.000 OA
BRANCH   9  11
ATOM     11  O   UNL     1       7.946   4.141  17.059  0.00  0.00    +0.000 OA
ATOM     12  H   UNL     1       7.769   4.376  17.992  0.00  0.00    +0.000 HD
ENDBRANCH   9  11
ENDBRANCH   7   9
ENDBRANCH   5   7
BRANCH   1  13
ATOM     13  C   UNL     1       2.758   3.259  18.843  0.00  0.00    +0.000 C 
BRANCH  13  14
ATOM     14  C   UNL     1       1.265   3.281  19.196  0.00  0.00    +0.000 C 
BRANCH  14  16
ATOM     15  C   UNL     1       2.204   2.745  21.472  0.00  0.00    +0.000 C 
ATOM     16  C   UNL     1       1.007   3.284  20.705  0.00  0.00    +0.000 C 
ENDBRANCH  14  16
ENDBRANCH  13  14
ENDBRANCH   1  13
TORSDOF 6
ENDMDL
MODEL 6
REMARK VINA RESULT:      -6.4      1.173      1.835
REMARK  Name = 
REMARK  8 active torsions:
REMARK  status: ('A' for Active; 'I' for Inactive)
REMARK    1  A    between atoms: C_1  and  C_2
REMARK    2  A    between atoms: C_2  and  C_3
REMARK    3  A    between atoms: C_3  and  C_4
REMARK    4  A    between atoms: C_4  and  C_5
REMARK    5  A    between atoms: C_9  and  C_10
REMARK    6  A    between atoms: C_10  and  C_11
REMARK    7  A    between atoms: C_10  and  C_12
REMARK    8  A    between atoms: C_12  and  O_14
REMARK                            x       y       z     vdW  Elec       q    Type
REMARK                         _______ _______ _______ _____ _____    ______ ____
ROOT
ATOM      1  C   UNL     1       2.858   5.822  19.023  0.00  0.00    +0.000 A 
ATOM      2  C   UNL     1       2.817   7.139  18.553  0.00  0.00    +0.000 A 
ATOM      3  C   UNL     1       3.619   7.531  17.482  0.00  0.00    +0.000 A 
ATOM      4  C   UNL     1       4.462   6.608  16.864  0.00  0.00    +0.000 A 
ATOM      5  C   UNL     1       4.511   5.277  17.304  0.00  0.00    +0.000 A 
ATOM      6  C   UNL     1       3.705   4.898  18.390  0.00  0.00    +0.000 A 
ENDROOT
BRANCH   5   7
ATOM      7  C   UNL     1       5.469   4.300  16.639  0.00  0.00    +0.000 C 
ATOM      8  C   UNL     1       5.420   4.456  15.117  0.00  0.00    +0.000 C 
BRANCH   7   9
ATOM      9  C   UNL     1       6.905   4.395  17.151  0.00  0.00    +0.000 C 
ATOM     10  O   UNL     1       7.893   4.545  16.447  0.00  0.00    +0.000 OA
BRANCH   9  11
ATOM     11  O   UNL     1       7.006   4.261  18.497  0.00  0.00    +0.000 OA
ATOM     12  H   UNL     1       7.665   4.863  18.896  0.00  0.00    +0.000 HD
ENDBRANCH   9  11
ENDBRANCH   7   9
ENDBRANCH   5   7
BRANCH   1  13
ATOM     13  C   UNL     1       2.020   5.411  20.211  0.00  0.00    +0.000 C 
BRANCH  13  14
ATOM     14  C   UNL     1       2.167   3.932  20.590  0.00  0.00    +0.000 C 
BRANCH  14  16
ATOM     15  C   UNL     1       0.969   2.477  18.917  0.00  0.00    +0.000 C 
ATOM     16  C   UNL     1       0.908   3.111  20.297  0.00  0.00    +0.000 C 
ENDBRANCH  14  16
ENDBRANCH  13  14
ENDBRANCH   1  13
TORSDOF 6
ENDMDL
MODEL 7
REMARK VINA RESULT:      -6.4      1.207      2.017
REMARK  Name = 
REMARK  8 active torsions:
REMARK  status: ('A' for Active; 'I' for Inactive)
REMARK    1  A    between atoms: C_1  and  C_2
REMARK    2  A    between atoms: C_2  and  C_3
REMARK    3  A    between atoms: C_3  and  C_4
REMARK    4  A    between atoms: C_4  and  C_5
REMARK    5  A    between atoms: C_9  and  C_10
REMARK    6  A    between atoms: C_10  and  C_11
REMARK    7  A    between atoms: C_10  and  C_12
REMARK    8  A    between atoms: C_12  and  O_14
REMARK                            x       y       z     vdW  Elec       q    Type
REMARK                         _______ _______ _______ _____ _____    ______ ____
ROOT
ATOM      1  C   UNL     1       2.925   4.077  17.690  0.00  0.00    +0.000 A 
ATOM      2  C   UNL     1       2.034   5.133  17.915  0.00  0.00    +0.000 A 
ATOM      3  C   UNL     1       2.507   6.437  18.048  0.00  0.00    +0.000 A 
ATOM      4  C   UNL     1       3.873   6.702  17.948  0.00  0.00    +0.000 A 
ATOM      5  C   UNL     1       4.786   5.664  17.706  0.00  0.00    +0.000 A 
ATOM      6  C   UNL     1       4.297   4.353  17.584  0.00  0.00    +0.000 A 
ENDROOT
BRANCH   5   7
ATOM      7  C   UNL     1       6.274   5.973  17.642  0.00  0.00    +0.000 C 
ATOM      8  C   UNL     1       6.958   5.580  18.953  0.00  0.00    +0.000 C 
BRANCH   7   9
ATOM      9  C   UNL     1       6.987   5.346  16.445  0.00  0.00    +0.000 C 
ATOM     10  O   UNL     1       6.758   5.610  15.274  0.00  0.00    +0.000 OA
BRANCH   9  11
ATOM     11  O   UNL     1       7.906   4.412  16.796  0.00  0.00    +0.000 OA
ATOM     12  H   UNL     1       8.638   4.331  16.152  0.00  0.00    +0.000 HD
ENDBRANCH   9  11
ENDBRANCH   7   9
ENDBRANCH   5   7
BRANCH   1  13
ATOM     13  C   UNL     1       2.415   2.658  17.590  0.00  0.00    +0.000 C 
BRANCH  13  14
ATOM     14  C   UNL     1       1.471   2.258  18.731  0.00  0.00    +0.000 C 
BRANCH  14  16
ATOM     15  C   UNL     1       1.296   3.238  21.045  0.00  0.00    +0.000 C 
ATOM     16  C   UNL     1       2.122   2.368  20.112  0.00  0.00    +0.000 C 
ENDBRANCH  14  16
ENDBRANCH  13  14
ENDBRANCH   1  13
TORSDOF 6
ENDMDL
MODEL 8
REMARK VINA RESULT:      -6.3      2.681      5.726
REMARK  Name = 
REMARK  8 active torsions:
REMARK  status: ('A' for Active; 'I' for Inactive)
REMARK    1  A    between atoms: C_1  and  C_2
REMARK    2  A    between atoms: C_2  and  C_3
REMARK    3  A    between atoms: C_3  and  C_4
REMARK    4  A    between atoms: C_4  and  C_5
REMARK    5  A    between atoms: C_9  and  C_10
REMARK    6  A    between atoms: C_10  and  C_11
REMARK    7  A    between atoms: C_10  and  C_12
REMARK    8  A    between atoms: C_12  and  O_14
REMARK                            x       y       z     vdW  Elec       q    Type
REMARK                         _______ _______ _______ _____ _____    ______ ____
ROOT
ATOM      1  C   UNL     1       6.495   4.880  16.262  0.00  0.00    +0.000 A 
ATOM      2  C   UNL     1       7.304   5.684  17.072  0.00  0.00    +0.000 A 
ATOM      3  C   UNL     1       6.994   5.866  18.419  0.00  0.00    +0.000 A 
ATOM      4  C   UNL     1       5.878   5.237  18.972  0.00  0.00    +0.000 A 
ATOM      5  C   UNL     1       5.059   4.412  18.186  0.00  0.00    +0.000 A 
ATOM      6  C   UNL     1       5.378   4.246  16.828  0.00  0.00    +0.000 A 
ENDROOT
BRANCH   5   7
ATOM      7  C   UNL     1       3.825   3.771  18.803  0.00  0.00    +0.000 C 
ATOM      8  C   UNL     1       2.589   4.060  17.947  0.00  0.00    +0.000 C 
BRANCH   7   9
ATOM      9  C   UNL     1       3.969   2.274  19.065  0.00  0.00    +0.000 C 
ATOM     10  O   UNL     1       3.247   1.406  18.596  0.00  0.00    +0.000 OA
BRANCH   9  11
ATOM     11  O   UNL     1       4.979   1.972  19.919  0.00  0.00    +0.000 OA
ATOM     12  H   UNL     1       4.928   2.462  20.765  0.00  0.00    +0.000 HD
ENDBRANCH   9  11
ENDBRANCH   7   9
ENDBRANCH   5   7
BRANCH   1  13
ATOM     13  C   UNL     1       6.809   4.720  14.793  0.00  0.00    +0.000 C 
BRANCH  13  14
ATOM     14  C   UNL     1       5.659   4.118  13.976  0.00  0.00    +0.000 C 
BRANCH  14  16
ATOM     15  C   UNL     1       4.947   3.157  11.758  0.00  0.00    +0.000 C 
ATOM     16  C   UNL     1       6.125   3.486  12.662  0.00  0.00    +0.000 C 
ENDBRANCH  14  16
ENDBRANCH  13  14
ENDBRANCH   1  13
TORSDOF 6
ENDMDL
MODEL 9
REMARK VINA RESULT:      -6.3      1.442      2.296
REMARK  Name = 
REMARK  8 active torsions:
REMARK  status: ('A' for Active; 'I' for Inactive)
REMARK    1  A    between atoms: C_1  and  C_2
REMARK    2  A    between atoms: C_2  and  C_3
REMARK    3  A    between atoms: C_3  and  C_4
REMARK    4  A    between atoms: C_4  and  C_5
REMARK    5  A    between atoms: C_9  and  C_10
REMARK    6  A    between atoms: C_10  and  C_11
REMARK    7  A    between atoms: C_10  and  C_12
REMARK    8  A    between atoms: C_12  and  O_14
REMARK                            x       y       z     vdW  Elec       q    Type
REMARK                         _______ _______ _______ _____ _____    ______ ____
ROOT
ATOM      1  C   UNL     1       3.003   5.223  18.767  0.00  0.00    +0.000 A 
ATOM      2  C   UNL     1       2.476   4.203  17.967  0.00  0.00    +0.000 A 
ATOM      3  C   UNL     1       3.241   3.642  16.946  0.00  0.00    +0.000 A 
ATOM      4  C   UNL     1       4.543   4.088  16.720  0.00  0.00    +0.000 A 
ATOM      5  C   UNL     1       5.102   5.098  17.518  0.00  0.00    +0.000 A 
ATOM      6  C   UNL     1       4.316   5.661  18.537  0.00  0.00    +0.000 A 
ENDROOT
BRANCH   5   7
ATOM      7  C   UNL     1       6.509   5.595  17.224  0.00  0.00    +0.000 C 
ATOM      8  C   UNL     1       6.563   7.122  17.301  0.00  0.00    +0.000 C 
BRANCH   7   9
ATOM      9  C   UNL     1       7.586   4.966  18.105  0.00  0.00    +0.000 C 
ATOM     10  O   UNL     1       7.830   5.293  19.257  0.00  0.00    +0.000 OA
BRANCH   9  11
ATOM     11  O   UNL     1       8.301   4.000  17.475  0.00  0.00    +0.000 OA
ATOM     12  H   UNL     1       7.815   3.156  17.389  0.00  0.00    +0.000 HD
ENDBRANCH   9  11
ENDBRANCH   7   9
ENDBRANCH   5   7
BRANCH   1  13
ATOM     13  C   UNL     1       2.157   5.858  19.846  0.00  0.00    +0.000 C 
BRANCH  13  14
ATOM     14  C   UNL     1       1.341   4.851  20.666  0.00  0.00    +0.000 C 
BRANCH  14  16
ATOM     15  C   UNL     1       1.653   2.501  21.518  0.00  0.00    +0.000 C 
ATOM     16  C   UNL     1       2.215   3.913  21.502  0.00  0.00    +0.000 C 
ENDBRANCH  14  16
ENDBRANCH  13  14
ENDBRANCH   1  13
TORSDOF 6
ENDMDL
