MODEL 1
REMARK VINA RESULT:      -6.9      0.000      0.000
REMARK  Name = 
REMARK  12 active torsions:
REMARK  status: ('A' for Active; 'I' for Inactive)
REMARK    1  A    between atoms: C_1  and  C_2
REMARK    2  A    between atoms: C_2  and  N_3
REMARK    3  A    between atoms: C_7  and  C_8
REMARK    4  A    between atoms: C_8  and  N_9
REMARK    5  A    between atoms: N_9  and  C_10
REMARK    6  A    between atoms: C_10  and  C_11
REMARK    7  A    between atoms: C_16  and  C_17
REMARK    8  A    between atoms: C_21  and  O_22
REMARK    9  A    between atoms: C_23  and  S_24
REMARK   10  A    between atoms: N_25  and  C_26
REMARK   11  A    between atoms: C_30  and  O_31
REMARK   12  A    between atoms: O_31  and  C_32
REMARK                            x       y       z     vdW  Elec       q    Type
REMARK                         _______ _______ _______ _____ _____    ______ ____
ROOT
ATOM      1  N   UNL     1      -1.618  13.364  21.091  0.00  0.00    +0.000 N 
ATOM      2  C   UNL     1      -0.895  14.465  20.606  0.00  0.00    +0.000 C 
ATOM      3  N   UNL     1      -0.716  14.690  19.329  0.00  0.00    +0.000 NA
ENDROOT
BRANCH   3   4
ATOM      4  C   UNL     1      -0.047  15.814  18.782  0.00  0.00    +0.000 A 
ATOM      5  C   UNL     1      -0.716  16.963  18.346  0.00  0.00    +0.000 A 
ATOM      6  C   UNL     1      -0.039  18.001  17.706  0.00  0.00    +0.000 A 
ATOM      7  C   UNL     1       1.344  17.957  17.597  0.00  0.00    +0.000 A 
ATOM      8  C   UNL     1       2.059  16.890  18.142  0.00  0.00    +0.000 A 
ATOM      9  C   UNL     1       1.363  15.817  18.722  0.00  0.00    +0.000 A 
BRANCH   8  10
ATOM     10  O   UNL     1       3.415  17.029  18.017  0.00  0.00    +0.000 OA
ATOM     11  C   UNL     1       4.188  15.846  17.916  0.00  0.00    +0.000 C 
ENDBRANCH   8  10
ENDBRANCH   3   4
BRANCH   2  12
ATOM     12  S   UNL     1      -0.230  15.525  21.872  0.00  0.00    +0.000 S 
ATOM     13  H   UNL     1       0.906  15.770  21.201  0.00  0.00    +0.000 HD
ENDBRANCH   2  12
BRANCH   1  14
ATOM     14  C   UNL     1      -2.362  13.401  22.371  0.00  0.00    +0.000 C 
BRANCH  14  19
ATOM     15  N   UNL     1      -4.873  12.572  22.479  0.00  0.00    +0.000 NA
ATOM     16  C   UNL     1      -5.642  12.883  23.706  0.00  0.00    +0.000 C 
ATOM     17  C   UNL     1      -5.673  14.396  23.781  0.00  0.00    +0.000 C 
ATOM     18  C   UNL     1      -4.253  14.742  23.378  0.00  0.00    +0.000 C 
ATOM     19  C   UNL     1      -3.888  13.701  22.298  0.00  0.00    +0.000 C 
BRANCH  15  21
ATOM     20  C   UNL     1      -7.195  12.043  21.523  0.00  0.00    +0.000 C 
ATOM     21  C   UNL     1      -5.766  12.532  21.290  0.00  0.00    +0.000 C 
ENDBRANCH  15  21
ENDBRANCH  14  19
ENDBRANCH   1  14
BRANCH   1  22
ATOM     22  C   UNL     1      -1.857  12.195  20.219  0.00  0.00    +0.000 C 
BRANCH  22  23
ATOM     23  C   UNL     1      -0.687  11.269  19.970  0.00  0.00    +0.000 A 
ATOM     24  C   UNL     1      -0.247  10.278  20.844  0.00  0.00    +0.000 A 
ATOM     25  C   UNL     1       0.685   9.315  20.415  0.00  0.00    +0.000 A 
ATOM     26  C   UNL     1       1.025   8.212  21.214  0.00  0.00    +0.000 A 
ATOM     27  C   UNL     1       1.798   7.172  20.695  0.00  0.00    +0.000 A 
ATOM     28  C   UNL     1       2.265   7.237  19.382  0.00  0.00    +0.000 A 
ATOM     29  C   UNL     1       2.965   6.066  18.755  0.00  0.00    +0.000 C 
ATOM     30  C   UNL     1       2.015   8.396  18.630  0.00  0.00    +0.000 A 
ATOM     31  C   UNL     1       1.221   9.433  19.115  0.00  0.00    +0.000 A 
ATOM     32  N   UNL     1       0.930  10.472  18.318  0.00  0.00    +0.000 NA
ATOM     33  C   UNL     1      -0.013  11.329  18.756  0.00  0.00    +0.000 A 
BRANCH  33  34
ATOM     34  O   UNL     1      -0.288  12.297  17.846  0.00  0.00    +0.000 OA
ATOM     35  H   UNL     1      -1.065  12.695  18.282  0.00  0.00    +0.000 HD
ENDBRANCH  33  34
ENDBRANCH  22  23
ENDBRANCH   1  22
TORSDOF 9
ENDMDL
MODEL 2
REMARK VINA RESULT:      -6.8      1.954      2.682
REMARK  Name = 
REMARK  12 active torsions:
REMARK  status: ('A' for Active; 'I' for Inactive)
REMARK    1  A    between atoms: C_1  and  C_2
REMARK    2  A    between atoms: C_2  and  N_3
REMARK    3  A    between atoms: C_7  and  C_8
REMARK    4  A    between atoms: C_8  and  N_9
REMARK    5  A    between atoms: N_9  and  C_10
REMARK    6  A    between atoms: C_10  and  C_11
REMARK    7  A    between atoms: C_16  and  C_17
REMARK    8  A    between atoms: C_21  and  O_22
REMARK    9  A    between atoms: C_23  and  S_24
REMARK   10  A    between atoms: N_25  and  C_26
REMARK   11  A    between atoms: C_30  and  O_31
REMARK   12  A    between atoms: O_31  and  C_32
REMARK                            x       y       z     vdW  Elec       q    Type
REMARK                         _______ _______ _______ _____ _____    ______ ____
ROOT
ATOM      1  N   UNL     1       0.444  11.821  20.639  0.00  0.00    +0.000 N 
ATOM      2  C   UNL     1       1.282  12.879  20.253  0.00  0.00    +0.000 C 
ATOM      3  N   UNL     1       1.467  13.216  19.002  0.00  0.00    +0.000 NA
ENDROOT
BRANCH   3   4
ATOM      4  C   UNL     1       2.253  14.309  18.557  0.00  0.00    +0.000 A 
ATOM      5  C   UNL     1       1.749  15.608  18.425  0.00  0.00    +0.000 A 
ATOM      6  C   UNL     1       2.516  16.635  17.874  0.00  0.00    +0.000 A 
ATOM      7  C   UNL     1       3.847  16.404  17.555  0.00  0.00    +0.000 A 
ATOM      8  C   UNL     1       4.424  15.158  17.802  0.00  0.00    +0.000 A 
ATOM      9  C   UNL     1       3.624  14.112  18.291  0.00  0.00    +0.000 A 
BRANCH   8  10
ATOM     10  O   UNL     1       5.759  15.112  17.502  0.00  0.00    +0.000 OA
ATOM     11  C   UNL     1       6.671  15.508  18.511  0.00  0.00    +0.000 C 
ENDBRANCH   8  10
ENDBRANCH   3   4
BRANCH   2  12
ATOM     12  S   UNL     1       2.082  13.716  21.604  0.00  0.00    +0.000 S 
ATOM     13  H   UNL     1       3.093  12.837  21.674  0.00  0.00    +0.000 HD
ENDBRANCH   2  12
BRANCH   1  14
ATOM     14  C   UNL     1      -0.272  11.805  21.935  0.00  0.00    +0.000 C 
BRANCH  14  19
ATOM     15  N   UNL     1      -2.864  12.235  22.264  0.00  0.00    +0.000 NA
ATOM     16  C   UNL     1      -3.320  12.654  23.609  0.00  0.00    +0.000 C 
ATOM     17  C   UNL     1      -2.617  13.969  23.874  0.00  0.00    +0.000 C 
ATOM     18  C   UNL     1      -1.230  13.678  23.336  0.00  0.00    +0.000 C 
ATOM     19  C   UNL     1      -1.469  12.788  22.097  0.00  0.00    +0.000 C 
BRANCH  15  21
ATOM     20  C   UNL     1      -3.383  12.455  19.761  0.00  0.00    +0.000 C 
ATOM     21  C   UNL     1      -3.729  12.819  21.204  0.00  0.00    +0.000 C 
ENDBRANCH  15  21
ENDBRANCH  14  19
ENDBRANCH   1  14
BRANCH   1  22
ATOM     22  C   UNL     1       0.061  10.785  19.657  0.00  0.00    +0.000 C 
BRANCH  22  23
ATOM     23  C   UNL     1       1.014   9.626  19.468  0.00  0.00    +0.000 A 
ATOM     24  C   UNL     1       1.118   8.525  20.315  0.00  0.00    +0.000 A 
ATOM     25  C   UNL     1       1.854   7.392  19.921  0.00  0.00    +0.000 A 
ATOM     26  C   UNL     1       1.844   6.209  20.675  0.00  0.00    +0.000 A 
ATOM     27  C   UNL     1       2.419   5.041  20.171  0.00  0.00    +0.000 A 
ATOM     28  C   UNL     1       3.036   5.051  18.920  0.00  0.00    +0.000 A 
ATOM     29  C   UNL     1       3.523   3.778  18.292  0.00  0.00    +0.000 C 
ATOM     30  C   UNL     1       3.140   6.266  18.225  0.00  0.00    +0.000 A 
ATOM     31  C   UNL     1       2.549   7.438  18.694  0.00  0.00    +0.000 A 
ATOM     32  N   UNL     1       2.590   8.547  17.942  0.00  0.00    +0.000 NA
ATOM     33  C   UNL     1       1.820   9.579  18.337  0.00  0.00    +0.000 A 
BRANCH  33  34
ATOM     34  O   UNL     1       1.874  10.621  17.470  0.00  0.00    +0.000 OA
ATOM     35  H   UNL     1       2.016  10.123  16.644  0.00  0.00    +0.000 HD
ENDBRANCH  33  34
ENDBRANCH  22  23
ENDBRANCH   1  22
TORSDOF 9
ENDMDL
MODEL 3
REMARK VINA RESULT:      -6.7      2.171      2.957
REMARK  Name = 
REMARK  12 active torsions:
REMARK  status: ('A' for Active; 'I' for Inactive)
REMARK    1  A    between atoms: C_1  and  C_2
REMARK    2  A    between atoms: C_2  and  N_3
REMARK    3  A    between atoms: C_7  and  C_8
REMARK    4  A    between atoms: C_8  and  N_9
REMARK    5  A    between atoms: N_9  and  C_10
REMARK    6  A    between atoms: C_10  and  C_11
REMARK    7  A    between atoms: C_16  and  C_17
REMARK    8  A    between atoms: C_21  and  O_22
REMARK    9  A    between atoms: C_23  and  S_24
REMARK   10  A    between atoms: N_25  and  C_26
REMARK   11  A    between atoms: C_30  and  O_31
REMARK   12  A    between atoms: O_31  and  C_32
REMARK                            x       y       z     vdW  Elec       q    Type
REMARK                         _______ _______ _______ _____ _____    ______ ____
ROOT
ATOM      1  N   UNL     1      -0.551  13.335  20.525  0.00  0.00    +0.000 N 
ATOM      2  C   UNL     1       0.380  14.235  19.984  0.00  0.00    +0.000 C 
ATOM      3  N   UNL     1       1.672  14.040  20.045  0.00  0.00    +0.000 NA
ENDROOT
BRANCH   3   4
ATOM      4  C   UNL     1       2.655  14.883  19.466  0.00  0.00    +0.000 A 
ATOM      5  C   UNL     1       3.228  14.640  18.213  0.00  0.00    +0.000 A 
ATOM      6  C   UNL     1       4.275  15.422  17.725  0.00  0.00    +0.000 A 
ATOM      7  C   UNL     1       4.687  16.541  18.438  0.00  0.00    +0.000 A 
ATOM      8  C   UNL     1       4.046  16.894  19.625  0.00  0.00    +0.000 A 
ATOM      9  C   UNL     1       3.041  16.060  20.142  0.00  0.00    +0.000 A 
BRANCH   8  10
ATOM     10  O   UNL     1       4.518  18.058  20.168  0.00  0.00    +0.000 OA
ATOM     11  C   UNL     1       5.872  18.086  20.584  0.00  0.00    +0.000 C 
ENDBRANCH   8  10
ENDBRANCH   3   4
BRANCH   2  12
ATOM     12  S   UNL     1      -0.342  15.671  19.219  0.00  0.00    +0.000 S 
ATOM     13  H   UNL     1       0.677  15.844  18.364  0.00  0.00    +0.000 HD
ENDBRANCH   2  12
BRANCH   1  14
ATOM     14  C   UNL     1      -1.911  13.164  19.965  0.00  0.00    +0.000 C 
BRANCH  14  19
ATOM     15  N   UNL     1      -3.302  13.348  22.211  0.00  0.00    +0.000 NA
ATOM     16  C   UNL     1      -4.699  13.828  22.110  0.00  0.00    +0.000 C 
ATOM     17  C   UNL     1      -5.405  12.812  21.236  0.00  0.00    +0.000 C 
ATOM     18  C   UNL     1      -4.357  12.559  20.169  0.00  0.00    +0.000 C 
ATOM     19  C   UNL     1      -3.011  12.616  20.923  0.00  0.00    +0.000 C 
BRANCH  15  21
ATOM     20  C   UNL     1      -4.083  12.587  24.532  0.00  0.00    +0.000 C 
ATOM     21  C   UNL     1      -3.150  12.391  23.338  0.00  0.00    +0.000 C 
ENDBRANCH  15  21
ENDBRANCH  14  19
ENDBRANCH   1  14
BRANCH   1  22
ATOM     22  C   UNL     1      -0.123  12.348  21.538  0.00  0.00    +0.000 C 
BRANCH  22  23
ATOM     23  C   UNL     1       0.256  10.969  21.042  0.00  0.00    +0.000 A 
ATOM     24  C   UNL     1       0.525  10.640  19.716  0.00  0.00    +0.000 A 
ATOM     25  C   UNL     1       1.104   9.398  19.396  0.00  0.00    +0.000 A 
ATOM     26  C   UNL     1       1.536   9.100  18.095  0.00  0.00    +0.000 A 
ATOM     27  C   UNL     1       2.280   7.947  17.840  0.00  0.00    +0.000 A 
ATOM     28  C   UNL     1       2.577   7.064  18.879  0.00  0.00    +0.000 A 
ATOM     29  C   UNL     1       3.501   5.902  18.662  0.00  0.00    +0.000 C 
ATOM     30  C   UNL     1       2.043   7.313  20.154  0.00  0.00    +0.000 A 
ATOM     31  C   UNL     1       1.323   8.472  20.438  0.00  0.00    +0.000 A 
ATOM     32  N   UNL     1       0.923   8.710  21.696  0.00  0.00    +0.000 NA
ATOM     33  C   UNL     1       0.430   9.937  21.955  0.00  0.00    +0.000 A 
BRANCH  33  34
ATOM     34  O   UNL     1       0.128  10.101  23.268  0.00  0.00    +0.000 OA
ATOM     35  H   UNL     1      -0.324  10.964  23.211  0.00  0.00    +0.000 HD
ENDBRANCH  33  34
ENDBRANCH  22  23
ENDBRANCH   1  22
TORSDOF 9
ENDMDL
MODEL 4
REMARK VINA RESULT:      -6.7      2.443      3.249
REMARK  Name = 
REMARK  12 active torsions:
REMARK  status: ('A' for Active; 'I' for Inactive)
REMARK    1  A    between atoms: C_1  and  C_2
REMARK    2  A    between atoms: C_2  and  N_3
REMARK    3  A    between atoms: C_7  and  C_8
REMARK    4  A    between atoms: C_8  and  N_9
REMARK    5  A    between atoms: N_9  and  C_10
REMARK    6  A    between atoms: C_10  and  C_11
REMARK    7  A    between atoms: C_16  and  C_17
REMARK    8  A    between atoms: C_21  and  O_22
REMARK    9  A    between atoms: C_23  and  S_24
REMARK   10  A    between atoms: N_25  and  C_26
REMARK   11  A    between atoms: C_30  and  O_31
REMARK   12  A    between atoms: O_31  and  C_32
REMARK                            x       y       z     vdW  Elec       q    Type
REMARK                         _______ _______ _______ _____ _____    ______ ____
ROOT
ATOM      1  N   UNL     1      -0.455  13.397  21.381  0.00  0.00    +0.000 N 
ATOM      2  C   UNL     1       0.715  14.117  21.094  0.00  0.00    +0.000 C 
ATOM      3  N   UNL     1       1.911  13.593  21.188  0.00  0.00    +0.000 NA
ENDROOT
BRANCH   3   4
ATOM      4  C   UNL     1       3.121  14.253  20.855  0.00  0.00    +0.000 A 
ATOM      5  C   UNL     1       3.971  14.818  21.813  0.00  0.00    +0.000 A 
ATOM      6  C   UNL     1       5.093  15.560  21.445  0.00  0.00    +0.000 A 
ATOM      7  C   UNL     1       5.450  15.650  20.106  0.00  0.00    +0.000 A 
ATOM      8  C   UNL     1       4.703  14.984  19.133  0.00  0.00    +0.000 A 
ATOM      9  C   UNL     1       3.536  14.298  19.508  0.00  0.00    +0.000 A 
BRANCH   8  10
ATOM     10  O   UNL     1       5.224  15.110  17.873  0.00  0.00    +0.000 OA
ATOM     11  C   UNL     1       6.562  14.689  17.673  0.00  0.00    +0.000 C 
ENDBRANCH   8  10
ENDBRANCH   3   4
BRANCH   2  12
ATOM     12  S   UNL     1       0.440  15.806  20.605  0.00  0.00    +0.000 S 
ATOM     13  H   UNL     1      -0.747  15.546  20.035  0.00  0.00    +0.000 HD
ENDBRANCH   2  12
BRANCH   1  14
ATOM     14  C   UNL     1      -1.749  13.684  20.720  0.00  0.00    +0.000 C 
BRANCH  14  19
ATOM     15  N   UNL     1      -3.668  13.551  22.539  0.00  0.00    +0.000 NA
ATOM     16  C   UNL     1      -5.024  13.985  22.133  0.00  0.00    +0.000 C 
ATOM     17  C   UNL     1      -5.418  13.052  21.006  0.00  0.00    +0.000 C 
ATOM     18  C   UNL     1      -4.121  12.966  20.225  0.00  0.00    +0.000 C 
ATOM     19  C   UNL     1      -3.014  12.986  21.302  0.00  0.00    +0.000 C 
BRANCH  15  21
ATOM     20  C   UNL     1      -4.879  12.573  24.578  0.00  0.00    +0.000 C 
ATOM     21  C   UNL     1      -3.740  12.476  23.564  0.00  0.00    +0.000 C 
ENDBRANCH  15  21
ENDBRANCH  14  19
ENDBRANCH   1  14
BRANCH   1  22
ATOM     22  C   UNL     1      -0.384  12.162  22.189  0.00  0.00    +0.000 C 
BRANCH  22  23
ATOM     23  C   UNL     1       0.057  10.899  21.483  0.00  0.00    +0.000 A 
ATOM     24  C   UNL     1       0.192  10.756  20.104  0.00  0.00    +0.000 A 
ATOM     25  C   UNL     1       0.840   9.628  19.567  0.00  0.00    +0.000 A 
ATOM     26  C   UNL     1       1.136   9.531  18.199  0.00  0.00    +0.000 A 
ATOM     27  C   UNL     1       1.947   8.501  17.720  0.00  0.00    +0.000 A 
ATOM     28  C   UNL     1       2.447   7.539  18.599  0.00  0.00    +0.000 A 
ATOM     29  C   UNL     1       3.441   6.515  18.136  0.00  0.00    +0.000 C 
ATOM     30  C   UNL     1       2.051   7.580  19.945  0.00  0.00    +0.000 A 
ATOM     31  C   UNL     1       1.267   8.615  20.453  0.00  0.00    +0.000 A 
ATOM     32  N   UNL     1       1.003   8.662  21.767  0.00  0.00    +0.000 NA
ATOM     33  C   UNL     1       0.435   9.791  22.232  0.00  0.00    +0.000 A 
BRANCH  33  34
ATOM     34  O   UNL     1       0.280   9.769  23.581  0.00  0.00    +0.000 OA
ATOM     35  H   UNL     1       0.645  10.649  23.788  0.00  0.00    +0.000 HD
ENDBRANCH  33  34
ENDBRANCH  22  23
ENDBRANCH   1  22
TORSDOF 9
ENDMDL
MODEL 5
REMARK VINA RESULT:      -6.7      2.785      6.254
REMARK  Name = 
REMARK  12 active torsions:
REMARK  status: ('A' for Active; 'I' for Inactive)
REMARK    1  A    between atoms: C_1  and  C_2
REMARK    2  A    between atoms: C_2  and  N_3
REMARK    3  A    between atoms: C_7  and  C_8
REMARK    4  A    between atoms: C_8  and  N_9
REMARK    5  A    between atoms: N_9  and  C_10
REMARK    6  A    between atoms: C_10  and  C_11
REMARK    7  A    between atoms: C_16  and  C_17
REMARK    8  A    between atoms: C_21  and  O_22
REMARK    9  A    between atoms: C_23  and  S_24
REMARK   10  A    between atoms: N_25  and  C_26
REMARK   11  A    between atoms: C_30  and  O_31
REMARK   12  A    between atoms: O_31  and  C_32
REMARK                            x       y       z     vdW  Elec       q    Type
REMARK                         _______ _______ _______ _____ _____    ______ ____
ROOT
ATOM      1  N   UNL     1      -1.538  13.223  22.561  0.00  0.00    +0.000 N 
ATOM      2  C   UNL     1      -2.808  13.464  22.013  0.00  0.00    +0.000 C 
ATOM      3  N   UNL     1      -3.846  12.711  22.273  0.00  0.00    +0.000 NA
ENDROOT
BRANCH   3   4
ATOM      4  C   UNL     1      -5.162  12.939  21.796  0.00  0.00    +0.000 A 
ATOM      5  C   UNL     1      -6.070  13.790  22.438  0.00  0.00    +0.000 A 
ATOM      6  C   UNL     1      -7.392  13.901  22.009  0.00  0.00    +0.000 A 
ATOM      7  C   UNL     1      -7.798  13.249  20.853  0.00  0.00    +0.000 A 
ATOM      8  C   UNL     1      -6.884  12.501  20.109  0.00  0.00    +0.000 A 
ATOM      9  C   UNL     1      -5.574  12.339  20.588  0.00  0.00    +0.000 A 
BRANCH   8  10
ATOM     10  O   UNL     1      -7.419  11.983  18.961  0.00  0.00    +0.000 OA
ATOM     11  C   UNL     1      -6.640  11.042  18.243  0.00  0.00    +0.000 C 
ENDBRANCH   8  10
ENDBRANCH   3   4
BRANCH   2  12
ATOM     12  S   UNL     1      -2.887  14.871  20.926  0.00  0.00    +0.000 S 
ATOM     13  H   UNL     1      -2.399  14.201  19.871  0.00  0.00    +0.000 HD
ENDBRANCH   2  12
BRANCH   1  14
ATOM     14  C   UNL     1      -0.566  14.308  22.824  0.00  0.00    +0.000 C 
BRANCH  14  19
ATOM     15  N   UNL     1       0.529  13.731  20.484  0.00  0.00    +0.000 NA
ATOM     16  C   UNL     1       0.301  14.681  19.371  0.00  0.00    +0.000 C 
ATOM     17  C   UNL     1       0.912  15.988  19.834  0.00  0.00    +0.000 C 
ATOM     18  C   UNL     1       0.471  16.024  21.284  0.00  0.00    +0.000 C 
ATOM     19  C   UNL     1       0.535  14.553  21.749  0.00  0.00    +0.000 C 
BRANCH  15  21
ATOM     20  C   UNL     1       2.360  12.832  18.929  0.00  0.00    +0.000 C 
ATOM     21  C   UNL     1       1.852  13.066  20.351  0.00  0.00    +0.000 C 
ENDBRANCH  15  21
ENDBRANCH  14  19
ENDBRANCH   1  14
BRANCH   1  22
ATOM     22  C   UNL     1      -1.213  11.893  23.117  0.00  0.00    +0.000 C 
BRANCH  22  23
ATOM     23  C   UNL     1      -0.630  10.871  22.165  0.00  0.00    +0.000 A 
ATOM     24  C   UNL     1      -0.795  10.876  20.782  0.00  0.00    +0.000 A 
ATOM     25  C   UNL     1      -0.015  10.032  19.971  0.00  0.00    +0.000 A 
ATOM     26  C   UNL     1      -0.039  10.127  18.571  0.00  0.00    +0.000 A 
ATOM     27  C   UNL     1       0.880   9.419  17.796  0.00  0.00    +0.000 A 
ATOM     28  C   UNL     1       1.815   8.584  18.409  0.00  0.00    +0.000 A 
ATOM     29  C   UNL     1       2.908   7.935  17.611  0.00  0.00    +0.000 C 
ATOM     30  C   UNL     1       1.756   8.408  19.801  0.00  0.00    +0.000 A 
ATOM     31  C   UNL     1       0.868   9.126  20.598  0.00  0.00    +0.000 A 
ATOM     32  N   UNL     1       0.922   8.996  21.932  0.00  0.00    +0.000 NA
ATOM     33  C   UNL     1       0.199   9.871  22.658  0.00  0.00    +0.000 A 
BRANCH  33  34
ATOM     34  O   UNL     1       0.382   9.704  23.993  0.00  0.00    +0.000 OA
ATOM     35  H   UNL     1       1.317   9.429  23.983  0.00  0.00    +0.000 HD
ENDBRANCH  33  34
ENDBRANCH  22  23
ENDBRANCH   1  22
TORSDOF 9
ENDMDL
MODEL 6
REMARK VINA RESULT:      -6.7      2.658      6.428
REMARK  Name = 
REMARK  12 active torsions:
REMARK  status: ('A' for Active; 'I' for Inactive)
REMARK    1  A    between atoms: C_1  and  C_2
REMARK    2  A    between atoms: C_2  and  N_3
REMARK    3  A    between atoms: C_7  and  C_8
REMARK    4  A    between atoms: C_8  and  N_9
REMARK    5  A    between atoms: N_9  and  C_10
REMARK    6  A    between atoms: C_10  and  C_11
REMARK    7  A    between atoms: C_16  and  C_17
REMARK    8  A    between atoms: C_21  and  O_22
REMARK    9  A    between atoms: C_23  and  S_24
REMARK   10  A    between atoms: N_25  and  C_26
REMARK   11  A    between atoms: C_30  and  O_31
REMARK   12  A    between atoms: O_31  and  C_32
REMARK                            x       y       z     vdW  Elec       q    Type
REMARK                         _______ _______ _______ _____ _____    ______ ____
ROOT
ATOM      1  N   UNL     1      -1.406  13.211  22.303  0.00  0.00    +0.000 N 
ATOM      2  C   UNL     1      -2.744  13.383  21.916  0.00  0.00    +0.000 C 
ATOM      3  N   UNL     1      -3.718  12.646  22.388  0.00  0.00    +0.000 NA
ENDROOT
BRANCH   3   4
ATOM      4  C   UNL     1      -5.092  12.812  22.080  0.00  0.00    +0.000 A 
ATOM      5  C   UNL     1      -5.990  13.477  22.923  0.00  0.00    +0.000 A 
ATOM      6  C   UNL     1      -7.355  13.520  22.645  0.00  0.00    +0.000 A 
ATOM      7  C   UNL     1      -7.831  12.995  21.451  0.00  0.00    +0.000 A 
ATOM      8  C   UNL     1      -6.947  12.446  20.521  0.00  0.00    +0.000 A 
ATOM      9  C   UNL     1      -5.583  12.345  20.842  0.00  0.00    +0.000 A 
BRANCH   8  10
ATOM     10  O   UNL     1      -7.560  12.041  19.367  0.00  0.00    +0.000 OA
ATOM     11  C   UNL     1      -6.948  10.996  18.633  0.00  0.00    +0.000 C 
ENDBRANCH   8  10
ENDBRANCH   3   4
BRANCH   2  12
ATOM     12  S   UNL     1      -3.007  14.675  20.722  0.00  0.00    +0.000 S 
ATOM     13  H   UNL     1      -2.738  13.886  19.670  0.00  0.00    +0.000 HD
ENDBRANCH   2  12
BRANCH   1  14
ATOM     14  C   UNL     1      -0.434  14.328  22.323  0.00  0.00    +0.000 C 
BRANCH  14  19
ATOM     15  N   UNL     1       0.652  15.861  20.458  0.00  0.00    +0.000 NA
ATOM     16  C   UNL     1       2.081  16.216  20.614  0.00  0.00    +0.000 C 
ATOM     17  C   UNL     1       2.823  14.896  20.588  0.00  0.00    +0.000 C 
ATOM     18  C   UNL     1       1.913  14.027  21.433  0.00  0.00    +0.000 C 
ATOM     19  C   UNL     1       0.485  14.495  21.077  0.00  0.00    +0.000 C 
BRANCH  15  21
ATOM     20  C   UNL     1      -0.629  16.875  18.480  0.00  0.00    +0.000 C 
ATOM     21  C   UNL     1       0.282  15.773  19.020  0.00  0.00    +0.000 C 
ENDBRANCH  15  21
ENDBRANCH  14  19
ENDBRANCH   1  14
BRANCH   1  22
ATOM     22  C   UNL     1      -0.974  11.946  22.933  0.00  0.00    +0.000 C 
BRANCH  22  23
ATOM     23  C   UNL     1      -0.440  10.866  22.017  0.00  0.00    +0.000 A 
ATOM     24  C   UNL     1      -0.387  10.946  20.628  0.00  0.00    +0.000 A 
ATOM     25  C   UNL     1       0.348  10.000  19.890  0.00  0.00    +0.000 A 
ATOM     26  C   UNL     1       0.557  10.143  18.510  0.00  0.00    +0.000 A 
ATOM     27  C   UNL     1       1.446   9.305  17.835  0.00  0.00    +0.000 A 
ATOM     28  C   UNL     1       2.114   8.294  18.528  0.00  0.00    +0.000 A 
ATOM     29  C   UNL     1       3.185   7.482  17.860  0.00  0.00    +0.000 C 
ATOM     30  C   UNL     1       1.812   8.086  19.883  0.00  0.00    +0.000 A 
ATOM     31  C   UNL     1       0.951   8.929  20.584  0.00  0.00    +0.000 A 
ATOM     32  N   UNL     1       0.776   8.748  21.902  0.00  0.00    +0.000 NA
ATOM     33  C   UNL     1       0.115   9.716  22.565  0.00  0.00    +0.000 A 
BRANCH  33  34
ATOM     34  O   UNL     1       0.058   9.476  23.900  0.00  0.00    +0.000 OA
ATOM     35  H   UNL     1       0.736  10.111  24.196  0.00  0.00    +0.000 HD
ENDBRANCH  33  34
ENDBRANCH  22  23
ENDBRANCH   1  22
TORSDOF 9
ENDMDL
MODEL 7
REMARK VINA RESULT:      -6.6      3.792      8.022
REMARK  Name = 
REMARK  12 active torsions:
REMARK  status: ('A' for Active; 'I' for Inactive)
REMARK    1  A    between atoms: C_1  and  C_2
REMARK    2  A    between atoms: C_2  and  N_3
REMARK    3  A    between atoms: C_7  and  C_8
REMARK    4  A    between atoms: C_8  and  N_9
REMARK    5  A    between atoms: N_9  and  C_10
REMARK    6  A    between atoms: C_10  and  C_11
REMARK    7  A    between atoms: C_16  and  C_17
REMARK    8  A    between atoms: C_21  and  O_22
REMARK    9  A    between atoms: C_23  and  S_24
REMARK   10  A    between atoms: N_25  and  C_26
REMARK   11  A    between atoms: C_30  and  O_31
REMARK   12  A    between atoms: O_31  and  C_32
REMARK                            x       y       z     vdW  Elec       q    Type
REMARK                         _______ _______ _______ _____ _____    ______ ____
ROOT
ATOM      1  N   UNL     1       0.801  10.740  19.569  0.00  0.00    +0.000 N 
ATOM      2  C   UNL     1       1.237   9.424  19.353  0.00  0.00    +0.000 C 
ATOM      3  N   UNL     1       1.611   8.632  20.326  0.00  0.00    +0.000 NA
ENDROOT
BRANCH   3   4
ATOM      4  C   UNL     1       2.003   7.278  20.173  0.00  0.00    +0.000 A 
ATOM      5  C   UNL     1       1.359   6.218  20.822  0.00  0.00    +0.000 A 
ATOM      6  C   UNL     1       1.843   4.912  20.743  0.00  0.00    +0.000 A 
ATOM      7  C   UNL     1       2.918   4.627  19.912  0.00  0.00    +0.000 A 
ATOM      8  C   UNL     1       3.500   5.634  19.143  0.00  0.00    +0.000 A 
ATOM      9  C   UNL     1       3.050   6.957  19.283  0.00  0.00    +0.000 A 
BRANCH   8  10
ATOM     10  O   UNL     1       4.497   5.180  18.323  0.00  0.00    +0.000 OA
ATOM     11  C   UNL     1       4.519   3.796  18.022  0.00  0.00    +0.000 C 
ENDBRANCH   8  10
ENDBRANCH   3   4
BRANCH   2  12
ATOM     12  S   UNL     1       1.253   8.923  17.645  0.00  0.00    +0.000 S 
ATOM     13  H   UNL     1       0.045   9.445  17.384  0.00  0.00    +0.000 HD
ENDBRANCH   2  12
BRANCH   1  14
ATOM     14  C   UNL     1      -0.176  11.411  18.682  0.00  0.00    +0.000 C 
BRANCH  14  19
ATOM     15  N   UNL     1      -2.757  11.991  18.584  0.00  0.00    +0.000 NA
ATOM     16  C   UNL     1      -3.513  11.538  17.394  0.00  0.00    +0.000 C 
ATOM     17  C   UNL     1      -3.401  10.028  17.405  0.00  0.00    +0.000 C 
ATOM     18  C   UNL     1      -1.948   9.841  17.795  0.00  0.00    +0.000 C 
ATOM     19  C   UNL     1      -1.666  10.973  18.806  0.00  0.00    +0.000 C 
BRANCH  15  21
ATOM     20  C   UNL     1      -4.945  12.783  19.665  0.00  0.00    +0.000 C 
ATOM     21  C   UNL     1      -3.629  12.016  19.788  0.00  0.00    +0.000 C 
ENDBRANCH  15  21
ENDBRANCH  14  19
ENDBRANCH   1  14
BRANCH   1  22
ATOM     22  C   UNL     1       1.129  11.429  20.835  0.00  0.00    +0.000 C 
BRANCH  22  23
ATOM     23  C   UNL     1      -0.029  11.824  21.726  0.00  0.00    +0.000 A 
ATOM     24  C   UNL     1      -0.624  13.083  21.758  0.00  0.00    +0.000 A 
ATOM     25  C   UNL     1      -1.842  13.275  22.435  0.00  0.00    +0.000 A 
ATOM     26  C   UNL     1      -2.548  14.485  22.351  0.00  0.00    +0.000 A 
ATOM     27  C   UNL     1      -3.840  14.590  22.867  0.00  0.00    +0.000 A 
ATOM     28  C   UNL     1      -4.431  13.495  23.500  0.00  0.00    +0.000 A 
ATOM     29  C   UNL     1      -5.870  13.534  23.924  0.00  0.00    +0.000 C 
ATOM     30  C   UNL     1      -3.674  12.326  23.679  0.00  0.00    +0.000 A 
ATOM     31  C   UNL     1      -2.393  12.188  23.147  0.00  0.00    +0.000 A 
ATOM     32  N   UNL     1      -1.753  11.015  23.259  0.00  0.00    +0.000 NA
ATOM     33  C   UNL     1      -0.622  10.868  22.541  0.00  0.00    +0.000 A 
BRANCH  33  34
ATOM     34  O   UNL     1      -0.095   9.623  22.663  0.00  0.00    +0.000 OA
ATOM     35  H   UNL     1       0.835   9.869  22.821  0.00  0.00    +0.000 HD
ENDBRANCH  33  34
ENDBRANCH  22  23
ENDBRANCH   1  22
TORSDOF 9
ENDMDL
MODEL 8
REMARK VINA RESULT:      -6.6      1.933      3.106
REMARK  Name = 
REMARK  12 active torsions:
REMARK  status: ('A' for Active; 'I' for Inactive)
REMARK    1  A    between atoms: C_1  and  C_2
REMARK    2  A    between atoms: C_2  and  N_3
REMARK    3  A    between atoms: C_7  and  C_8
REMARK    4  A    between atoms: C_8  and  N_9
REMARK    5  A    between atoms: N_9  and  C_10
REMARK    6  A    between atoms: C_10  and  C_11
REMARK    7  A    between atoms: C_16  and  C_17
REMARK    8  A    between atoms: C_21  and  O_22
REMARK    9  A    between atoms: C_23  and  S_24
REMARK   10  A    between atoms: N_25  and  C_26
REMARK   11  A    between atoms: C_30  and  O_31
REMARK   12  A    between atoms: O_31  and  C_32
REMARK                            x       y       z     vdW  Elec       q    Type
REMARK                         _______ _______ _______ _____ _____    ______ ____
ROOT
ATOM      1  N   UNL     1       0.416  11.713  20.525  0.00  0.00    +0.000 N 
ATOM      2  C   UNL     1       1.191  12.824  20.155  0.00  0.00    +0.000 C 
ATOM      3  N   UNL     1       1.349  13.193  18.909  0.00  0.00    +0.000 NA
ENDROOT
BRANCH   3   4
ATOM      4  C   UNL     1       2.069  14.337  18.480  0.00  0.00    +0.000 A 
ATOM      5  C   UNL     1       3.375  14.274  17.979  0.00  0.00    +0.000 A 
ATOM      6  C   UNL     1       4.095  15.429  17.676  0.00  0.00    +0.000 A 
ATOM      7  C   UNL     1       3.475  16.669  17.759  0.00  0.00    +0.000 A 
ATOM      8  C   UNL     1       2.132  16.761  18.123  0.00  0.00    +0.000 A 
ATOM      9  C   UNL     1       1.436  15.598  18.493  0.00  0.00    +0.000 A 
BRANCH   8  10
ATOM     10  O   UNL     1       1.649  18.040  18.086  0.00  0.00    +0.000 OA
ATOM     11  C   UNL     1       0.414  18.256  17.426  0.00  0.00    +0.000 C 
ENDBRANCH   8  10
ENDBRANCH   3   4
BRANCH   2  12
ATOM     12  S   UNL     1       1.950  13.681  21.517  0.00  0.00    +0.000 S 
ATOM     13  H   UNL     1       1.180  13.087  22.442  0.00  0.00    +0.000 HD
ENDBRANCH   2  12
BRANCH   1  14
ATOM     14  C   UNL     1      -0.290  11.634  21.824  0.00  0.00    +0.000 C 
BRANCH  14  19
ATOM     15  N   UNL     1      -1.574  13.770  22.717  0.00  0.00    +0.000 NA
ATOM     16  C   UNL     1      -1.923  14.818  21.730  0.00  0.00    +0.000 C 
ATOM     17  C   UNL     1      -2.839  14.136  20.735  0.00  0.00    +0.000 C 
ATOM     18  C   UNL     1      -2.150  12.796  20.567  0.00  0.00    +0.000 C 
ATOM     19  C   UNL     1      -1.603  12.458  21.971  0.00  0.00    +0.000 C 
BRANCH  15  21
ATOM     20  C   UNL     1      -3.457  12.460  23.866  0.00  0.00    +0.000 C 
ATOM     21  C   UNL     1      -2.582  13.712  23.808  0.00  0.00    +0.000 C 
ENDBRANCH  15  21
ENDBRANCH  14  19
ENDBRANCH   1  14
BRANCH   1  22
ATOM     22  C   UNL     1       0.086  10.675  19.527  0.00  0.00    +0.000 C 
BRANCH  22  23
ATOM     23  C   UNL     1       1.056   9.524  19.380  0.00  0.00    +0.000 A 
ATOM     24  C   UNL     1       1.157   8.443  20.252  0.00  0.00    +0.000 A 
ATOM     25  C   UNL     1       1.913   7.311  19.896  0.00  0.00    +0.000 A 
ATOM     26  C   UNL     1       1.903   6.145  20.676  0.00  0.00    +0.000 A 
ATOM     27  C   UNL     1       2.501   4.973  20.207  0.00  0.00    +0.000 A 
ATOM     28  C   UNL     1       3.141   4.964  18.968  0.00  0.00    +0.000 A 
ATOM     29  C   UNL     1       3.655   3.684  18.376  0.00  0.00    +0.000 C 
ATOM     30  C   UNL     1       3.244   6.165  18.248  0.00  0.00    +0.000 A 
ATOM     31  C   UNL     1       2.630   7.339  18.681  0.00  0.00    +0.000 A 
ATOM     32  N   UNL     1       2.673   8.433  17.906  0.00  0.00    +0.000 NA
ATOM     33  C   UNL     1       1.883   9.463  18.265  0.00  0.00    +0.000 A 
BRANCH  33  34
ATOM     34  O   UNL     1       1.941  10.487  17.376  0.00  0.00    +0.000 OA
ATOM     35  H   UNL     1       1.009  10.491  17.090  0.00  0.00    +0.000 HD
ENDBRANCH  33  34
ENDBRANCH  22  23
ENDBRANCH   1  22
TORSDOF 9
ENDMDL
MODEL 9
REMARK VINA RESULT:      -6.6      1.392      2.245
REMARK  Name = 
REMARK  12 active torsions:
REMARK  status: ('A' for Active; 'I' for Inactive)
REMARK    1  A    between atoms: C_1  and  C_2
REMARK    2  A    between atoms: C_2  and  N_3
REMARK    3  A    between atoms: C_7  and  C_8
REMARK    4  A    between atoms: C_8  and  N_9
REMARK    5  A    between atoms: N_9  and  C_10
REMARK    6  A    between atoms: C_10  and  C_11
REMARK    7  A    between atoms: C_16  and  C_17
REMARK    8  A    between atoms: C_21  and  O_22
REMARK    9  A    between atoms: C_23  and  S_24
REMARK   10  A    between atoms: N_25  and  C_26
REMARK   11  A    between atoms: C_30  and  O_31
REMARK   12  A    between atoms: O_31  and  C_32
REMARK                            x       y       z     vdW  Elec       q    Type
REMARK                         _______ _______ _______ _____ _____    ______ ____
ROOT
ATOM      1  N   UNL     1      -0.723  12.359  21.268  0.00  0.00    +0.000 N 
ATOM      2  C   UNL     1      -0.106  13.519  20.774  0.00  0.00    +0.000 C 
ATOM      3  N   UNL     1      -0.120  13.844  19.506  0.00  0.00    +0.000 NA
ENDROOT
BRANCH   3   4
ATOM      4  C   UNL     1       0.433  15.030  18.959  0.00  0.00    +0.000 A 
ATOM      5  C   UNL     1       1.792  15.167  18.650  0.00  0.00    +0.000 A 
ATOM      6  C   UNL     1       2.323  16.383  18.224  0.00  0.00    +0.000 A 
ATOM      7  C   UNL     1       1.477  17.458  17.985  0.00  0.00    +0.000 A 
ATOM      8  C   UNL     1       0.098  17.318  18.150  0.00  0.00    +0.000 A 
ATOM      9  C   UNL     1      -0.418  16.110  18.647  0.00  0.00    +0.000 A 
BRANCH   8  10
ATOM     10  O   UNL     1      -0.603  18.441  17.805  0.00  0.00    +0.000 OA
ATOM     11  C   UNL     1      -1.911  18.584  18.331  0.00  0.00    +0.000 C 
ENDBRANCH   8  10
ENDBRANCH   3   4
BRANCH   2  12
ATOM     12  S   UNL     1       0.707  14.506  22.011  0.00  0.00    +0.000 S 
ATOM     13  H   UNL     1       0.590  15.646  21.314  0.00  0.00    +0.000 HD
ENDBRANCH   2  12
BRANCH   1  14
ATOM     14  C   UNL     1      -1.274  12.274  22.640  0.00  0.00    +0.000 C 
BRANCH  14  19
ATOM     15  N   UNL     1      -3.474  13.512  21.843  0.00  0.00    +0.000 NA
ATOM     16  C   UNL     1      -4.771  12.876  22.169  0.00  0.00    +0.000 C 
ATOM     17  C   UNL     1      -4.817  12.824  23.682  0.00  0.00    +0.000 C 
ATOM     18  C   UNL     1      -3.394  12.415  24.009  0.00  0.00    +0.000 C 
ATOM     19  C   UNL     1      -2.528  13.142  22.958  0.00  0.00    +0.000 C 
BRANCH  15  21
ATOM     20  C   UNL     1      -4.794  15.559  21.036  0.00  0.00    +0.000 C 
ATOM     21  C   UNL     1      -3.603  14.993  21.809  0.00  0.00    +0.000 C 
ENDBRANCH  15  21
ENDBRANCH  14  19
ENDBRANCH   1  14
BRANCH   1  22
ATOM     22  C   UNL     1      -1.055  11.250  20.350  0.00  0.00    +0.000 C 
BRANCH  22  23
ATOM     23  C   UNL     1       0.068  10.313  19.963  0.00  0.00    +0.000 A 
ATOM     24  C   UNL     1       0.466   9.194  20.690  0.00  0.00    +0.000 A 
ATOM     25  C   UNL     1       1.349   8.256  20.124  0.00  0.00    +0.000 A 
ATOM     26  C   UNL     1       1.641   7.041  20.761  0.00  0.00    +0.000 A 
ATOM     27  C   UNL     1       2.361   6.047  20.098  0.00  0.00    +0.000 A 
ATOM     28  C   UNL     1       2.823   6.267  18.799  0.00  0.00    +0.000 A 
ATOM     29  C   UNL     1       3.464   5.162  18.012  0.00  0.00    +0.000 C 
ATOM     30  C   UNL     1       2.625   7.528  18.214  0.00  0.00    +0.000 A 
ATOM     31  C   UNL     1       1.883   8.525  18.845  0.00  0.00    +0.000 A 
ATOM     32  N   UNL     1       1.636   9.675  18.200  0.00  0.00    +0.000 NA
ATOM     33  C   UNL     1       0.738  10.507  18.761  0.00  0.00    +0.000 A 
BRANCH  33  34
ATOM     34  O   UNL     1       0.503  11.601  17.994  0.00  0.00    +0.000 OA
ATOM     35  H   UNL     1       0.879  12.281  18.584  0.00  0.00    +0.000 HD
ENDBRANCH  33  34
ENDBRANCH  22  23
ENDBRANCH   1  22
TORSDOF 9
ENDMDL
