MODEL 1
REMARK VINA RESULT:      -8.9      0.000      0.000
REMARK  Name = 
REMARK  8 active torsions:
REMARK  status: ('A' for Active; 'I' for Inactive)
REMARK    1  A    between atoms: C_1  and  C_2
REMARK    2  A    between atoms: C_2  and  O_3
REMARK    3  A    between atoms: C_2  and  C_17
REMARK    4  A    between atoms: O_3  and  C_4
REMARK    5  A    between atoms: C_4  and  C_6
REMARK    6  A    between atoms: C_15  and  O_16
REMARK    7  A    between atoms: N_19  and  C_20
REMARK    8  A    between atoms: C_23  and  N_24
REMARK                            x       y       z     vdW  Elec       q    Type
REMARK                         _______ _______ _______ _____ _____    ______ ____
ROOT
ATOM      1  C   UNL     1       7.822   6.283  19.129  0.00  0.00    +0.000 C 
ATOM      2  C   UNL     1       7.472   6.946  17.793  0.00  0.00    +0.000 C 
ENDROOT
BRANCH   2   3
ATOM      3  C   UNL     1       7.915   8.420  17.866  0.00  0.00    +0.000 C 
ATOM      4  O   UNL     1       7.369   9.256  17.145  0.00  0.00    +0.000 OA
ATOM      5  N   UNL     1       8.892   8.710  18.811  0.00  0.00    +0.000 N 
ATOM      6  H   UNL     1       9.416   7.919  19.174  0.00  0.00    +0.000 HD
BRANCH   5   7
ATOM      7  C   UNL     1       9.311  10.023  19.153  0.00  0.00    +0.000 A 
ATOM      8  C   UNL     1       9.222  10.520  20.453  0.00  0.00    +0.000 A 
ATOM      9  C   UNL     1       9.641  11.815  20.773  0.00  0.00    +0.000 A 
ATOM     10  C   UNL     1      10.180  12.677  19.819  0.00  0.00    +0.000 A 
ATOM     11  C   UNL     1      10.264  12.174  18.510  0.00  0.00    +0.000 A 
ATOM     12  C   UNL     1       9.854  10.862  18.179  0.00  0.00    +0.000 A 
BRANCH  10  13
ATOM     13  N   UNL     1      10.631  13.934  20.159  0.00  0.00    +0.000 N 
ATOM     14  C   UNL     1       9.779  14.921  20.847  0.00  0.00    +0.000 C 
ATOM     15  C   UNL     1       9.609  16.184  19.991  0.00  0.00    +0.000 C 
ATOM     16  O   UNL     1      10.881  16.733  19.611  0.00  0.00    +0.000 OA
ATOM     17  C   UNL     1      11.625  15.769  18.846  0.00  0.00    +0.000 C 
ATOM     18  C   UNL     1      11.896  14.480  19.647  0.00  0.00    +0.000 C 
ENDBRANCH  10  13
ENDBRANCH   5   7
ENDBRANCH   2   3
BRANCH   2  19
ATOM     19  O   UNL     1       6.080   6.782  17.519  0.00  0.00    +0.000 OA
BRANCH  19  20
ATOM     20  C   UNL     1       5.720   5.515  17.172  0.00  0.00    +0.000 C 
ATOM     21  O   UNL     1       6.321   4.787  16.394  0.00  0.00    +0.000 OA
BRANCH  20  22
ATOM     22  C   UNL     1       4.527   5.058  17.918  0.00  0.00    +0.000 A 
ATOM     23  C   UNL     1       3.332   5.754  17.692  0.00  0.00    +0.000 A 
ATOM     24  C   UNL     1       2.180   5.423  18.403  0.00  0.00    +0.000 A 
ATOM     25  C   UNL     1       2.197   4.402  19.361  0.00  0.00    +0.000 A 
ATOM     26  C   UNL     1       1.028   4.100  20.079  0.00  0.00    +0.000 A 
ATOM     27  C   UNL     1       1.015   3.102  21.050  0.00  0.00    +0.000 A 
ATOM     28  C   UNL     1       2.172   2.385  21.311  0.00  0.00    +0.000 A 
ATOM     29  C   UNL     1       3.345   2.666  20.605  0.00  0.00    +0.000 A 
ATOM     30  C   UNL     1       3.396   3.680  19.614  0.00  0.00    +0.000 A 
ATOM     31  C   UNL     1       4.562   4.031  18.874  0.00  0.00    +0.000 A 
BRANCH  31  32
ATOM     32  O   UNL     1       5.769   3.408  19.099  0.00  0.00    +0.000 OA
ATOM     33  H   UNL     1       5.701   2.832  19.872  0.00  0.00    +0.000 HD
ENDBRANCH  31  32
ENDBRANCH  20  22
ENDBRANCH  19  20
ENDBRANCH   2  19
TORSDOF 7
ENDMDL
MODEL 2
REMARK VINA RESULT:      -8.8      5.797      6.928
REMARK  Name = 
REMARK  8 active torsions:
REMARK  status: ('A' for Active; 'I' for Inactive)
REMARK    1  A    between atoms: C_1  and  C_2
REMARK    2  A    between atoms: C_2  and  O_3
REMARK    3  A    between atoms: C_2  and  C_17
REMARK    4  A    between atoms: O_3  and  C_4
REMARK    5  A    between atoms: C_4  and  C_6
REMARK    6  A    between atoms: C_15  and  O_16
REMARK    7  A    between atoms: N_19  and  C_20
REMARK    8  A    between atoms: C_23  and  N_24
REMARK                            x       y       z     vdW  Elec       q    Type
REMARK                         _______ _______ _______ _____ _____    ______ ____
ROOT
ATOM      1  C   UNL     1       7.048   5.843  17.052  0.00  0.00    +0.000 C 
ATOM      2  C   UNL     1       5.705   6.276  16.457  0.00  0.00    +0.000 C 
ENDROOT
BRANCH   2   3
ATOM      3  C   UNL     1       4.776   6.669  17.622  0.00  0.00    +0.000 C 
ATOM      4  O   UNL     1       5.174   6.553  18.783  0.00  0.00    +0.000 OA
ATOM      5  N   UNL     1       3.541   7.193  17.260  0.00  0.00    +0.000 N 
ATOM      6  H   UNL     1       3.246   7.028  16.301  0.00  0.00    +0.000 HD
BRANCH   5   7
ATOM      7  C   UNL     1       2.617   7.771  18.170  0.00  0.00    +0.000 A 
ATOM      8  C   UNL     1       2.354   7.215  19.420  0.00  0.00    +0.000 A 
ATOM      9  C   UNL     1       1.442   7.798  20.306  0.00  0.00    +0.000 A 
ATOM     10  C   UNL     1       0.753   8.970  19.994  0.00  0.00    +0.000 A 
ATOM     11  C   UNL     1       1.018   9.525  18.732  0.00  0.00    +0.000 A 
ATOM     12  C   UNL     1       1.948   8.949  17.836  0.00  0.00    +0.000 A 
BRANCH  10  13
ATOM     13  N   UNL     1      -0.108   9.558  20.895  0.00  0.00    +0.000 N 
ATOM     14  C   UNL     1      -0.518  10.970  20.791  0.00  0.00    +0.000 C 
ATOM     15  C   UNL     1      -0.092  11.754  22.041  0.00  0.00    +0.000 C 
ATOM     16  O   UNL     1      -0.582  11.132  23.240  0.00  0.00    +0.000 OA
ATOM     17  C   UNL     1      -0.061   9.796  23.349  0.00  0.00    +0.000 C 
ATOM     18  C   UNL     1      -0.486   8.911  22.160  0.00  0.00    +0.000 C 
ENDBRANCH  10  13
ENDBRANCH   5   7
ENDBRANCH   2   3
BRANCH   2  19
ATOM     19  O   UNL     1       5.177   5.233  15.635  0.00  0.00    +0.000 OA
BRANCH  19  20
ATOM     20  C   UNL     1       5.276   3.987  16.176  0.00  0.00    +0.000 C 
ATOM     21  O   UNL     1       6.175   3.184  15.968  0.00  0.00    +0.000 OA
BRANCH  20  22
ATOM     22  C   UNL     1       4.189   3.719  17.143  0.00  0.00    +0.000 A 
ATOM     23  C   UNL     1       2.876   3.870  16.678  0.00  0.00    +0.000 A 
ATOM     24  C   UNL     1       1.798   3.695  17.545  0.00  0.00    +0.000 A 
ATOM     25  C   UNL     1       2.006   3.380  18.893  0.00  0.00    +0.000 A 
ATOM     26  C   UNL     1       0.904   3.229  19.752  0.00  0.00    +0.000 A 
ATOM     27  C   UNL     1       1.077   2.933  21.101  0.00  0.00    +0.000 A 
ATOM     28  C   UNL     1       2.356   2.774  21.610  0.00  0.00    +0.000 A 
ATOM     29  C   UNL     1       3.466   2.916  20.772  0.00  0.00    +0.000 A 
ATOM     30  C   UNL     1       3.328   3.225  19.394  0.00  0.00    +0.000 A 
ATOM     31  C   UNL     1       4.416   3.403  18.492  0.00  0.00    +0.000 A 
BRANCH  31  32
ATOM     32  O   UNL     1       5.722   3.314  18.916  0.00  0.00    +0.000 OA
ATOM     33  H   UNL     1       5.780   2.722  19.678  0.00  0.00    +0.000 HD
ENDBRANCH  31  32
ENDBRANCH  20  22
ENDBRANCH  19  20
ENDBRANCH   2  19
TORSDOF 7
ENDMDL
MODEL 3
REMARK VINA RESULT:      -8.7      0.550      1.007
REMARK  Name = 
REMARK  8 active torsions:
REMARK  status: ('A' for Active; 'I' for Inactive)
REMARK    1  A    between atoms: C_1  and  C_2
REMARK    2  A    between atoms: C_2  and  O_3
REMARK    3  A    between atoms: C_2  and  C_17
REMARK    4  A    between atoms: O_3  and  C_4
REMARK    5  A    between atoms: C_4  and  C_6
REMARK    6  A    between atoms: C_15  and  O_16
REMARK    7  A    between atoms: N_19  and  C_20
REMARK    8  A    between atoms: C_23  and  N_24
REMARK                            x       y       z     vdW  Elec       q    Type
REMARK                         _______ _______ _______ _____ _____    ______ ____
ROOT
ATOM      1  C   UNL     1       7.548   6.149  19.251  0.00  0.00    +0.000 C 
ATOM      2  C   UNL     1       7.485   6.663  17.809  0.00  0.00    +0.000 C 
ENDROOT
BRANCH   2   3
ATOM      3  C   UNL     1       7.779   8.176  17.834  0.00  0.00    +0.000 C 
ATOM      4  O   UNL     1       7.082   8.942  17.165  0.00  0.00    +0.000 OA
ATOM      5  N   UNL     1       8.806   8.578  18.678  0.00  0.00    +0.000 N 
ATOM      6  H   UNL     1       9.441   7.849  18.993  0.00  0.00    +0.000 HD
BRANCH   5   7
ATOM      7  C   UNL     1       9.118   9.931  18.974  0.00  0.00    +0.000 A 
ATOM      8  C   UNL     1       9.308  10.888  17.978  0.00  0.00    +0.000 A 
ATOM      9  C   UNL     1       9.613  12.217  18.287  0.00  0.00    +0.000 A 
ATOM     10  C   UNL     1       9.735  12.663  19.603  0.00  0.00    +0.000 A 
ATOM     11  C   UNL     1       9.547  11.695  20.603  0.00  0.00    +0.000 A 
ATOM     12  C   UNL     1       9.226  10.351  20.300  0.00  0.00    +0.000 A 
BRANCH  10  13
ATOM     13  N   UNL     1       9.990  13.986  19.893  0.00  0.00    +0.000 N 
ATOM     14  C   UNL     1       9.008  15.056  19.640  0.00  0.00    +0.000 C 
ATOM     15  C   UNL     1       9.569  16.086  18.649  0.00  0.00    +0.000 C 
ATOM     16  O   UNL     1      10.834  16.603  19.093  0.00  0.00    +0.000 OA
ATOM     17  C   UNL     1      11.787  15.533  19.215  0.00  0.00    +0.000 C 
ATOM     18  C   UNL     1      11.336  14.470  20.237  0.00  0.00    +0.000 C 
ENDBRANCH  10  13
ENDBRANCH   5   7
ENDBRANCH   2   3
BRANCH   2  19
ATOM     19  O   UNL     1       6.219   6.338  17.232  0.00  0.00    +0.000 OA
BRANCH  19  20
ATOM     20  C   UNL     1       5.945   5.005  17.194  0.00  0.00    +0.000 C 
ATOM     21  O   UNL     1       6.662   4.138  16.711  0.00  0.00    +0.000 OA
BRANCH  20  22
ATOM     22  C   UNL     1       4.681   4.682  17.892  0.00  0.00    +0.000 A 
ATOM     23  C   UNL     1       3.548   5.420  17.526  0.00  0.00    +0.000 A 
ATOM     24  C   UNL     1       2.335   5.218  18.181  0.00  0.00    +0.000 A 
ATOM     25  C   UNL     1       2.229   4.287  19.222  0.00  0.00    +0.000 A 
ATOM     26  C   UNL     1       0.999   4.116  19.880  0.00  0.00    +0.000 A 
ATOM     27  C   UNL     1       0.864   3.212  20.930  0.00  0.00    +0.000 A 
ATOM     28  C   UNL     1       1.956   2.458  21.331  0.00  0.00    +0.000 A 
ATOM     29  C   UNL     1       3.187   2.610  20.686  0.00  0.00    +0.000 A 
ATOM     30  C   UNL     1       3.363   3.526  19.618  0.00  0.00    +0.000 A 
ATOM     31  C   UNL     1       4.593   3.745  18.933  0.00  0.00    +0.000 A 
BRANCH  31  32
ATOM     32  O   UNL     1       5.742   3.079  19.293  0.00  0.00    +0.000 OA
ATOM     33  H   UNL     1       5.985   3.310  20.200  0.00  0.00    +0.000 HD
ENDBRANCH  31  32
ENDBRANCH  20  22
ENDBRANCH  19  20
ENDBRANCH   2  19
TORSDOF 7
ENDMDL
MODEL 4
REMARK VINA RESULT:      -8.6      5.971      7.698
REMARK  Name = 
REMARK  8 active torsions:
REMARK  status: ('A' for Active; 'I' for Inactive)
REMARK    1  A    between atoms: C_1  and  C_2
REMARK    2  A    between atoms: C_2  and  O_3
REMARK    3  A    between atoms: C_2  and  C_17
REMARK    4  A    between atoms: O_3  and  C_4
REMARK    5  A    between atoms: C_4  and  C_6
REMARK    6  A    between atoms: C_15  and  O_16
REMARK    7  A    between atoms: N_19  and  C_20
REMARK    8  A    between atoms: C_23  and  N_24
REMARK                            x       y       z     vdW  Elec       q    Type
REMARK                         _______ _______ _______ _____ _____    ______ ____
ROOT
ATOM      1  C   UNL     1       1.212   2.598  22.029  0.00  0.00    +0.000 C 
ATOM      2  C   UNL     1       2.333   3.314  21.268  0.00  0.00    +0.000 C 
ENDROOT
BRANCH   2   3
ATOM      3  C   UNL     1       1.721   4.547  20.575  0.00  0.00    +0.000 C 
ATOM      4  O   UNL     1       0.573   4.488  20.129  0.00  0.00    +0.000 OA
ATOM      5  N   UNL     1       2.517   5.686  20.555  0.00  0.00    +0.000 N 
ATOM      6  H   UNL     1       3.506   5.547  20.744  0.00  0.00    +0.000 HD
BRANCH   5   7
ATOM      7  C   UNL     1       2.077   6.964  20.123  0.00  0.00    +0.000 A 
ATOM      8  C   UNL     1       1.367   7.830  20.953  0.00  0.00    +0.000 A 
ATOM      9  C   UNL     1       0.943   9.088  20.511  0.00  0.00    +0.000 A 
ATOM     10  C   UNL     1       1.213   9.551  19.224  0.00  0.00    +0.000 A 
ATOM     11  C   UNL     1       1.924   8.674  18.389  0.00  0.00    +0.000 A 
ATOM     12  C   UNL     1       2.368   7.406  18.831  0.00  0.00    +0.000 A 
BRANCH  10  13
ATOM     13  N   UNL     1       0.828  10.810  18.818  0.00  0.00    +0.000 N 
ATOM     14  C   UNL     1       1.801  11.881  18.534  0.00  0.00    +0.000 C 
ATOM     15  C   UNL     1       1.576  13.081  19.465  0.00  0.00    +0.000 C 
ATOM     16  O   UNL     1       0.219  13.547  19.399  0.00  0.00    +0.000 OA
ATOM     17  C   UNL     1      -0.682  12.497  19.794  0.00  0.00    +0.000 C 
ATOM     18  C   UNL     1      -0.569  11.263  18.877  0.00  0.00    +0.000 C 
ENDBRANCH  10  13
ENDBRANCH   5   7
ENDBRANCH   2   3
BRANCH   2  19
ATOM     19  O   UNL     1       2.962   2.406  20.362  0.00  0.00    +0.000 OA
BRANCH  19  20
ATOM     20  C   UNL     1       4.323   2.475  20.352  0.00  0.00    +0.000 C 
ATOM     21  O   UNL     1       5.078   1.854  21.087  0.00  0.00    +0.000 OA
BRANCH  20  22
ATOM     22  C   UNL     1       4.822   3.351  19.269  0.00  0.00    +0.000 A 
ATOM     23  C   UNL     1       5.392   4.572  19.652  0.00  0.00    +0.000 A 
ATOM     24  C   UNL     1       5.829   5.478  18.687  0.00  0.00    +0.000 A 
ATOM     25  C   UNL     1       5.695   5.192  17.323  0.00  0.00    +0.000 A 
ATOM     26  C   UNL     1       6.125   6.131  16.370  0.00  0.00    +0.000 A 
ATOM     27  C   UNL     1       5.991   5.885  15.006  0.00  0.00    +0.000 A 
ATOM     28  C   UNL     1       5.433   4.692  14.575  0.00  0.00    +0.000 A 
ATOM     29  C   UNL     1       5.003   3.743  15.508  0.00  0.00    +0.000 A 
ATOM     30  C   UNL     1       5.117   3.962  16.904  0.00  0.00    +0.000 A 
ATOM     31  C   UNL     1       4.680   3.048  17.906  0.00  0.00    +0.000 A 
BRANCH  31  32
ATOM     32  O   UNL     1       4.070   1.860  17.575  0.00  0.00    +0.000 OA
ATOM     33  H   UNL     1       4.640   1.352  16.983  0.00  0.00    +0.000 HD
ENDBRANCH  31  32
ENDBRANCH  20  22
ENDBRANCH  19  20
ENDBRANCH   2  19
TORSDOF 7
ENDMDL
MODEL 5
REMARK VINA RESULT:      -8.5      1.167      1.463
REMARK  Name = 
REMARK  8 active torsions:
REMARK  status: ('A' for Active; 'I' for Inactive)
REMARK    1  A    between atoms: C_1  and  C_2
REMARK    2  A    between atoms: C_2  and  O_3
REMARK    3  A    between atoms: C_2  and  C_17
REMARK    4  A    between atoms: O_3  and  C_4
REMARK    5  A    between atoms: C_4  and  C_6
REMARK    6  A    between atoms: C_15  and  O_16
REMARK    7  A    between atoms: N_19  and  C_20
REMARK    8  A    between atoms: C_23  and  N_24
REMARK                            x       y       z     vdW  Elec       q    Type
REMARK                         _______ _______ _______ _____ _____    ______ ____
ROOT
ATOM      1  C   UNL     1       8.083   6.330  19.078  0.00  0.00    +0.000 C 
ATOM      2  C   UNL     1       7.420   7.064  17.907  0.00  0.00    +0.000 C 
ENDROOT
BRANCH   2   3
ATOM      3  C   UNL     1       7.944   8.513  17.899  0.00  0.00    +0.000 C 
ATOM      4  O   UNL     1       7.486   9.321  17.089  0.00  0.00    +0.000 OA
ATOM      5  N   UNL     1       8.884   8.820  18.875  0.00  0.00    +0.000 N 
ATOM      6  H   UNL     1       9.341   8.031  19.324  0.00  0.00    +0.000 HD
BRANCH   5   7
ATOM      7  C   UNL     1       9.360  10.130  19.145  0.00  0.00    +0.000 A 
ATOM      8  C   UNL     1       9.294  10.701  20.415  0.00  0.00    +0.000 A 
ATOM      9  C   UNL     1       9.770  11.992  20.665  0.00  0.00    +0.000 A 
ATOM     10  C   UNL     1      10.345  12.776  19.665  0.00  0.00    +0.000 A 
ATOM     11  C   UNL     1      10.406  12.199  18.386  0.00  0.00    +0.000 A 
ATOM     12  C   UNL     1       9.939  10.889  18.128  0.00  0.00    +0.000 A 
BRANCH  10  13
ATOM     13  N   UNL     1      10.851  14.029  19.936  0.00  0.00    +0.000 N 
ATOM     14  C   UNL     1      10.006  15.135  20.422  0.00  0.00    +0.000 C 
ATOM     15  C   UNL     1      10.031  16.312  19.435  0.00  0.00    +0.000 C 
ATOM     16  O   UNL     1      11.376  16.735  19.160  0.00  0.00    +0.000 OA
ATOM     17  C   UNL     1      12.125  15.650  18.583  0.00  0.00    +0.000 C 
ATOM     18  C   UNL     1      12.204  14.436  19.530  0.00  0.00    +0.000 C 
ENDBRANCH  10  13
ENDBRANCH   5   7
ENDBRANCH   2   3
BRANCH   2  19
ATOM     19  O   UNL     1       5.998   6.972  18.019  0.00  0.00    +0.000 OA
BRANCH  19  20
ATOM     20  C   UNL     1       5.392   6.345  16.973  0.00  0.00    +0.000 C 
ATOM     21  O   UNL     1       5.629   6.533  15.788  0.00  0.00    +0.000 OA
BRANCH  20  22
ATOM     22  C   UNL     1       4.435   5.313  17.431  0.00  0.00    +0.000 A 
ATOM     23  C   UNL     1       4.382   4.124  16.692  0.00  0.00    +0.000 A 
ATOM     24  C   UNL     1       3.463   3.130  17.023  0.00  0.00    +0.000 A 
ATOM     25  C   UNL     1       2.570   3.305  18.087  0.00  0.00    +0.000 A 
ATOM     26  C   UNL     1       1.640   2.296  18.389  0.00  0.00    +0.000 A 
ATOM     27  C   UNL     1       0.727   2.444  19.430  0.00  0.00    +0.000 A 
ATOM     28  C   UNL     1       0.738   3.603  20.191  0.00  0.00    +0.000 A 
ATOM     29  C   UNL     1       1.659   4.617  19.910  0.00  0.00    +0.000 A 
ATOM     30  C   UNL     1       2.598   4.502  18.853  0.00  0.00    +0.000 A 
ATOM     31  C   UNL     1       3.547   5.505  18.502  0.00  0.00    +0.000 A 
BRANCH  31  32
ATOM     32  O   UNL     1       3.601   6.708  19.168  0.00  0.00    +0.000 OA
ATOM     33  H   UNL     1       2.713   6.963  19.454  0.00  0.00    +0.000 HD
ENDBRANCH  31  32
ENDBRANCH  20  22
ENDBRANCH  19  20
ENDBRANCH   2  19
TORSDOF 7
ENDMDL
MODEL 6
REMARK VINA RESULT:      -8.5      1.174      1.763
REMARK  Name = 
REMARK  8 active torsions:
REMARK  status: ('A' for Active; 'I' for Inactive)
REMARK    1  A    between atoms: C_1  and  C_2
REMARK    2  A    between atoms: C_2  and  O_3
REMARK    3  A    between atoms: C_2  and  C_17
REMARK    4  A    between atoms: O_3  and  C_4
REMARK    5  A    between atoms: C_4  and  C_6
REMARK    6  A    between atoms: C_15  and  O_16
REMARK    7  A    between atoms: N_19  and  C_20
REMARK    8  A    between atoms: C_23  and  N_24
REMARK                            x       y       z     vdW  Elec       q    Type
REMARK                         _______ _______ _______ _____ _____    ______ ____
ROOT
ATOM      1  C   UNL     1       8.187   6.178  19.404  0.00  0.00    +0.000 C 
ATOM      2  C   UNL     1       7.749   6.673  18.022  0.00  0.00    +0.000 C 
ENDROOT
BRANCH   2   3
ATOM      3  C   UNL     1       7.982   8.195  17.968  0.00  0.00    +0.000 C 
ATOM      4  O   UNL     1       7.315   8.886  17.196  0.00  0.00    +0.000 OA
ATOM      5  N   UNL     1       8.920   8.694  18.863  0.00  0.00    +0.000 N 
ATOM      6  H   UNL     1       9.554   8.015  19.276  0.00  0.00    +0.000 HD
BRANCH   5   7
ATOM      7  C   UNL     1       9.155  10.075  19.092  0.00  0.00    +0.000 A 
ATOM      8  C   UNL     1       9.327  10.986  18.050  0.00  0.00    +0.000 A 
ATOM      9  C   UNL     1       9.556  12.344  18.293  0.00  0.00    +0.000 A 
ATOM     10  C   UNL     1       9.615  12.866  19.585  0.00  0.00    +0.000 A 
ATOM     11  C   UNL     1       9.446  11.945  20.631  0.00  0.00    +0.000 A 
ATOM     12  C   UNL     1       9.202  10.572  20.395  0.00  0.00    +0.000 A 
BRANCH  10  13
ATOM     13  N   UNL     1       9.796  14.214  19.807  0.00  0.00    +0.000 N 
ATOM     14  C   UNL     1      10.941  14.743  20.570  0.00  0.00    +0.000 C 
ATOM     15  C   UNL     1      10.460  15.507  21.813  0.00  0.00    +0.000 C 
ATOM     16  O   UNL     1       9.518  16.534  21.463  0.00  0.00    +0.000 OA
ATOM     17  C   UNL     1       8.370  15.951  20.823  0.00  0.00    +0.000 C 
ATOM     18  C   UNL     1       8.747  15.205  19.527  0.00  0.00    +0.000 C 
ENDBRANCH  10  13
ENDBRANCH   5   7
ENDBRANCH   2   3
BRANCH   2  19
ATOM     19  O   UNL     1       6.393   6.296  17.778  0.00  0.00    +0.000 OA
BRANCH  19  20
ATOM     20  C   UNL     1       6.238   5.021  17.322  0.00  0.00    +0.000 C 
ATOM     21  O   UNL     1       7.069   4.376  16.700  0.00  0.00    +0.000 OA
BRANCH  20  22
ATOM     22  C   UNL     1       4.941   4.442  17.738  0.00  0.00    +0.000 A 
ATOM     23  C   UNL     1       4.220   3.738  16.765  0.00  0.00    +0.000 A 
ATOM     24  C   UNL     1       2.962   3.216  17.063  0.00  0.00    +0.000 A 
ATOM     25  C   UNL     1       2.392   3.396  18.329  0.00  0.00    +0.000 A 
ATOM     26  C   UNL     1       1.115   2.877  18.598  0.00  0.00    +0.000 A 
ATOM     27  C   UNL     1       0.513   3.052  19.841  0.00  0.00    +0.000 A 
ATOM     28  C   UNL     1       1.185   3.743  20.838  0.00  0.00    +0.000 A 
ATOM     29  C   UNL     1       2.459   4.263  20.592  0.00  0.00    +0.000 A 
ATOM     30  C   UNL     1       3.100   4.109  19.336  0.00  0.00    +0.000 A 
ATOM     31  C   UNL     1       4.385   4.632  19.013  0.00  0.00    +0.000 A 
BRANCH  31  32
ATOM     32  O   UNL     1       5.107   5.373  19.921  0.00  0.00    +0.000 OA
ATOM     33  H   UNL     1       5.249   6.265  19.577  0.00  0.00    +0.000 HD
ENDBRANCH  31  32
ENDBRANCH  20  22
ENDBRANCH  19  20
ENDBRANCH   2  19
TORSDOF 7
ENDMDL
MODEL 7
REMARK VINA RESULT:      -8.4      1.595      1.901
REMARK  Name = 
REMARK  8 active torsions:
REMARK  status: ('A' for Active; 'I' for Inactive)
REMARK    1  A    between atoms: C_1  and  C_2
REMARK    2  A    between atoms: C_2  and  O_3
REMARK    3  A    between atoms: C_2  and  C_17
REMARK    4  A    between atoms: O_3  and  C_4
REMARK    5  A    between atoms: C_4  and  C_6
REMARK    6  A    between atoms: C_15  and  O_16
REMARK    7  A    between atoms: N_19  and  C_20
REMARK    8  A    between atoms: C_23  and  N_24
REMARK                            x       y       z     vdW  Elec       q    Type
REMARK                         _______ _______ _______ _____ _____    ______ ____
ROOT
ATOM      1  C   UNL     1       7.833   6.256  18.840  0.00  0.00    +0.000 C 
ATOM      2  C   UNL     1       7.713   7.311  17.735  0.00  0.00    +0.000 C 
ENDROOT
BRANCH   2   3
ATOM      3  C   UNL     1       8.327   8.622  18.264  0.00  0.00    +0.000 C 
ATOM      4  O   UNL     1       8.958   8.614  19.323  0.00  0.00    +0.000 OA
ATOM      5  N   UNL     1       8.163   9.736  17.451  0.00  0.00    +0.000 N 
ATOM      6  H   UNL     1       7.445   9.670  16.735  0.00  0.00    +0.000 HD
BRANCH   5   7
ATOM      7  C   UNL     1       8.794  10.989  17.671  0.00  0.00    +0.000 A 
ATOM      8  C   UNL     1      10.156  11.101  17.944  0.00  0.00    +0.000 A 
ATOM      9  C   UNL     1      10.763  12.343  18.156  0.00  0.00    +0.000 A 
ATOM     10  C   UNL     1      10.046  13.537  18.096  0.00  0.00    +0.000 A 
ATOM     11  C   UNL     1       8.673  13.420  17.825  0.00  0.00    +0.000 A 
ATOM     12  C   UNL     1       8.054  12.169  17.597  0.00  0.00    +0.000 A 
BRANCH  10  13
ATOM     13  N   UNL     1      10.666  14.757  18.261  0.00  0.00    +0.000 N 
ATOM     14  C   UNL     1      11.535  15.052  19.415  0.00  0.00    +0.000 C 
ATOM     15  C   UNL     1      10.976  16.226  20.231  0.00  0.00    +0.000 C 
ATOM     16  O   UNL     1      10.757  17.381  19.405  0.00  0.00    +0.000 OA
ATOM     17  C   UNL     1       9.815  17.069  18.364  0.00  0.00    +0.000 C 
ATOM     18  C   UNL     1      10.317  15.933  17.451  0.00  0.00    +0.000 C 
ENDBRANCH  10  13
ENDBRANCH   5   7
ENDBRANCH   2   3
BRANCH   2  19
ATOM     19  O   UNL     1       6.348   7.442  17.335  0.00  0.00    +0.000 OA
BRANCH  19  20
ATOM     20  C   UNL     1       5.904   6.448  16.517  0.00  0.00    +0.000 C 
ATOM     21  O   UNL     1       6.422   6.099  15.466  0.00  0.00    +0.000 OA
BRANCH  20  22
ATOM     22  C   UNL     1       4.731   5.749  17.088  0.00  0.00    +0.000 A 
ATOM     23  C   UNL     1       3.719   6.549  17.634  0.00  0.00    +0.000 A 
ATOM     24  C   UNL     1       2.611   5.964  18.245  0.00  0.00    +0.000 A 
ATOM     25  C   UNL     1       2.496   4.571  18.336  0.00  0.00    +0.000 A 
ATOM     26  C   UNL     1       1.379   4.006  18.975  0.00  0.00    +0.000 A 
ATOM     27  C   UNL     1       1.242   2.626  19.098  0.00  0.00    +0.000 A 
ATOM     28  C   UNL     1       2.216   1.790  18.575  0.00  0.00    +0.000 A 
ATOM     29  C   UNL     1       3.333   2.333  17.932  0.00  0.00    +0.000 A 
ATOM     30  C   UNL     1       3.509   3.733  17.795  0.00  0.00    +0.000 A 
ATOM     31  C   UNL     1       4.631   4.351  17.170  0.00  0.00    +0.000 A 
BRANCH  31  32
ATOM     32  O   UNL     1       5.672   3.605  16.666  0.00  0.00    +0.000 OA
ATOM     33  H   UNL     1       5.500   3.386  15.741  0.00  0.00    +0.000 HD
ENDBRANCH  31  32
ENDBRANCH  20  22
ENDBRANCH  19  20
ENDBRANCH   2  19
TORSDOF 7
ENDMDL
MODEL 8
REMARK VINA RESULT:      -8.3      1.325      1.480
REMARK  Name = 
REMARK  8 active torsions:
REMARK  status: ('A' for Active; 'I' for Inactive)
REMARK    1  A    between atoms: C_1  and  C_2
REMARK    2  A    between atoms: C_2  and  O_3
REMARK    3  A    between atoms: C_2  and  C_17
REMARK    4  A    between atoms: O_3  and  C_4
REMARK    5  A    between atoms: C_4  and  C_6
REMARK    6  A    between atoms: C_15  and  O_16
REMARK    7  A    between atoms: N_19  and  C_20
REMARK    8  A    between atoms: C_23  and  N_24
REMARK                            x       y       z     vdW  Elec       q    Type
REMARK                         _______ _______ _______ _____ _____    ______ ____
ROOT
ATOM      1  C   UNL     1       7.338   5.039  17.671  0.00  0.00    +0.000 C 
ATOM      2  C   UNL     1       7.321   6.372  16.916  0.00  0.00    +0.000 C 
ENDROOT
BRANCH   2   3
ATOM      3  C   UNL     1       7.866   7.459  17.863  0.00  0.00    +0.000 C 
ATOM      4  O   UNL     1       8.381   7.130  18.933  0.00  0.00    +0.000 OA
ATOM      5  N   UNL     1       7.781   8.764  17.396  0.00  0.00    +0.000 N 
ATOM      6  H   UNL     1       7.144   8.925  16.620  0.00  0.00    +0.000 HD
BRANCH   5   7
ATOM      7  C   UNL     1       8.377   9.884  18.033  0.00  0.00    +0.000 A 
ATOM      8  C   UNL     1       9.117   9.768  19.208  0.00  0.00    +0.000 A 
ATOM      9  C   UNL     1       9.699  10.882  19.822  0.00  0.00    +0.000 A 
ATOM     10  C   UNL     1       9.581  12.166  19.292  0.00  0.00    +0.000 A 
ATOM     11  C   UNL     1       8.831  12.280  18.110  0.00  0.00    +0.000 A 
ATOM     12  C   UNL     1       8.250  11.157  17.476  0.00  0.00    +0.000 A 
BRANCH  10  13
ATOM     13  N   UNL     1      10.198  13.247  19.883  0.00  0.00    +0.000 N 
ATOM     14  C   UNL     1      10.221  13.444  21.344  0.00  0.00    +0.000 C 
ATOM     15  C   UNL     1       9.526  14.759  21.726  0.00  0.00    +0.000 C 
ATOM     16  O   UNL     1      10.092  15.874  21.018  0.00  0.00    +0.000 OA
ATOM     17  C   UNL     1       9.943  15.684  19.601  0.00  0.00    +0.000 C 
ATOM     18  C   UNL     1      10.659  14.410  19.110  0.00  0.00    +0.000 C 
ENDBRANCH  10  13
ENDBRANCH   5   7
ENDBRANCH   2   3
BRANCH   2  19
ATOM     19  O   UNL     1       6.002   6.643  16.437  0.00  0.00    +0.000 OA
BRANCH  19  20
ATOM     20  C   UNL     1       5.273   5.531  16.140  0.00  0.00    +0.000 C 
ATOM     21  O   UNL     1       5.461   4.783  15.191  0.00  0.00    +0.000 OA
BRANCH  20  22
ATOM     22  C   UNL     1       4.239   5.261  17.163  0.00  0.00    +0.000 A 
ATOM     23  C   UNL     1       3.607   6.373  17.735  0.00  0.00    +0.000 A 
ATOM     24  C   UNL     1       2.666   6.203  18.749  0.00  0.00    +0.000 A 
ATOM     25  C   UNL     1       2.346   4.925  19.223  0.00  0.00    +0.000 A 
ATOM     26  C   UNL     1       1.409   4.782  20.260  0.00  0.00    +0.000 A 
ATOM     27  C   UNL     1       1.080   3.527  20.766  0.00  0.00    +0.000 A 
ATOM     28  C   UNL     1       1.678   2.395  20.235  0.00  0.00    +0.000 A 
ATOM     29  C   UNL     1       2.610   2.516  19.199  0.00  0.00    +0.000 A 
ATOM     30  C   UNL     1       2.974   3.778  18.664  0.00  0.00    +0.000 A 
ATOM     31  C   UNL     1       3.930   3.973  17.626  0.00  0.00    +0.000 A 
BRANCH  31  32
ATOM     32  O   UNL     1       4.611   2.914  17.071  0.00  0.00    +0.000 OA
ATOM     33  H   UNL     1       4.469   2.118  17.602  0.00  0.00    +0.000 HD
ENDBRANCH  31  32
ENDBRANCH  20  22
ENDBRANCH  19  20
ENDBRANCH   2  19
TORSDOF 7
ENDMDL
MODEL 9
REMARK VINA RESULT:      -8.2      1.498      1.930
REMARK  Name = 
REMARK  8 active torsions:
REMARK  status: ('A' for Active; 'I' for Inactive)
REMARK    1  A    between atoms: C_1  and  C_2
REMARK    2  A    between atoms: C_2  and  O_3
REMARK    3  A    between atoms: C_2  and  C_17
REMARK    4  A    between atoms: O_3  and  C_4
REMARK    5  A    between atoms: C_4  and  C_6
REMARK    6  A    between atoms: C_15  and  O_16
REMARK    7  A    between atoms: N_19  and  C_20
REMARK    8  A    between atoms: C_23  and  N_24
REMARK                            x       y       z     vdW  Elec       q    Type
REMARK                         _______ _______ _______ _____ _____    ______ ____
ROOT
ATOM      1  C   UNL     1       7.449   4.954  17.676  0.00  0.00    +0.000 C 
ATOM      2  C   UNL     1       7.231   6.306  16.990  0.00  0.00    +0.000 C 
ENDROOT
BRANCH   2   3
ATOM      3  C   UNL     1       7.841   7.398  17.890  0.00  0.00    +0.000 C 
ATOM      4  O   UNL     1       8.447   7.074  18.913  0.00  0.00    +0.000 OA
ATOM      5  N   UNL     1       7.703   8.703  17.434  0.00  0.00    +0.000 N 
ATOM      6  H   UNL     1       7.002   8.857  16.715  0.00  0.00    +0.000 HD
BRANCH   5   7
ATOM      7  C   UNL     1       8.338   9.828  18.022  0.00  0.00    +0.000 A 
ATOM      8  C   UNL     1       9.125   9.728  19.168  0.00  0.00    +0.000 A 
ATOM      9  C   UNL     1       9.745  10.847  19.733  0.00  0.00    +0.000 A 
ATOM     10  C   UNL     1       9.620  12.121  19.180  0.00  0.00    +0.000 A 
ATOM     11  C   UNL     1       8.822  12.219  18.029  0.00  0.00    +0.000 A 
ATOM     12  C   UNL     1       8.202  11.091  17.444  0.00  0.00    +0.000 A 
BRANCH  10  13
ATOM     13  N   UNL     1      10.273  13.207  19.722  0.00  0.00    +0.000 N 
ATOM     14  C   UNL     1      10.412  13.402  21.177  0.00  0.00    +0.000 C 
ATOM     15  C   UNL     1       9.739  14.711  21.616  0.00  0.00    +0.000 C 
ATOM     16  O   UNL     1      10.237  15.831  20.867  0.00  0.00    +0.000 OA
ATOM     17  C   UNL     1       9.975  15.642  19.466  0.00  0.00    +0.000 C 
ATOM     18  C   UNL     1      10.661  14.374  18.916  0.00  0.00    +0.000 C 
ENDBRANCH  10  13
ENDBRANCH   5   7
ENDBRANCH   2   3
BRANCH   2  19
ATOM     19  O   UNL     1       5.840   6.498  16.725  0.00  0.00    +0.000 OA
BRANCH  19  20
ATOM     20  C   UNL     1       5.234   5.443  16.112  0.00  0.00    +0.000 C 
ATOM     21  O   UNL     1       5.410   5.088  14.955  0.00  0.00    +0.000 OA
BRANCH  20  22
ATOM     22  C   UNL     1       4.367   4.689  17.044  0.00  0.00    +0.000 A 
ATOM     23  C   UNL     1       4.319   3.298  16.882  0.00  0.00    +0.000 A 
ATOM     24  C   UNL     1       3.479   2.525  17.681  0.00  0.00    +0.000 A 
ATOM     25  C   UNL     1       2.659   3.122  18.647  0.00  0.00    +0.000 A 
ATOM     26  C   UNL     1       1.805   2.323  19.426  0.00  0.00    +0.000 A 
ATOM     27  C   UNL     1       0.966   2.886  20.383  0.00  0.00    +0.000 A 
ATOM     28  C   UNL     1       0.974   4.258  20.581  0.00  0.00    +0.000 A 
ATOM     29  C   UNL     1       1.820   5.070  19.820  0.00  0.00    +0.000 A 
ATOM     30  C   UNL     1       2.683   4.532  18.831  0.00  0.00    +0.000 A 
ATOM     31  C   UNL     1       3.552   5.304  18.008  0.00  0.00    +0.000 A 
BRANCH  31  32
ATOM     32  O   UNL     1       3.594   6.676  18.098  0.00  0.00    +0.000 OA
ATOM     33  H   UNL     1       2.701   7.038  18.010  0.00  0.00    +0.000 HD
ENDBRANCH  31  32
ENDBRANCH  20  22
ENDBRANCH  19  20
ENDBRANCH   2  19
TORSDOF 7
ENDMDL
