MODEL 1
REMARK VINA RESULT:      -8.0      0.000      0.000
REMARK  Name = 
REMARK  4 active torsions:
REMARK  status: ('A' for Active; 'I' for Inactive)
REMARK    1  A    between atoms: O_1  and  C_2
REMARK    2  A    between atoms: C_5  and  C_6
REMARK    3  A    between atoms: C_6  and  N_7
REMARK    4  A    between atoms: N_7  and  C_8
REMARK                            x       y       z     vdW  Elec       q    Type
REMARK                         _______ _______ _______ _____ _____    ______ ____
ROOT
ATOM      1  C   UNL     1       6.959   5.051  15.173  0.00  0.00    +0.000 A 
ATOM      2  C   UNL     1       6.050   4.348  14.387  0.00  0.00    +0.000 A 
ATOM      3  C   UNL     1       4.967   3.714  14.986  0.00  0.00    +0.000 A 
ATOM      4  C   UNL     1       4.788   3.779  16.377  0.00  0.00    +0.000 A 
ATOM      5  C   UNL     1       5.727   4.515  17.173  0.00  0.00    +0.000 A 
ATOM      6  C   UNL     1       5.625   4.651  18.580  0.00  0.00    +0.000 A 
ATOM      7  C   UNL     1       6.555   5.385  19.306  0.00  0.00    +0.000 A 
ATOM      8  C   UNL     1       7.586   5.972  18.614  0.00  0.00    +0.000 A 
ATOM      9  N   UNL     1       7.736   5.870  17.280  0.00  0.00    +0.000 NA
ATOM     10  C   UNL     1       6.829   5.163  16.564  0.00  0.00    +0.000 A 
ENDROOT
BRANCH   1  11
ATOM     11  O   UNL     1       8.026   5.669  14.553  0.00  0.00    +0.000 OA
ATOM     12  H   UNL     1       8.706   5.874  15.212  0.00  0.00    +0.000 HD
ENDBRANCH   1  11
BRANCH   4  13
ATOM     13  C   UNL     1       3.628   3.070  17.052  0.00  0.00    +0.000 C 
BRANCH  13  14
ATOM     14  N   UNL     1       2.273   3.544  16.727  0.00  0.00    +0.000 NA
ATOM     15  H   UNL     1       1.659   2.744  16.592  0.00  0.00    +0.000 HD
BRANCH  14  16
ATOM     16  C   UNL     1       1.758   4.351  17.836  0.00  0.00    +0.000 C 
ATOM     17  C   UNL     1       2.465   5.713  18.020  0.00  0.00    +0.000 C 
ATOM     18  C   UNL     1       2.114   6.162  19.443  0.00  0.00    +0.000 C 
ATOM     19  C   UNL     1       2.082   4.838  20.143  0.00  0.00    +0.000 A 
ATOM     20  C   UNL     1       2.110   4.608  21.507  0.00  0.00    +0.000 A 
ATOM     21  C   UNL     1       2.047   3.288  21.951  0.00  0.00    +0.000 A 
ATOM     22  C   UNL     1       1.965   2.228  21.034  0.00  0.00    +0.000 A 
ATOM     23  C   UNL     1       1.907   2.472  19.657  0.00  0.00    +0.000 A 
ATOM     24  C   UNL     1       1.954   3.785  19.219  0.00  0.00    +0.000 A 
ENDBRANCH  14  16
ENDBRANCH  13  14
ENDBRANCH   4  13
TORSDOF 4
ENDMDL
MODEL 2
REMARK VINA RESULT:      -8.0      0.871      2.265
REMARK  Name = 
REMARK  4 active torsions:
REMARK  status: ('A' for Active; 'I' for Inactive)
REMARK    1  A    between atoms: O_1  and  C_2
REMARK    2  A    between atoms: C_5  and  C_6
REMARK    3  A    between atoms: C_6  and  N_7
REMARK    4  A    between atoms: N_7  and  C_8
REMARK                            x       y       z     vdW  Elec       q    Type
REMARK                         _______ _______ _______ _____ _____    ______ ____
ROOT
ATOM      1  C   UNL     1       6.993   5.016  15.162  0.00  0.00    +0.000 A 
ATOM      2  C   UNL     1       6.115   4.196  14.457  0.00  0.00    +0.000 A 
ATOM      3  C   UNL     1       5.121   3.503  15.140  0.00  0.00    +0.000 A 
ATOM      4  C   UNL     1       5.001   3.625  16.533  0.00  0.00    +0.000 A 
ATOM      5  C   UNL     1       5.906   4.481  17.245  0.00  0.00    +0.000 A 
ATOM      6  C   UNL     1       5.856   4.682  18.647  0.00  0.00    +0.000 A 
ATOM      7  C   UNL     1       6.749   5.531  19.289  0.00  0.00    +0.000 A 
ATOM      8  C   UNL     1       7.691   6.168  18.519  0.00  0.00    +0.000 A 
ATOM      9  N   UNL     1       7.788   6.009  17.185  0.00  0.00    +0.000 NA
ATOM     10  C   UNL     1       6.917   5.190  16.551  0.00  0.00    +0.000 A 
ENDROOT
BRANCH   1  11
ATOM     11  O   UNL     1       7.971   5.690  14.461  0.00  0.00    +0.000 OA
ATOM     12  H   UNL     1       8.110   6.561  14.860  0.00  0.00    +0.000 HD
ENDBRANCH   1  11
BRANCH   4  13
ATOM     13  C   UNL     1       3.940   2.856  17.300  0.00  0.00    +0.000 C 
BRANCH  13  14
ATOM     14  N   UNL     1       2.658   3.539  17.537  0.00  0.00    +0.000 NA
ATOM     15  H   UNL     1       1.896   2.876  17.411  0.00  0.00    +0.000 HD
BRANCH  14  16
ATOM     16  C   UNL     1       2.621   4.043  18.912  0.00  0.00    +0.000 C 
ATOM     17  C   UNL     1       1.497   3.441  19.785  0.00  0.00    +0.000 C 
ATOM     18  C   UNL     1       1.349   4.400  20.972  0.00  0.00    +0.000 C 
ATOM     19  C   UNL     1       1.636   5.707  20.300  0.00  0.00    +0.000 A 
ATOM     20  C   UNL     1       1.369   6.976  20.783  0.00  0.00    +0.000 A 
ATOM     21  C   UNL     1       1.742   8.068  19.999  0.00  0.00    +0.000 A 
ATOM     22  C   UNL     1       2.365   7.876  18.756  0.00  0.00    +0.000 A 
ATOM     23  C   UNL     1       2.659   6.589  18.289  0.00  0.00    +0.000 A 
ATOM     24  C   UNL     1       2.301   5.507  19.077  0.00  0.00    +0.000 A 
ENDBRANCH  14  16
ENDBRANCH  13  14
ENDBRANCH   4  13
TORSDOF 4
ENDMDL
MODEL 3
REMARK VINA RESULT:      -7.9      1.602      3.114
REMARK  Name = 
REMARK  4 active torsions:
REMARK  status: ('A' for Active; 'I' for Inactive)
REMARK    1  A    between atoms: O_1  and  C_2
REMARK    2  A    between atoms: C_5  and  C_6
REMARK    3  A    between atoms: C_6  and  N_7
REMARK    4  A    between atoms: N_7  and  C_8
REMARK                            x       y       z     vdW  Elec       q    Type
REMARK                         _______ _______ _______ _____ _____    ______ ____
ROOT
ATOM      1  C   UNL     1       7.489   4.705  17.912  0.00  0.00    +0.000 A 
ATOM      2  C   UNL     1       6.920   5.221  19.073  0.00  0.00    +0.000 A 
ATOM      3  C   UNL     1       5.738   5.950  18.996  0.00  0.00    +0.000 A 
ATOM      4  C   UNL     1       5.121   6.169  17.754  0.00  0.00    +0.000 A 
ATOM      5  C   UNL     1       5.713   5.623  16.568  0.00  0.00    +0.000 A 
ATOM      6  C   UNL     1       5.158   5.776  15.272  0.00  0.00    +0.000 A 
ATOM      7  C   UNL     1       5.765   5.217  14.154  0.00  0.00    +0.000 A 
ATOM      8  C   UNL     1       6.930   4.515  14.344  0.00  0.00    +0.000 A 
ATOM      9  N   UNL     1       7.504   4.343  15.549  0.00  0.00    +0.000 NA
ATOM     10  C   UNL     1       6.915   4.878  16.645  0.00  0.00    +0.000 A 
ENDROOT
BRANCH   1  11
ATOM     11  O   UNL     1       8.663   3.988  18.017  0.00  0.00    +0.000 OA
ATOM     12  H   UNL     1       8.656   3.264  17.373  0.00  0.00    +0.000 HD
ENDBRANCH   1  11
BRANCH   4  13
ATOM     13  C   UNL     1       3.845   6.986  17.646  0.00  0.00    +0.000 C 
BRANCH  13  14
ATOM     14  N   UNL     1       2.604   6.356  18.125  0.00  0.00    +0.000 NA
ATOM     15  H   UNL     1       1.854   6.543  17.463  0.00  0.00    +0.000 HD
BRANCH  14  16
ATOM     16  C   UNL     1       2.797   4.907  18.221  0.00  0.00    +0.000 C 
ATOM     17  C   UNL     1       1.947   4.081  17.229  0.00  0.00    +0.000 C 
ATOM     18  C   UNL     1       1.945   2.654  17.788  0.00  0.00    +0.000 C 
ATOM     19  C   UNL     1       1.947   2.940  19.258  0.00  0.00    +0.000 A 
ATOM     20  C   UNL     1       1.651   2.062  20.286  0.00  0.00    +0.000 A 
ATOM     21  C   UNL     1       1.735   2.532  21.596  0.00  0.00    +0.000 A 
ATOM     22  C   UNL     1       2.106   3.862  21.855  0.00  0.00    +0.000 A 
ATOM     23  C   UNL     1       2.434   4.734  20.811  0.00  0.00    +0.000 A 
ATOM     24  C   UNL     1       2.363   4.260  19.512  0.00  0.00    +0.000 A 
ENDBRANCH  14  16
ENDBRANCH  13  14
ENDBRANCH   4  13
TORSDOF 4
ENDMDL
MODEL 4
REMARK VINA RESULT:      -7.8      4.050      6.883
REMARK  Name = 
REMARK  4 active torsions:
REMARK  status: ('A' for Active; 'I' for Inactive)
REMARK    1  A    between atoms: O_1  and  C_2
REMARK    2  A    between atoms: C_5  and  C_6
REMARK    3  A    between atoms: C_6  and  N_7
REMARK    4  A    between atoms: N_7  and  C_8
REMARK                            x       y       z     vdW  Elec       q    Type
REMARK                         _______ _______ _______ _____ _____    ______ ____
ROOT
ATOM      1  C   UNL     1       1.134  10.466  18.716  0.00  0.00    +0.000 A 
ATOM      2  C   UNL     1       1.787   9.565  17.879  0.00  0.00    +0.000 A 
ATOM      3  C   UNL     1       2.103   8.294  18.347  0.00  0.00    +0.000 A 
ATOM      4  C   UNL     1       1.768   7.918  19.657  0.00  0.00    +0.000 A 
ATOM      5  C   UNL     1       1.086   8.853  20.505  0.00  0.00    +0.000 A 
ATOM      6  C   UNL     1       0.693   8.563  21.836  0.00  0.00    +0.000 A 
ATOM      7  C   UNL     1       0.024   9.500  22.613  0.00  0.00    +0.000 A 
ATOM      8  C   UNL     1      -0.238  10.726  22.052  0.00  0.00    +0.000 A 
ATOM      9  N   UNL     1       0.117  11.058  20.796  0.00  0.00    +0.000 NA
ATOM     10  C   UNL     1       0.762  10.147  20.029  0.00  0.00    +0.000 A 
ENDROOT
BRANCH   1  11
ATOM     11  O   UNL     1       0.836  11.721  18.227  0.00  0.00    +0.000 OA
ATOM     12  H   UNL     1       1.498  11.976  17.568  0.00  0.00    +0.000 HD
ENDBRANCH   1  11
BRANCH   4  13
ATOM     13  C   UNL     1       2.128   6.545  20.196  0.00  0.00    +0.000 C 
BRANCH  13  14
ATOM     14  N   UNL     1       3.450   6.009  19.834  0.00  0.00    +0.000 NA
ATOM     15  H   UNL     1       3.838   5.506  20.628  0.00  0.00    +0.000 HD
BRANCH  14  16
ATOM     16  C   UNL     1       3.309   5.079  18.711  0.00  0.00    +0.000 C 
ATOM     17  C   UNL     1       3.705   3.620  19.034  0.00  0.00    +0.000 C 
ATOM     18  C   UNL     1       3.924   2.949  17.674  0.00  0.00    +0.000 C 
ATOM     19  C   UNL     1       4.495   4.095  16.897  0.00  0.00    +0.000 A 
ATOM     20  C   UNL     1       5.168   4.039  15.689  0.00  0.00    +0.000 A 
ATOM     21  C   UNL     1       5.600   5.237  15.122  0.00  0.00    +0.000 A 
ATOM     22  C   UNL     1       5.360   6.461  15.768  0.00  0.00    +0.000 A 
ATOM     23  C   UNL     1       4.652   6.511  16.975  0.00  0.00    +0.000 A 
ATOM     24  C   UNL     1       4.211   5.320  17.527  0.00  0.00    +0.000 A 
ENDBRANCH  14  16
ENDBRANCH  13  14
ENDBRANCH   4  13
TORSDOF 4
ENDMDL
MODEL 5
REMARK VINA RESULT:      -7.8      5.552      8.164
REMARK  Name = 
REMARK  4 active torsions:
REMARK  status: ('A' for Active; 'I' for Inactive)
REMARK    1  A    between atoms: O_1  and  C_2
REMARK    2  A    between atoms: C_5  and  C_6
REMARK    3  A    between atoms: C_6  and  N_7
REMARK    4  A    between atoms: N_7  and  C_8
REMARK                            x       y       z     vdW  Elec       q    Type
REMARK                         _______ _______ _______ _____ _____    ______ ____
ROOT
ATOM      1  C   UNL     1      -1.027  11.196  22.560  0.00  0.00    +0.000 A 
ATOM      2  C   UNL     1      -0.438  10.105  23.192  0.00  0.00    +0.000 A 
ATOM      3  C   UNL     1       0.322   9.207  22.450  0.00  0.00    +0.000 A 
ATOM      4  C   UNL     1       0.495   9.395  21.070  0.00  0.00    +0.000 A 
ATOM      5  C   UNL     1      -0.110  10.530  20.434  0.00  0.00    +0.000 A 
ATOM      6  C   UNL     1       0.018  10.814  19.051  0.00  0.00    +0.000 A 
ATOM      7  C   UNL     1      -0.579  11.933  18.484  0.00  0.00    +0.000 A 
ATOM      8  C   UNL     1      -1.307  12.755  19.309  0.00  0.00    +0.000 A 
ATOM      9  N   UNL     1      -1.468  12.531  20.626  0.00  0.00    +0.000 NA
ATOM     10  C   UNL     1      -0.882  11.446  21.188  0.00  0.00    +0.000 A 
ENDROOT
BRANCH   1  11
ATOM     11  O   UNL     1      -1.779  12.070  23.319  0.00  0.00    +0.000 OA
ATOM     12  H   UNL     1      -1.930  11.687  24.195  0.00  0.00    +0.000 HD
ENDBRANCH   1  11
BRANCH   4  13
ATOM     13  C   UNL     1       1.298   8.411  20.238  0.00  0.00    +0.000 C 
BRANCH  13  14
ATOM     14  N   UNL     1       1.963   7.312  20.958  0.00  0.00    +0.000 NA
ATOM     15  H   UNL     1       1.265   6.772  21.465  0.00  0.00    +0.000 HD
BRANCH  14  16
ATOM     16  C   UNL     1       2.631   6.433  19.996  0.00  0.00    +0.000 C 
ATOM     17  C   UNL     1       2.770   7.025  18.575  0.00  0.00    +0.000 C 
ATOM     18  C   UNL     1       3.052   5.826  17.663  0.00  0.00    +0.000 C 
ATOM     19  C   UNL     1       2.227   4.774  18.337  0.00  0.00    +0.000 A 
ATOM     20  C   UNL     1       1.837   3.551  17.819  0.00  0.00    +0.000 A 
ATOM     21  C   UNL     1       1.083   2.705  18.631  0.00  0.00    +0.000 A 
ATOM     22  C   UNL     1       0.729   3.092  19.934  0.00  0.00    +0.000 A 
ATOM     23  C   UNL     1       1.154   4.317  20.460  0.00  0.00    +0.000 A 
ATOM     24  C   UNL     1       1.915   5.149  19.657  0.00  0.00    +0.000 A 
ENDBRANCH  14  16
ENDBRANCH  13  14
ENDBRANCH   4  13
TORSDOF 4
ENDMDL
MODEL 6
REMARK VINA RESULT:      -7.6      4.186      6.103
REMARK  Name = 
REMARK  4 active torsions:
REMARK  status: ('A' for Active; 'I' for Inactive)
REMARK    1  A    between atoms: O_1  and  C_2
REMARK    2  A    between atoms: C_5  and  C_6
REMARK    3  A    between atoms: C_6  and  N_7
REMARK    4  A    between atoms: N_7  and  C_8
REMARK                            x       y       z     vdW  Elec       q    Type
REMARK                         _______ _______ _______ _____ _____    ______ ____
ROOT
ATOM      1  C   UNL     1       2.211   2.926  19.127  0.00  0.00    +0.000 A 
ATOM      2  C   UNL     1       1.410   3.508  20.105  0.00  0.00    +0.000 A 
ATOM      3  C   UNL     1       1.461   4.882  20.310  0.00  0.00    +0.000 A 
ATOM      4  C   UNL     1       2.317   5.683  19.537  0.00  0.00    +0.000 A 
ATOM      5  C   UNL     1       3.129   5.071  18.526  0.00  0.00    +0.000 A 
ATOM      6  C   UNL     1       4.012   5.794  17.685  0.00  0.00    +0.000 A 
ATOM      7  C   UNL     1       4.770   5.156  16.712  0.00  0.00    +0.000 A 
ATOM      8  C   UNL     1       4.643   3.793  16.594  0.00  0.00    +0.000 A 
ATOM      9  N   UNL     1       3.825   3.056  17.368  0.00  0.00    +0.000 NA
ATOM     10  C   UNL     1       3.077   3.672  18.314  0.00  0.00    +0.000 A 
ENDROOT
BRANCH   1  11
ATOM     11  O   UNL     1       2.143   1.560  18.946  0.00  0.00    +0.000 OA
ATOM     12  H   UNL     1       3.031   1.181  19.022  0.00  0.00    +0.000 HD
ENDBRANCH   1  11
BRANCH   4  13
ATOM     13  C   UNL     1       2.407   7.181  19.764  0.00  0.00    +0.000 C 
BRANCH  13  14
ATOM     14  N   UNL     1       1.615   7.740  20.872  0.00  0.00    +0.000 NA
ATOM     15  H   UNL     1       2.229   8.258  21.497  0.00  0.00    +0.000 HD
BRANCH  14  16
ATOM     16  C   UNL     1       0.606   8.657  20.337  0.00  0.00    +0.000 C 
ATOM     17  C   UNL     1       1.138   9.648  19.277  0.00  0.00    +0.000 C 
ATOM     18  C   UNL     1       0.090  10.763  19.203  0.00  0.00    +0.000 C 
ATOM     19  C   UNL     1      -0.347  10.817  20.634  0.00  0.00    +0.000 A 
ATOM     20  C   UNL     1      -1.064  11.825  21.257  0.00  0.00    +0.000 A 
ATOM     21  C   UNL     1      -1.389  11.663  22.603  0.00  0.00    +0.000 A 
ATOM     22  C   UNL     1      -0.993  10.511  23.301  0.00  0.00    +0.000 A 
ATOM     23  C   UNL     1      -0.295   9.483  22.655  0.00  0.00    +0.000 A 
ATOM     24  C   UNL     1       0.013   9.640  21.315  0.00  0.00    +0.000 A 
ENDBRANCH  14  16
ENDBRANCH  13  14
ENDBRANCH   4  13
TORSDOF 4
ENDMDL
MODEL 7
REMARK VINA RESULT:      -7.6      4.940      7.689
REMARK  Name = 
REMARK  4 active torsions:
REMARK  status: ('A' for Active; 'I' for Inactive)
REMARK    1  A    between atoms: O_1  and  C_2
REMARK    2  A    between atoms: C_5  and  C_6
REMARK    3  A    between atoms: C_6  and  N_7
REMARK    4  A    between atoms: N_7  and  C_8
REMARK                            x       y       z     vdW  Elec       q    Type
REMARK                         _______ _______ _______ _____ _____    ______ ____
ROOT
ATOM      1  C   UNL     1      -0.272  10.368  22.362  0.00  0.00    +0.000 A 
ATOM      2  C   UNL     1       0.613   9.397  22.822  0.00  0.00    +0.000 A 
ATOM      3  C   UNL     1       1.312   8.614  21.909  0.00  0.00    +0.000 A 
ATOM      4  C   UNL     1       1.125   8.797  20.530  0.00  0.00    +0.000 A 
ATOM      5  C   UNL     1       0.218   9.808  20.071  0.00  0.00    +0.000 A 
ATOM      6  C   UNL     1      -0.027  10.078  18.701  0.00  0.00    +0.000 A 
ATOM      7  C   UNL     1      -0.908  11.077  18.306  0.00  0.00    +0.000 A 
ATOM      8  C   UNL     1      -1.545  11.792  19.291  0.00  0.00    +0.000 A 
ATOM      9  N   UNL     1      -1.356  11.574  20.606  0.00  0.00    +0.000 NA
ATOM     10  C   UNL     1      -0.493  10.608  20.998  0.00  0.00    +0.000 A 
ENDROOT
BRANCH   1  11
ATOM     11  O   UNL     1      -0.954  11.129  23.289  0.00  0.00    +0.000 OA
ATOM     12  H   UNL     1      -0.391  11.275  24.063  0.00  0.00    +0.000 HD
ENDBRANCH   1  11
BRANCH   4  13
ATOM     13  C   UNL     1       1.858   7.933  19.518  0.00  0.00    +0.000 C 
BRANCH  13  14
ATOM     14  N   UNL     1       2.651   6.811  20.045  0.00  0.00    +0.000 NA
ATOM     15  H   UNL     1       2.909   7.005  21.011  0.00  0.00    +0.000 HD
BRANCH  14  16
ATOM     16  C   UNL     1       1.848   5.586  20.010  0.00  0.00    +0.000 C 
ATOM     17  C   UNL     1       1.880   4.761  21.316  0.00  0.00    +0.000 C 
ATOM     18  C   UNL     1       1.388   3.363  20.924  0.00  0.00    +0.000 C 
ATOM     19  C   UNL     1       1.957   3.255  19.544  0.00  0.00    +0.000 A 
ATOM     20  C   UNL     1       2.104   2.108  18.783  0.00  0.00    +0.000 A 
ATOM     21  C   UNL     1       2.642   2.234  17.502  0.00  0.00    +0.000 A 
ATOM     22  C   UNL     1       3.024   3.491  17.008  0.00  0.00    +0.000 A 
ATOM     23  C   UNL     1       2.843   4.650  17.773  0.00  0.00    +0.000 A 
ATOM     24  C   UNL     1       2.296   4.523  19.038  0.00  0.00    +0.000 A 
ENDBRANCH  14  16
ENDBRANCH  13  14
ENDBRANCH   4  13
TORSDOF 4
ENDMDL
MODEL 8
REMARK VINA RESULT:      -7.5      3.803      5.997
REMARK  Name = 
REMARK  4 active torsions:
REMARK  status: ('A' for Active; 'I' for Inactive)
REMARK    1  A    between atoms: O_1  and  C_2
REMARK    2  A    between atoms: C_5  and  C_6
REMARK    3  A    between atoms: C_6  and  N_7
REMARK    4  A    between atoms: N_7  and  C_8
REMARK                            x       y       z     vdW  Elec       q    Type
REMARK                         _______ _______ _______ _____ _____    ______ ____
ROOT
ATOM      1  C   UNL     1       1.967   9.680  18.253  0.00  0.00    +0.000 A 
ATOM      2  C   UNL     1       2.533   8.491  17.804  0.00  0.00    +0.000 A 
ATOM      3  C   UNL     1       2.476   7.354  18.603  0.00  0.00    +0.000 A 
ATOM      4  C   UNL     1       1.852   7.403  19.860  0.00  0.00    +0.000 A 
ATOM      5  C   UNL     1       1.263   8.633  20.306  0.00  0.00    +0.000 A 
ATOM      6  C   UNL     1       0.599   8.779  21.550  0.00  0.00    +0.000 A 
ATOM      7  C   UNL     1       0.035   9.990  21.931  0.00  0.00    +0.000 A 
ATOM      8  C   UNL     1       0.150  11.049  21.065  0.00  0.00    +0.000 A 
ATOM      9  N   UNL     1       0.774  10.969  19.875  0.00  0.00    +0.000 NA
ATOM     10  C   UNL     1       1.319   9.790  19.492  0.00  0.00    +0.000 A 
ENDROOT
BRANCH   1  11
ATOM     11  O   UNL     1       2.041  10.793  17.442  0.00  0.00    +0.000 OA
ATOM     12  H   UNL     1       1.730  11.569  17.930  0.00  0.00    +0.000 HD
ENDBRANCH   1  11
BRANCH   4  13
ATOM     13  C   UNL     1       1.802   6.181  20.759  0.00  0.00    +0.000 C 
BRANCH  13  14
ATOM     14  N   UNL     1       0.678   5.251  20.563  0.00  0.00    +0.000 NA
ATOM     15  H   UNL     1       0.248   5.429  19.659  0.00  0.00    +0.000 HD
BRANCH  14  16
ATOM     16  C   UNL     1       1.175   3.873  20.585  0.00  0.00    +0.000 C 
ATOM     17  C   UNL     1       2.196   3.577  21.706  0.00  0.00    +0.000 C 
ATOM     18  C   UNL     1       2.905   2.287  21.279  0.00  0.00    +0.000 C 
ATOM     19  C   UNL     1       2.930   2.472  19.794  0.00  0.00    +0.000 A 
ATOM     20  C   UNL     1       3.699   1.782  18.873  0.00  0.00    +0.000 A 
ATOM     21  C   UNL     1       3.550   2.100  17.524  0.00  0.00    +0.000 A 
ATOM     22  C   UNL     1       2.646   3.096  17.119  0.00  0.00    +0.000 A 
ATOM     23  C   UNL     1       1.849   3.767  18.054  0.00  0.00    +0.000 A 
ATOM     24  C   UNL     1       1.989   3.439  19.392  0.00  0.00    +0.000 A 
ENDBRANCH  14  16
ENDBRANCH  13  14
ENDBRANCH   4  13
TORSDOF 4
ENDMDL
MODEL 9
REMARK VINA RESULT:      -7.4      3.631      5.284
REMARK  Name = 
REMARK  4 active torsions:
REMARK  status: ('A' for Active; 'I' for Inactive)
REMARK    1  A    between atoms: O_1  and  C_2
REMARK    2  A    between atoms: C_5  and  C_6
REMARK    3  A    between atoms: C_6  and  N_7
REMARK    4  A    between atoms: N_7  and  C_8
REMARK                            x       y       z     vdW  Elec       q    Type
REMARK                         _______ _______ _______ _____ _____    ______ ____
ROOT
ATOM      1  C   UNL     1       4.541   3.769  18.992  0.00  0.00    +0.000 A 
ATOM      2  C   UNL     1       3.182   4.053  19.094  0.00  0.00    +0.000 A 
ATOM      3  C   UNL     1       2.703   5.291  18.678  0.00  0.00    +0.000 A 
ATOM      4  C   UNL     1       3.584   6.252  18.158  0.00  0.00    +0.000 A 
ATOM      5  C   UNL     1       4.980   5.942  18.049  0.00  0.00    +0.000 A 
ATOM      6  C   UNL     1       5.945   6.839  17.524  0.00  0.00    +0.000 A 
ATOM      7  C   UNL     1       7.285   6.486  17.429  0.00  0.00    +0.000 A 
ATOM      8  C   UNL     1       7.650   5.237  17.870  0.00  0.00    +0.000 A 
ATOM      9  N   UNL     1       6.778   4.348  18.382  0.00  0.00    +0.000 NA
ATOM     10  C   UNL     1       5.468   4.681  18.470  0.00  0.00    +0.000 A 
ENDROOT
BRANCH   1  11
ATOM     11  O   UNL     1       4.989   2.535  19.415  0.00  0.00    +0.000 OA
ATOM     12  H   UNL     1       4.546   1.839  18.906  0.00  0.00    +0.000 HD
ENDBRANCH   1  11
BRANCH   4  13
ATOM     13  C   UNL     1       3.086   7.619  17.724  0.00  0.00    +0.000 C 
BRANCH  13  14
ATOM     14  N   UNL     1       1.699   7.969  18.074  0.00  0.00    +0.000 NA
ATOM     15  H   UNL     1       1.179   7.118  18.277  0.00  0.00    +0.000 HD
BRANCH  14  16
ATOM     16  C   UNL     1       1.696   8.819  19.267  0.00  0.00    +0.000 C 
ATOM     17  C   UNL     1       1.556   8.050  20.600  0.00  0.00    +0.000 C 
ATOM     18  C   UNL     1       1.121   9.101  21.629  0.00  0.00    +0.000 C 
ATOM     19  C   UNL     1       0.262   9.977  20.772  0.00  0.00    +0.000 A 
ATOM     20  C   UNL     1      -0.650  10.930  21.192  0.00  0.00    +0.000 A 
ATOM     21  C   UNL     1      -1.335  11.657  20.220  0.00  0.00    +0.000 A 
ATOM     22  C   UNL     1      -1.103  11.421  18.855  0.00  0.00    +0.000 A 
ATOM     23  C   UNL     1      -0.156  10.478  18.439  0.00  0.00    +0.000 A 
ATOM     24  C   UNL     1       0.533   9.767  19.407  0.00  0.00    +0.000 A 
ENDBRANCH  14  16
ENDBRANCH  13  14
ENDBRANCH   4  13
TORSDOF 4
ENDMDL
