MODEL 1
REMARK VINA RESULT:      -9.0      0.000      0.000
REMARK  Name = 
REMARK  5 active torsions:
REMARK  status: ('A' for Active; 'I' for Inactive)
REMARK    1  A    between atoms: C_2  and  C_3
REMARK    2  A    between atoms: C_3  and  C_4
REMARK    3  A    between atoms: C_13  and  C_14
REMARK    4  A    between atoms: C_14  and  N_15
REMARK    5  A    between atoms: C_18  and  C_19
REMARK                            x       y       z     vdW  Elec       q    Type
REMARK                         _______ _______ _______ _____ _____    ______ ____
ROOT
ATOM      1  O   UNL     1       1.357   5.179  17.401  0.00  0.00    +0.000 OA
ATOM      2  C   UNL     1       1.929   5.432  18.462  0.00  0.00    +0.000 C 
ATOM      3  N   UNL     1       1.835   4.593  19.549  0.00  0.00    +0.000 N 
ATOM      4  C   UNL     1       1.180   3.300  19.402  0.00  0.00    +0.000 C 
ATOM      5  C   UNL     1       1.821   2.455  20.459  0.00  0.00    +0.000 C 
ATOM      6  C   UNL     1       3.330   2.306  20.624  0.00  0.00    +0.000 C 
ATOM      7  C   UNL     1       2.554   3.363  21.389  0.00  0.00    +0.000 C 
ATOM      8  C   UNL     1       2.411   4.771  20.879  0.00  0.00    +0.000 C 
ENDROOT
BRANCH   2   9
ATOM      9  C   UNL     1       2.796   6.681  18.578  0.00  0.00    +0.000 C 
BRANCH   9  10
ATOM     10  C   UNL     1       2.008   7.919  18.917  0.00  0.00    +0.000 A 
ATOM     11  C   UNL     1       1.595   8.161  20.233  0.00  0.00    +0.000 A 
ATOM     12  C   UNL     1       0.858   9.306  20.539  0.00  0.00    +0.000 A 
ATOM     13  C   UNL     1       0.532  10.219  19.536  0.00  0.00    +0.000 A 
ATOM     14  C   UNL     1       0.958   9.996  18.228  0.00  0.00    +0.000 A 
ATOM     15  C   UNL     1       1.695   8.854  17.921  0.00  0.00    +0.000 A 
ENDBRANCH   9  10
ENDBRANCH   2   9
BRANCH   6  16
ATOM     16  C   UNL     1       4.289   2.676  19.524  0.00  0.00    +0.000 C 
BRANCH  16  17
ATOM     17  N   UNL     1       4.895   3.966  19.803  0.00  0.00    +0.000 N 
ATOM     18  C   UNL     1       5.723   4.451  18.846  0.00  0.00    +0.000 A 
ATOM     19  N   UNL     1       5.600   4.203  17.564  0.00  0.00    +0.000 NA
ATOM     20  C   UNL     1       6.640   4.778  16.848  0.00  0.00    +0.000 A 
ATOM     21  C   UNL     1       7.558   5.465  17.620  0.00  0.00    +0.000 A 
ATOM     22  S   UNL     1       7.078   5.428  19.264  0.00  0.00    +0.000 S 
ATOM     23  H   UNL     1       5.244   4.062  20.751  0.00  0.00    +0.000 HD
BRANCH  20  24
ATOM     24  C   UNL     1       6.730   4.645  15.396  0.00  0.00    +0.000 A 
ATOM     25  C   UNL     1       5.862   3.784  14.724  0.00  0.00    +0.000 A 
ATOM     26  C   UNL     1       5.956   3.673  13.341  0.00  0.00    +0.000 A 
ATOM     27  C   UNL     1       6.912   4.419  12.667  0.00  0.00    +0.000 A 
ATOM     28  C   UNL     1       7.738   5.251  13.408  0.00  0.00    +0.000 A 
ATOM     29  N   UNL     1       7.668   5.382  14.753  0.00  0.00    +0.000 NA
ENDBRANCH  20  24
ENDBRANCH  16  17
ENDBRANCH   6  16
TORSDOF 5
ENDMDL
MODEL 2
REMARK VINA RESULT:      -8.4      2.744      7.394
REMARK  Name = 
REMARK  5 active torsions:
REMARK  status: ('A' for Active; 'I' for Inactive)
REMARK    1  A    between atoms: C_2  and  C_3
REMARK    2  A    between atoms: C_3  and  C_4
REMARK    3  A    between atoms: C_13  and  C_14
REMARK    4  A    between atoms: C_14  and  N_15
REMARK    5  A    between atoms: C_18  and  C_19
REMARK                            x       y       z     vdW  Elec       q    Type
REMARK                         _______ _______ _______ _____ _____    ______ ____
ROOT
ATOM      1  O   UNL     1       4.379   1.521  19.362  0.00  0.00    +0.000 OA
ATOM      2  C   UNL     1       3.769   2.294  18.622  0.00  0.00    +0.000 C 
ATOM      3  N   UNL     1       2.533   2.794  18.965  0.00  0.00    +0.000 N 
ATOM      4  C   UNL     1       1.999   2.535  20.295  0.00  0.00    +0.000 C 
ATOM      5  C   UNL     1       1.079   3.691  20.539  0.00  0.00    +0.000 C 
ATOM      6  C   UNL     1       1.490   5.151  20.372  0.00  0.00    +0.000 C 
ATOM      7  C   UNL     1       0.848   4.377  19.234  0.00  0.00    +0.000 C 
ATOM      8  C   UNL     1       1.669   3.675  18.185  0.00  0.00    +0.000 C 
ENDROOT
BRANCH   2   9
ATOM      9  C   UNL     1       4.400   2.748  17.311  0.00  0.00    +0.000 C 
BRANCH   9  10
ATOM     10  C   UNL     1       5.099   4.078  17.419  0.00  0.00    +0.000 A 
ATOM     11  C   UNL     1       4.941   5.047  16.421  0.00  0.00    +0.000 A 
ATOM     12  C   UNL     1       5.599   6.274  16.522  0.00  0.00    +0.000 A 
ATOM     13  C   UNL     1       6.414   6.543  17.621  0.00  0.00    +0.000 A 
ATOM     14  C   UNL     1       6.561   5.592  18.628  0.00  0.00    +0.000 A 
ATOM     15  C   UNL     1       5.903   4.367  18.529  0.00  0.00    +0.000 A 
ENDBRANCH   9  10
ENDBRANCH   2   9
BRANCH   6  16
ATOM     16  C   UNL     1       2.937   5.567  20.323  0.00  0.00    +0.000 C 
BRANCH  16  17
ATOM     17  N   UNL     1       3.143   6.528  19.254  0.00  0.00    +0.000 N 
ATOM     18  C   UNL     1       2.330   7.612  19.268  0.00  0.00    +0.000 A 
ATOM     19  N   UNL     1       1.825   8.146  20.355  0.00  0.00    +0.000 NA
ATOM     20  C   UNL     1       0.975   9.196  20.039  0.00  0.00    +0.000 A 
ATOM     21  C   UNL     1       0.846   9.444  18.686  0.00  0.00    +0.000 A 
ATOM     22  S   UNL     1       1.846   8.371  17.801  0.00  0.00    +0.000 S 
ATOM     23  H   UNL     1       3.271   6.108  18.339  0.00  0.00    +0.000 HD
BRANCH  20  24
ATOM     24  C   UNL     1       0.284   9.956  21.079  0.00  0.00    +0.000 A 
ATOM     25  C   UNL     1      -0.205   9.298  22.207  0.00  0.00    +0.000 A 
ATOM     26  C   UNL     1      -0.855  10.036  23.191  0.00  0.00    +0.000 A 
ATOM     27  C   UNL     1      -1.000  11.406  23.023  0.00  0.00    +0.000 A 
ATOM     28  C   UNL     1      -0.486  11.984  21.871  0.00  0.00    +0.000 A 
ATOM     29  N   UNL     1       0.153  11.293  20.899  0.00  0.00    +0.000 NA
ENDBRANCH  20  24
ENDBRANCH  16  17
ENDBRANCH   6  16
TORSDOF 5
ENDMDL
MODEL 3
REMARK VINA RESULT:      -8.3      2.679      7.697
REMARK  Name = 
REMARK  5 active torsions:
REMARK  status: ('A' for Active; 'I' for Inactive)
REMARK    1  A    between atoms: C_2  and  C_3
REMARK    2  A    between atoms: C_3  and  C_4
REMARK    3  A    between atoms: C_13  and  C_14
REMARK    4  A    between atoms: C_14  and  N_15
REMARK    5  A    between atoms: C_18  and  C_19
REMARK                            x       y       z     vdW  Elec       q    Type
REMARK                         _______ _______ _______ _____ _____    ______ ____
ROOT
ATOM      1  O   UNL     1       5.500   2.972  19.862  0.00  0.00    +0.000 OA
ATOM      2  C   UNL     1       4.874   3.739  19.130  0.00  0.00    +0.000 C 
ATOM      3  N   UNL     1       3.535   3.554  18.869  0.00  0.00    +0.000 N 
ATOM      4  C   UNL     1       2.800   2.526  19.593  0.00  0.00    +0.000 C 
ATOM      5  C   UNL     1       1.389   3.027  19.585  0.00  0.00    +0.000 C 
ATOM      6  C   UNL     1       0.986   4.428  20.032  0.00  0.00    +0.000 C 
ATOM      7  C   UNL     1       1.298   4.124  18.578  0.00  0.00    +0.000 C 
ATOM      8  C   UNL     1       2.669   4.340  17.996  0.00  0.00    +0.000 C 
ENDROOT
BRANCH   2   9
ATOM      9  C   UNL     1       5.574   4.949  18.521  0.00  0.00    +0.000 C 
BRANCH   9  10
ATOM     10  C   UNL     1       5.650   4.896  17.018  0.00  0.00    +0.000 A 
ATOM     11  C   UNL     1       6.040   3.719  16.367  0.00  0.00    +0.000 A 
ATOM     12  C   UNL     1       6.117   3.679  14.974  0.00  0.00    +0.000 A 
ATOM     13  C   UNL     1       5.801   4.810  14.221  0.00  0.00    +0.000 A 
ATOM     14  C   UNL     1       5.391   5.978  14.861  0.00  0.00    +0.000 A 
ATOM     15  C   UNL     1       5.312   6.020  16.252  0.00  0.00    +0.000 A 
ENDBRANCH   9  10
ENDBRANCH   2   9
BRANCH   6  16
ATOM     16  C   UNL     1       1.896   5.287  20.870  0.00  0.00    +0.000 C 
BRANCH  16  17
ATOM     17  N   UNL     1       2.612   6.226  20.025  0.00  0.00    +0.000 N 
ATOM     18  C   UNL     1       2.046   7.450  19.890  0.00  0.00    +0.000 A 
ATOM     19  N   UNL     1       1.312   8.033  20.807  0.00  0.00    +0.000 NA
ATOM     20  C   UNL     1       0.815   9.244  20.345  0.00  0.00    +0.000 A 
ATOM     21  C   UNL     1       1.189   9.563  19.054  0.00  0.00    +0.000 A 
ATOM     22  S   UNL     1       2.219   8.345  18.429  0.00  0.00    +0.000 S 
ATOM     23  H   UNL     1       2.959   5.824  19.162  0.00  0.00    +0.000 HD
BRANCH  20  24
ATOM     24  C   UNL     1      -0.035  10.087  21.182  0.00  0.00    +0.000 A 
ATOM     25  C   UNL     1      -0.301   9.712  22.499  0.00  0.00    +0.000 A 
ATOM     26  C   UNL     1      -1.108  10.529  23.284  0.00  0.00    +0.000 A 
ATOM     27  C   UNL     1      -1.626  11.693  22.738  0.00  0.00    +0.000 A 
ATOM     28  C   UNL     1      -1.315  11.995  21.420  0.00  0.00    +0.000 A 
ATOM     29  N   UNL     1      -0.532  11.222  20.632  0.00  0.00    +0.000 NA
ENDBRANCH  20  24
ENDBRANCH  16  17
ENDBRANCH   6  16
TORSDOF 5
ENDMDL
MODEL 4
REMARK VINA RESULT:      -8.2      2.751      7.389
REMARK  Name = 
REMARK  5 active torsions:
REMARK  status: ('A' for Active; 'I' for Inactive)
REMARK    1  A    between atoms: C_2  and  C_3
REMARK    2  A    between atoms: C_3  and  C_4
REMARK    3  A    between atoms: C_13  and  C_14
REMARK    4  A    between atoms: C_14  and  N_15
REMARK    5  A    between atoms: C_18  and  C_19
REMARK                            x       y       z     vdW  Elec       q    Type
REMARK                         _______ _______ _______ _____ _____    ______ ____
ROOT
ATOM      1  O   UNL     1       4.306   1.461  19.433  0.00  0.00    +0.000 OA
ATOM      2  C   UNL     1       3.732   2.231  18.662  0.00  0.00    +0.000 C 
ATOM      3  N   UNL     1       2.498   2.764  18.962  0.00  0.00    +0.000 N 
ATOM      4  C   UNL     1       1.925   2.543  20.282  0.00  0.00    +0.000 C 
ATOM      5  C   UNL     1       1.024   3.723  20.479  0.00  0.00    +0.000 C 
ATOM      6  C   UNL     1       1.471   5.170  20.294  0.00  0.00    +0.000 C 
ATOM      7  C   UNL     1       0.842   4.387  19.155  0.00  0.00    +0.000 C 
ATOM      8  C   UNL     1       1.674   3.647  18.143  0.00  0.00    +0.000 C 
ENDROOT
BRANCH   2   9
ATOM      9  C   UNL     1       4.407   2.645  17.359  0.00  0.00    +0.000 C 
BRANCH   9  10
ATOM     10  C   UNL     1       5.070   3.995  17.438  0.00  0.00    +0.000 A 
ATOM     11  C   UNL     1       5.893   4.321  18.523  0.00  0.00    +0.000 A 
ATOM     12  C   UNL     1       6.497   5.577  18.596  0.00  0.00    +0.000 A 
ATOM     13  C   UNL     1       6.290   6.514  17.584  0.00  0.00    +0.000 A 
ATOM     14  C   UNL     1       5.489   6.189  16.490  0.00  0.00    +0.000 A 
ATOM     15  C   UNL     1       4.886   4.935  16.415  0.00  0.00    +0.000 A 
ENDBRANCH   9  10
ENDBRANCH   2   9
BRANCH   6  16
ATOM     16  C   UNL     1       2.927   5.555  20.275  0.00  0.00    +0.000 C 
BRANCH  16  17
ATOM     17  N   UNL     1       3.163   6.562  19.257  0.00  0.00    +0.000 N 
ATOM     18  C   UNL     1       2.329   7.631  19.277  0.00  0.00    +0.000 A 
ATOM     19  N   UNL     1       1.765   8.110  20.360  0.00  0.00    +0.000 NA
ATOM     20  C   UNL     1       0.909   9.157  20.048  0.00  0.00    +0.000 A 
ATOM     21  C   UNL     1       0.837   9.458  18.702  0.00  0.00    +0.000 A 
ATOM     22  S   UNL     1       1.897   8.441  17.821  0.00  0.00    +0.000 S 
ATOM     23  H   UNL     1       3.340   6.184  18.333  0.00  0.00    +0.000 HD
BRANCH  20  24
ATOM     24  C   UNL     1       0.157   9.861  21.085  0.00  0.00    +0.000 A 
ATOM     25  C   UNL     1      -0.520  11.039  20.769  0.00  0.00    +0.000 A 
ATOM     26  C   UNL     1      -1.236  11.695  21.765  0.00  0.00    +0.000 A 
ATOM     27  C   UNL     1      -1.258  11.160  23.044  0.00  0.00    +0.000 A 
ATOM     28  C   UNL     1      -0.558   9.985  23.277  0.00  0.00    +0.000 A 
ATOM     29  N   UNL     1       0.145   9.323  22.329  0.00  0.00    +0.000 NA
ENDBRANCH  20  24
ENDBRANCH  16  17
ENDBRANCH   6  16
TORSDOF 5
ENDMDL
MODEL 5
REMARK VINA RESULT:      -8.1      1.912      2.735
REMARK  Name = 
REMARK  5 active torsions:
REMARK  status: ('A' for Active; 'I' for Inactive)
REMARK    1  A    between atoms: C_2  and  C_3
REMARK    2  A    between atoms: C_3  and  C_4
REMARK    3  A    between atoms: C_13  and  C_14
REMARK    4  A    between atoms: C_14  and  N_15
REMARK    5  A    between atoms: C_18  and  C_19
REMARK                            x       y       z     vdW  Elec       q    Type
REMARK                         _______ _______ _______ _____ _____    ______ ____
ROOT
ATOM      1  O   UNL     1       2.499   5.405  17.460  0.00  0.00    +0.000 OA
ATOM      2  C   UNL     1       2.355   5.551  18.674  0.00  0.00    +0.000 C 
ATOM      3  N   UNL     1       1.688   4.619  19.437  0.00  0.00    +0.000 N 
ATOM      4  C   UNL     1       1.280   3.358  18.834  0.00  0.00    +0.000 C 
ATOM      5  C   UNL     1       1.233   2.409  19.991  0.00  0.00    +0.000 C 
ATOM      6  C   UNL     1       2.383   2.217  20.975  0.00  0.00    +0.000 C 
ATOM      7  C   UNL     1       1.273   3.216  21.246  0.00  0.00    +0.000 C 
ATOM      8  C   UNL     1       1.396   4.667  20.867  0.00  0.00    +0.000 C 
ENDROOT
BRANCH   2   9
ATOM      9  C   UNL     1       2.956   6.767  19.370  0.00  0.00    +0.000 C 
BRANCH   9  10
ATOM     10  C   UNL     1       2.053   7.972  19.343  0.00  0.00    +0.000 A 
ATOM     11  C   UNL     1       1.372   8.377  20.497  0.00  0.00    +0.000 A 
ATOM     12  C   UNL     1       0.529   9.488  20.463  0.00  0.00    +0.000 A 
ATOM     13  C   UNL     1       0.363  10.206  19.279  0.00  0.00    +0.000 A 
ATOM     14  C   UNL     1       1.053   9.822  18.132  0.00  0.00    +0.000 A 
ATOM     15  C   UNL     1       1.896   8.713  18.164  0.00  0.00    +0.000 A 
ENDBRANCH   9  10
ENDBRANCH   2   9
BRANCH   6  16
ATOM     16  C   UNL     1       3.785   2.666  20.655  0.00  0.00    +0.000 C 
BRANCH  16  17
ATOM     17  N   UNL     1       4.207   2.112  19.381  0.00  0.00    +0.000 N 
ATOM     18  C   UNL     1       4.809   2.978  18.530  0.00  0.00    +0.000 A 
ATOM     19  N   UNL     1       5.519   4.014  18.906  0.00  0.00    +0.000 NA
ATOM     20  C   UNL     1       5.940   4.750  17.807  0.00  0.00    +0.000 A 
ATOM     21  C   UNL     1       5.528   4.246  16.588  0.00  0.00    +0.000 A 
ATOM     22  S   UNL     1       4.639   2.801  16.826  0.00  0.00    +0.000 S 
ATOM     23  H   UNL     1       3.523   1.501  18.948  0.00  0.00    +0.000 HD
BRANCH  20  24
ATOM     24  C   UNL     1       6.749   5.956  17.961  0.00  0.00    +0.000 A 
ATOM     25  C   UNL     1       6.488   7.071  17.164  0.00  0.00    +0.000 A 
ATOM     26  C   UNL     1       7.264   8.214  17.327  0.00  0.00    +0.000 A 
ATOM     27  C   UNL     1       8.275   8.216  18.276  0.00  0.00    +0.000 A 
ATOM     28  C   UNL     1       8.470   7.066  19.028  0.00  0.00    +0.000 A 
ATOM     29  N   UNL     1       7.731   5.940  18.895  0.00  0.00    +0.000 NA
ENDBRANCH  20  24
ENDBRANCH  16  17
ENDBRANCH   6  16
TORSDOF 5
ENDMDL
MODEL 6
REMARK VINA RESULT:      -8.1      1.355      1.716
REMARK  Name = 
REMARK  5 active torsions:
REMARK  status: ('A' for Active; 'I' for Inactive)
REMARK    1  A    between atoms: C_2  and  C_3
REMARK    2  A    between atoms: C_3  and  C_4
REMARK    3  A    between atoms: C_13  and  C_14
REMARK    4  A    between atoms: C_14  and  N_15
REMARK    5  A    between atoms: C_18  and  C_19
REMARK                            x       y       z     vdW  Elec       q    Type
REMARK                         _______ _______ _______ _____ _____    ______ ____
ROOT
ATOM      1  O   UNL     1       0.113   5.209  20.467  0.00  0.00    +0.000 OA
ATOM      2  C   UNL     1       1.320   4.981  20.551  0.00  0.00    +0.000 C 
ATOM      3  N   UNL     1       1.830   3.717  20.356  0.00  0.00    +0.000 N 
ATOM      4  C   UNL     1       0.952   2.655  19.884  0.00  0.00    +0.000 C 
ATOM      5  C   UNL     1       1.879   1.715  19.178  0.00  0.00    +0.000 C 
ATOM      6  C   UNL     1       2.865   2.151  18.098  0.00  0.00    +0.000 C 
ATOM      7  C   UNL     1       3.276   2.077  19.558  0.00  0.00    +0.000 C 
ATOM      8  C   UNL     1       3.218   3.277  20.464  0.00  0.00    +0.000 C 
ENDROOT
BRANCH   2   9
ATOM      9  C   UNL     1       2.290   6.121  20.840  0.00  0.00    +0.000 C 
BRANCH   9  10
ATOM     10  C   UNL     1       1.942   7.393  20.113  0.00  0.00    +0.000 A 
ATOM     11  C   UNL     1       1.257   8.423  20.769  0.00  0.00    +0.000 A 
ATOM     12  C   UNL     1       0.929   9.595  20.086  0.00  0.00    +0.000 A 
ATOM     13  C   UNL     1       1.287   9.750  18.747  0.00  0.00    +0.000 A 
ATOM     14  C   UNL     1       1.988   8.739  18.094  0.00  0.00    +0.000 A 
ATOM     15  C   UNL     1       2.317   7.568  18.774  0.00  0.00    +0.000 A 
ENDBRANCH   9  10
ENDBRANCH   2   9
BRANCH   6  16
ATOM     16  C   UNL     1       2.729   3.470  17.385  0.00  0.00    +0.000 C 
BRANCH  16  17
ATOM     17  N   UNL     1       3.630   4.447  17.969  0.00  0.00    +0.000 N 
ATOM     18  C   UNL     1       4.797   4.645  17.309  0.00  0.00    +0.000 A 
ATOM     19  N   UNL     1       4.948   4.511  16.013  0.00  0.00    +0.000 NA
ATOM     20  C   UNL     1       6.272   4.707  15.648  0.00  0.00    +0.000 A 
ATOM     21  C   UNL     1       7.122   4.991  16.699  0.00  0.00    +0.000 A 
ATOM     22  S   UNL     1       6.234   5.060  18.162  0.00  0.00    +0.000 S 
ATOM     23  H   UNL     1       3.722   4.375  18.976  0.00  0.00    +0.000 HD
BRANCH  20  24
ATOM     24  C   UNL     1       6.700   4.610  14.254  0.00  0.00    +0.000 A 
ATOM     25  C   UNL     1       6.094   3.682  13.407  0.00  0.00    +0.000 A 
ATOM     26  C   UNL     1       6.509   3.606  12.081  0.00  0.00    +0.000 A 
ATOM     27  C   UNL     1       7.514   4.453  11.637  0.00  0.00    +0.000 A 
ATOM     28  C   UNL     1       8.066   5.347  12.544  0.00  0.00    +0.000 A 
ATOM     29  N   UNL     1       7.682   5.447  13.838  0.00  0.00    +0.000 NA
ENDBRANCH  20  24
ENDBRANCH  16  17
ENDBRANCH   6  16
TORSDOF 5
ENDMDL
MODEL 7
REMARK VINA RESULT:      -8.1      2.603      7.908
REMARK  Name = 
REMARK  5 active torsions:
REMARK  status: ('A' for Active; 'I' for Inactive)
REMARK    1  A    between atoms: C_2  and  C_3
REMARK    2  A    between atoms: C_3  and  C_4
REMARK    3  A    between atoms: C_13  and  C_14
REMARK    4  A    between atoms: C_14  and  N_15
REMARK    5  A    between atoms: C_18  and  C_19
REMARK                            x       y       z     vdW  Elec       q    Type
REMARK                         _______ _______ _______ _____ _____    ______ ____
ROOT
ATOM      1  O   UNL     1       5.722   3.473  19.171  0.00  0.00    +0.000 OA
ATOM      2  C   UNL     1       4.887   4.144  18.563  0.00  0.00    +0.000 C 
ATOM      3  N   UNL     1       3.545   3.839  18.611  0.00  0.00    +0.000 N 
ATOM      4  C   UNL     1       3.078   2.801  19.520  0.00  0.00    +0.000 C 
ATOM      5  C   UNL     1       1.659   3.189  19.801  0.00  0.00    +0.000 C 
ATOM      6  C   UNL     1       1.238   4.579  20.268  0.00  0.00    +0.000 C 
ATOM      7  C   UNL     1       1.256   4.214  18.794  0.00  0.00    +0.000 C 
ATOM      8  C   UNL     1       2.445   4.501  17.917  0.00  0.00    +0.000 C 
ENDROOT
BRANCH   2   9
ATOM      9  C   UNL     1       5.328   5.366  17.767  0.00  0.00    +0.000 C 
BRANCH   9  10
ATOM     10  C   UNL     1       5.822   5.026  16.385  0.00  0.00    +0.000 A 
ATOM     11  C   UNL     1       4.967   4.431  15.450  0.00  0.00    +0.000 A 
ATOM     12  C   UNL     1       5.433   4.109  14.175  0.00  0.00    +0.000 A 
ATOM     13  C   UNL     1       6.754   4.385  13.822  0.00  0.00    +0.000 A 
ATOM     14  C   UNL     1       7.606   4.996  14.739  0.00  0.00    +0.000 A 
ATOM     15  C   UNL     1       7.142   5.319  16.013  0.00  0.00    +0.000 A 
ENDBRANCH   9  10
ENDBRANCH   2   9
BRANCH   6  16
ATOM     16  C   UNL     1       2.226   5.554  20.850  0.00  0.00    +0.000 C 
BRANCH  16  17
ATOM     17  N   UNL     1       2.700   6.459  19.817  0.00  0.00    +0.000 N 
ATOM     18  C   UNL     1       2.044   7.641  19.719  0.00  0.00    +0.000 A 
ATOM     19  N   UNL     1       1.473   8.257  20.726  0.00  0.00    +0.000 NA
ATOM     20  C   UNL     1       0.820   9.403  20.296  0.00  0.00    +0.000 A 
ATOM     21  C   UNL     1       0.908   9.639  18.938  0.00  0.00    +0.000 A 
ATOM     22  S   UNL     1       1.867   8.427  18.198  0.00  0.00    +0.000 S 
ATOM     23  H   UNL     1       2.893   6.008  18.929  0.00  0.00    +0.000 HD
BRANCH  20  24
ATOM     24  C   UNL     1       0.103  10.268  21.231  0.00  0.00    +0.000 A 
ATOM     25  C   UNL     1      -0.028  11.629  20.954  0.00  0.00    +0.000 A 
ATOM     26  C   UNL     1      -0.719  12.437  21.850  0.00  0.00    +0.000 A 
ATOM     27  C   UNL     1      -1.258  11.870  22.995  0.00  0.00    +0.000 A 
ATOM     28  C   UNL     1      -1.083  10.509  23.198  0.00  0.00    +0.000 A 
ATOM     29  N   UNL     1      -0.419   9.696  22.343  0.00  0.00    +0.000 NA
ENDBRANCH  20  24
ENDBRANCH  16  17
ENDBRANCH   6  16
TORSDOF 5
ENDMDL
MODEL 8
REMARK VINA RESULT:      -8.0      2.906      7.814
REMARK  Name = 
REMARK  5 active torsions:
REMARK  status: ('A' for Active; 'I' for Inactive)
REMARK    1  A    between atoms: C_2  and  C_3
REMARK    2  A    between atoms: C_3  and  C_4
REMARK    3  A    between atoms: C_13  and  C_14
REMARK    4  A    between atoms: C_14  and  N_15
REMARK    5  A    between atoms: C_18  and  C_19
REMARK                            x       y       z     vdW  Elec       q    Type
REMARK                         _______ _______ _______ _____ _____    ______ ____
ROOT
ATOM      1  O   UNL     1       5.212   2.726  19.950  0.00  0.00    +0.000 OA
ATOM      2  C   UNL     1       4.522   3.196  19.044  0.00  0.00    +0.000 C 
ATOM      3  N   UNL     1       3.174   3.421  19.208  0.00  0.00    +0.000 N 
ATOM      4  C   UNL     1       2.574   3.252  20.524  0.00  0.00    +0.000 C 
ATOM      5  C   UNL     1       1.389   4.167  20.494  0.00  0.00    +0.000 C 
ATOM      6  C   UNL     1       1.465   5.637  20.095  0.00  0.00    +0.000 C 
ATOM      7  C   UNL     1       1.148   4.558  19.074  0.00  0.00    +0.000 C 
ATOM      8  C   UNL     1       2.218   3.925  18.227  0.00  0.00    +0.000 C 
ENDROOT
BRANCH   2   9
ATOM      9  C   UNL     1       5.169   3.578  17.718  0.00  0.00    +0.000 C 
BRANCH   9  10
ATOM     10  C   UNL     1       5.952   4.863  17.789  0.00  0.00    +0.000 A 
ATOM     11  C   UNL     1       5.529   5.994  17.079  0.00  0.00    +0.000 A 
ATOM     12  C   UNL     1       6.265   7.178  17.142  0.00  0.00    +0.000 A 
ATOM     13  C   UNL     1       7.422   7.245  17.917  0.00  0.00    +0.000 A 
ATOM     14  C   UNL     1       7.837   6.131  18.643  0.00  0.00    +0.000 A 
ATOM     15  C   UNL     1       7.104   4.947  18.583  0.00  0.00    +0.000 A 
ENDBRANCH   9  10
ENDBRANCH   2   9
BRANCH   6  16
ATOM     16  C   UNL     1       2.771   6.386  20.068  0.00  0.00    +0.000 C 
BRANCH  16  17
ATOM     17  N   UNL     1       2.775   7.343  18.976  0.00  0.00    +0.000 N 
ATOM     18  C   UNL     1       1.853   8.333  19.053  0.00  0.00    +0.000 A 
ATOM     19  N   UNL     1       1.391   8.830  20.175  0.00  0.00    +0.000 NA
ATOM     20  C   UNL     1       0.406   9.775  19.928  0.00  0.00    +0.000 A 
ATOM     21  C   UNL     1       0.131   9.981  18.589  0.00  0.00    +0.000 A 
ATOM     22  S   UNL     1       1.159   9.005  17.628  0.00  0.00    +0.000 S 
ATOM     23  H   UNL     1       2.866   6.922  18.058  0.00  0.00    +0.000 HD
BRANCH  20  24
ATOM     24  C   UNL     1      -0.269  10.477  21.018  0.00  0.00    +0.000 A 
ATOM     25  C   UNL     1      -0.805  11.745  20.797  0.00  0.00    +0.000 A 
ATOM     26  C   UNL     1      -1.450  12.397  21.843  0.00  0.00    +0.000 A 
ATOM     27  C   UNL     1      -1.541  11.770  23.077  0.00  0.00    +0.000 A 
ATOM     28  C   UNL     1      -0.980  10.509  23.215  0.00  0.00    +0.000 A 
ATOM     29  N   UNL     1      -0.350   9.848  22.216  0.00  0.00    +0.000 NA
ENDBRANCH  20  24
ENDBRANCH  16  17
ENDBRANCH   6  16
TORSDOF 5
ENDMDL
MODEL 9
REMARK VINA RESULT:      -7.9      1.828      3.083
REMARK  Name = 
REMARK  5 active torsions:
REMARK  status: ('A' for Active; 'I' for Inactive)
REMARK    1  A    between atoms: C_2  and  C_3
REMARK    2  A    between atoms: C_3  and  C_4
REMARK    3  A    between atoms: C_13  and  C_14
REMARK    4  A    between atoms: C_14  and  N_15
REMARK    5  A    between atoms: C_18  and  C_19
REMARK                            x       y       z     vdW  Elec       q    Type
REMARK                         _______ _______ _______ _____ _____    ______ ____
ROOT
ATOM      1  O   UNL     1       2.352   6.279  17.278  0.00  0.00    +0.000 OA
ATOM      2  C   UNL     1       2.234   6.037  18.480  0.00  0.00    +0.000 C 
ATOM      3  N   UNL     1       1.628   4.884  18.926  0.00  0.00    +0.000 N 
ATOM      4  C   UNL     1       1.259   3.852  17.967  0.00  0.00    +0.000 C 
ATOM      5  C   UNL     1       1.283   2.592  18.776  0.00  0.00    +0.000 C 
ATOM      6  C   UNL     1       2.466   2.162  19.639  0.00  0.00    +0.000 C 
ATOM      7  C   UNL     1       1.321   2.974  20.218  0.00  0.00    +0.000 C 
ATOM      8  C   UNL     1       1.372   4.475  20.304  0.00  0.00    +0.000 C 
ENDROOT
BRANCH   2   9
ATOM      9  C   UNL     1       2.801   7.008  19.509  0.00  0.00    +0.000 C 
BRANCH   9  10
ATOM     10  C   UNL     1       1.828   8.088  19.904  0.00  0.00    +0.000 A 
ATOM     11  C   UNL     1       1.450   9.075  18.986  0.00  0.00    +0.000 A 
ATOM     12  C   UNL     1       0.556  10.079  19.360  0.00  0.00    +0.000 A 
ATOM     13  C   UNL     1       0.027  10.101  20.651  0.00  0.00    +0.000 A 
ATOM     14  C   UNL     1       0.382   9.110  21.564  0.00  0.00    +0.000 A 
ATOM     15  C   UNL     1       1.274   8.107  21.192  0.00  0.00    +0.000 A 
ENDBRANCH   9  10
ENDBRANCH   2   9
BRANCH   6  16
ATOM     16  C   UNL     1       3.838   2.756  19.457  0.00  0.00    +0.000 C 
BRANCH  16  17
ATOM     17  N   UNL     1       4.329   2.474  18.119  0.00  0.00    +0.000 N 
ATOM     18  C   UNL     1       4.968   3.495  17.497  0.00  0.00    +0.000 A 
ATOM     19  N   UNL     1       5.651   4.429  18.115  0.00  0.00    +0.000 NA
ATOM     20  C   UNL     1       6.123   5.373  17.214  0.00  0.00    +0.000 A 
ATOM     21  C   UNL     1       5.778   5.133  15.898  0.00  0.00    +0.000 A 
ATOM     22  S   UNL     1       4.888   3.674  15.786  0.00  0.00    +0.000 S 
ATOM     23  H   UNL     1       3.672   1.969  17.535  0.00  0.00    +0.000 HD
BRANCH  20  24
ATOM     24  C   UNL     1       6.915   6.518  17.655  0.00  0.00    +0.000 A 
ATOM     25  C   UNL     1       7.826   6.368  18.701  0.00  0.00    +0.000 A 
ATOM     26  C   UNL     1       8.577   7.467  19.106  0.00  0.00    +0.000 A 
ATOM     27  C   UNL     1       8.400   8.682  18.461  0.00  0.00    +0.000 A 
ATOM     28  C   UNL     1       7.473   8.748  17.430  0.00  0.00    +0.000 A 
ATOM     29  N   UNL     1       6.730   7.697  17.012  0.00  0.00    +0.000 NA
ENDBRANCH  20  24
ENDBRANCH  16  17
ENDBRANCH   6  16
TORSDOF 5
ENDMDL
