MODEL 1
REMARK VINA RESULT:      -9.0      0.000      0.000
REMARK  Name = 
REMARK  10 active torsions:
REMARK  status: ('A' for Active; 'I' for Inactive)
REMARK    1  A    between atoms: C_1  and  C_2
REMARK    2  A    between atoms: C_5  and  C_6
REMARK    3  A    between atoms: C_7  and  C_8
REMARK    4  A    between atoms: C_8  and  C_10
REMARK    5  A    between atoms: N_13  and  C_14
REMARK    6  A    between atoms: C_20  and  C_21
REMARK    7  A    between atoms: C_22  and  O_23
REMARK    8  A    between atoms: N_26  and  C_27
REMARK    9  A    between atoms: C_27  and  C_28
REMARK   10  A    between atoms: C_28  and  N_29
REMARK                            x       y       z     vdW  Elec       q    Type
REMARK                         _______ _______ _______ _____ _____    ______ ____
ROOT
ATOM      1  C   UNL     1       3.024   6.055  20.128  0.00  0.00    +0.000 C 
ATOM      2  C   UNL     1       4.048   6.157  19.050  0.00  0.00    +0.000 C 
ATOM      3  C   UNL     1       3.708   7.032  18.098  0.00  0.00    +0.000 C 
ATOM      4  C   UNL     1       2.424   7.640  18.518  0.00  0.00    +0.000 C 
ATOM      5  O   UNL     1       1.894   8.585  17.955  0.00  0.00    +0.000 OA
ATOM      6  N   UNL     1       1.996   6.973  19.659  0.00  0.00    +0.000 N 
ENDROOT
BRANCH   1  11
ATOM      7  C   UNL     1       0.623   2.108  18.753  0.00  0.00    +0.000 C 
ATOM      8  C   UNL     1       1.343   2.918  19.758  0.00  0.00    +0.000 A 
ATOM      9  C   UNL     1       1.532   2.795  21.116  0.00  0.00    +0.000 A 
ATOM     10  C   UNL     1       2.275   3.932  21.521  0.00  0.00    +0.000 A 
ATOM     11  C   UNL     1       2.478   4.692  20.386  0.00  0.00    +0.000 A 
ATOM     12  O   UNL     1       1.934   4.058  19.304  0.00  0.00    +0.000 OA
ENDBRANCH   1  11
BRANCH   2  13
ATOM     13  C   UNL     1       5.272   5.352  18.927  0.00  0.00    +0.000 C 
ATOM     14  O   UNL     1       5.688   4.716  19.895  0.00  0.00    +0.000 OA
BRANCH  13  15
ATOM     15  C   UNL     1       5.955   5.362  17.652  0.00  0.00    +0.000 A 
ATOM     16  C   UNL     1       7.079   6.088  17.225  0.00  0.00    +0.000 A 
ATOM     17  N   UNL     1       7.452   5.780  15.986  0.00  0.00    +0.000 NA
ATOM     18  N   UNL     1       6.478   4.951  15.529  0.00  0.00    +0.000 N 
ATOM     19  C   UNL     1       5.612   4.587  16.549  0.00  0.00    +0.000 A 
ATOM     20  C   UNL     1       4.635   3.463  16.482  0.00  0.00    +0.000 C 
BRANCH  18  21
ATOM     21  C   UNL     1       6.485   4.551  14.168  0.00  0.00    +0.000 A 
ATOM     22  C   UNL     1       7.528   4.987  13.340  0.00  0.00    +0.000 A 
ATOM     23  C   UNL     1       7.606   4.532  12.024  0.00  0.00    +0.000 A 
ATOM     24  C   UNL     1       6.622   3.682  11.519  0.00  0.00    +0.000 A 
ATOM     25  C   UNL     1       5.547   3.300  12.322  0.00  0.00    +0.000 A 
ATOM     26  C   UNL     1       5.475   3.732  13.647  0.00  0.00    +0.000 A 
ENDBRANCH  18  21
ENDBRANCH  13  15
ENDBRANCH   2  13
BRANCH   3  27
ATOM     27  O   UNL     1       4.387   7.372  16.962  0.00  0.00    +0.000 OA
ATOM     28  H   UNL     1       3.875   7.048  16.191  0.00  0.00    +0.000 HD
ENDBRANCH   3  27
BRANCH   6  29
ATOM     29  C   UNL     1       1.047   7.542  20.626  0.00  0.00    +0.000 C 
BRANCH  29  30
ATOM     30  C   UNL     1       0.601   9.004  20.393  0.00  0.00    +0.000 C 
BRANCH  30  31
ATOM     31  N   UNL     1       1.193   9.995  21.324  0.00  0.00    +0.000 NA
ATOM     32  C   UNL     1       1.096   9.506  22.724  0.00  0.00    +0.000 C 
ATOM     33  C   UNL     1      -0.327   9.576  23.312  0.00  0.00    +0.000 C 
ATOM     34  O   UNL     1      -0.833  10.915  23.268  0.00  0.00    +0.000 OA
ATOM     35  C   UNL     1      -0.837  11.414  21.926  0.00  0.00    +0.000 C 
ATOM     36  C   UNL     1       0.559  11.332  21.280  0.00  0.00    +0.000 C 
ENDBRANCH  30  31
ENDBRANCH  29  30
ENDBRANCH   6  29
TORSDOF 8
ENDMDL
MODEL 2
REMARK VINA RESULT:      -9.0      3.583     10.962
REMARK  Name = 
REMARK  10 active torsions:
REMARK  status: ('A' for Active; 'I' for Inactive)
REMARK    1  A    between atoms: C_1  and  C_2
REMARK    2  A    between atoms: C_5  and  C_6
REMARK    3  A    between atoms: C_7  and  C_8
REMARK    4  A    between atoms: C_8  and  C_10
REMARK    5  A    between atoms: N_13  and  C_14
REMARK    6  A    between atoms: C_20  and  C_21
REMARK    7  A    between atoms: C_22  and  O_23
REMARK    8  A    between atoms: N_26  and  C_27
REMARK    9  A    between atoms: C_27  and  C_28
REMARK   10  A    between atoms: C_28  and  N_29
REMARK                            x       y       z     vdW  Elec       q    Type
REMARK                         _______ _______ _______ _____ _____    ______ ____
ROOT
ATOM      1  C   UNL     1       0.521  10.760  19.638  0.00  0.00    +0.000 C 
ATOM      2  C   UNL     1       0.395  11.004  21.102  0.00  0.00    +0.000 C 
ATOM      3  C   UNL     1       0.680   9.920  21.830  0.00  0.00    +0.000 C 
ATOM      4  C   UNL     1       1.090   8.862  20.878  0.00  0.00    +0.000 C 
ATOM      5  O   UNL     1       1.557   7.783  21.207  0.00  0.00    +0.000 OA
ATOM      6  N   UNL     1       0.887   9.352  19.593  0.00  0.00    +0.000 N 
ENDROOT
BRANCH   1  11
ATOM      7  C   UNL     1      -3.657   9.443  17.628  0.00  0.00    +0.000 C 
ATOM      8  C   UNL     1      -2.573  10.416  17.873  0.00  0.00    +0.000 A 
ATOM      9  C   UNL     1      -2.263  11.645  17.335  0.00  0.00    +0.000 A 
ATOM     10  C   UNL     1      -1.057  12.059  17.954  0.00  0.00    +0.000 A 
ATOM     11  C   UNL     1      -0.692  11.046  18.819  0.00  0.00    +0.000 A 
ATOM     12  O   UNL     1      -1.634  10.056  18.791  0.00  0.00    +0.000 OA
ENDBRANCH   1  11
BRANCH   2  13
ATOM     13  C   UNL     1      -0.077  12.239  21.746  0.00  0.00    +0.000 C 
ATOM     14  O   UNL     1       0.692  13.188  21.889  0.00  0.00    +0.000 OA
BRANCH  13  15
ATOM     15  C   UNL     1      -1.447  12.270  22.210  0.00  0.00    +0.000 A 
ATOM     16  C   UNL     1      -2.049  11.651  23.318  0.00  0.00    +0.000 A 
ATOM     17  N   UNL     1      -3.334  11.968  23.451  0.00  0.00    +0.000 NA
ATOM     18  N   UNL     1      -3.629  12.685  22.336  0.00  0.00    +0.000 N 
ATOM     19  C   UNL     1      -2.483  12.983  21.615  0.00  0.00    +0.000 A 
ATOM     20  C   UNL     1      -2.394  14.001  20.530  0.00  0.00    +0.000 C 
BRANCH  18  21
ATOM     21  C   UNL     1      -4.975  13.055  22.081  0.00  0.00    +0.000 A 
ATOM     22  C   UNL     1      -5.569  14.038  22.882  0.00  0.00    +0.000 A 
ATOM     23  C   UNL     1      -6.859  14.484  22.591  0.00  0.00    +0.000 A 
ATOM     24  C   UNL     1      -7.573  13.918  21.536  0.00  0.00    +0.000 A 
ATOM     25  C   UNL     1      -7.006  12.892  20.779  0.00  0.00    +0.000 A 
ATOM     26  C   UNL     1      -5.708  12.457  21.048  0.00  0.00    +0.000 A 
ENDBRANCH  18  21
ENDBRANCH  13  15
ENDBRANCH   2  13
BRANCH   3  27
ATOM     27  O   UNL     1       0.657   9.767  23.188  0.00  0.00    +0.000 OA
ATOM     28  H   UNL     1       0.135   8.964  23.397  0.00  0.00    +0.000 HD
ENDBRANCH   3  27
BRANCH   6  29
ATOM     29  C   UNL     1       1.572   8.826  18.405  0.00  0.00    +0.000 C 
BRANCH  29  30
ATOM     30  C   UNL     1       2.802   7.920  18.647  0.00  0.00    +0.000 C 
BRANCH  30  31
ATOM     31  N   UNL     1       2.821   6.666  17.858  0.00  0.00    +0.000 NA
ATOM     32  C   UNL     1       2.331   5.532  18.683  0.00  0.00    +0.000 C 
ATOM     33  C   UNL     1       3.336   5.055  19.750  0.00  0.00    +0.000 C 
ATOM     34  O   UNL     1       4.576   4.668  19.146  0.00  0.00    +0.000 OA
ATOM     35  C   UNL     1       5.138   5.752  18.398  0.00  0.00    +0.000 C 
ATOM     36  C   UNL     1       4.156   6.288  17.340  0.00  0.00    +0.000 C 
ENDBRANCH  30  31
ENDBRANCH  29  30
ENDBRANCH   6  29
TORSDOF 8
ENDMDL
MODEL 3
REMARK VINA RESULT:      -8.9      3.665      9.701
REMARK  Name = 
REMARK  10 active torsions:
REMARK  status: ('A' for Active; 'I' for Inactive)
REMARK    1  A    between atoms: C_1  and  C_2
REMARK    2  A    between atoms: C_5  and  C_6
REMARK    3  A    between atoms: C_7  and  C_8
REMARK    4  A    between atoms: C_8  and  C_10
REMARK    5  A    between atoms: N_13  and  C_14
REMARK    6  A    between atoms: C_20  and  C_21
REMARK    7  A    between atoms: C_22  and  O_23
REMARK    8  A    between atoms: N_26  and  C_27
REMARK    9  A    between atoms: C_27  and  C_28
REMARK   10  A    between atoms: C_28  and  N_29
REMARK                            x       y       z     vdW  Elec       q    Type
REMARK                         _______ _______ _______ _____ _____    ______ ____
ROOT
ATOM      1  C   UNL     1       0.665   8.755  19.554  0.00  0.00    +0.000 C 
ATOM      2  C   UNL     1       0.869   9.937  18.670  0.00  0.00    +0.000 C 
ATOM      3  C   UNL     1       1.993   9.854  17.950  0.00  0.00    +0.000 C 
ATOM      4  C   UNL     1       2.603   8.541  18.264  0.00  0.00    +0.000 C 
ATOM      5  O   UNL     1       3.565   8.072  17.678  0.00  0.00    +0.000 OA
ATOM      6  N   UNL     1       1.857   7.964  19.285  0.00  0.00    +0.000 N 
ENDROOT
BRANCH   1  11
ATOM      7  C   UNL     1      -1.485  11.022  23.224  0.00  0.00    +0.000 C 
ATOM      8  C   UNL     1      -0.458  10.118  22.666  0.00  0.00    +0.000 A 
ATOM      9  C   UNL     1       0.655   9.505  23.197  0.00  0.00    +0.000 A 
ATOM     10  C   UNL     1       1.269   8.800  22.131  0.00  0.00    +0.000 A 
ATOM     11  C   UNL     1       0.504   9.043  21.008  0.00  0.00    +0.000 A 
ATOM     12  O   UNL     1      -0.567   9.824  21.341  0.00  0.00    +0.000 OA
ENDBRANCH   1  11
BRANCH   2  13
ATOM     13  C   UNL     1       0.028  11.142  18.612  0.00  0.00    +0.000 C 
ATOM     14  O   UNL     1       0.515  12.242  18.871  0.00  0.00    +0.000 OA
BRANCH  13  15
ATOM     15  C   UNL     1      -1.366  10.969  18.267  0.00  0.00    +0.000 A 
ATOM     16  C   UNL     1      -1.980  10.079  17.370  0.00  0.00    +0.000 A 
ATOM     17  N   UNL     1      -3.306  10.180  17.369  0.00  0.00    +0.000 NA
ATOM     18  N   UNL     1      -3.570  11.250  18.162  0.00  0.00    +0.000 N 
ATOM     19  C   UNL     1      -2.426  11.685  18.813  0.00  0.00    +0.000 A 
ATOM     20  C   UNL     1      -2.404  12.616  19.977  0.00  0.00    +0.000 C 
BRANCH  18  21
ATOM     21  C   UNL     1      -4.900  11.736  18.257  0.00  0.00    +0.000 A 
ATOM     22  C   UNL     1      -5.477  12.349  17.138  0.00  0.00    +0.000 A 
ATOM     23  C   UNL     1      -6.812  12.751  17.179  0.00  0.00    +0.000 A 
ATOM     24  C   UNL     1      -7.557  12.586  18.346  0.00  0.00    +0.000 A 
ATOM     25  C   UNL     1      -6.963  12.036  19.483  0.00  0.00    +0.000 A 
ATOM     26  C   UNL     1      -5.635  11.609  19.443  0.00  0.00    +0.000 A 
ENDBRANCH  18  21
ENDBRANCH  13  15
ENDBRANCH   2  13
BRANCH   3  27
ATOM     27  O   UNL     1       2.507  10.748  17.054  0.00  0.00    +0.000 OA
ATOM     28  H   UNL     1       2.735  10.262  16.234  0.00  0.00    +0.000 HD
ENDBRANCH   3  27
BRANCH   6  29
ATOM     29  C   UNL     1       1.839   6.522  19.564  0.00  0.00    +0.000 C 
BRANCH  29  30
ATOM     30  C   UNL     1       3.208   5.825  19.741  0.00  0.00    +0.000 C 
BRANCH  30  31
ATOM     31  N   UNL     1       3.145   4.353  19.907  0.00  0.00    +0.000 NA
ATOM     32  C   UNL     1       4.387   3.724  19.388  0.00  0.00    +0.000 C 
ATOM     33  C   UNL     1       4.478   3.700  17.850  0.00  0.00    +0.000 C 
ATOM     34  O   UNL     1       3.356   3.013  17.282  0.00  0.00    +0.000 OA
ATOM     35  C   UNL     1       2.127   3.626  17.686  0.00  0.00    +0.000 C 
ATOM     36  C   UNL     1       2.004   3.707  19.219  0.00  0.00    +0.000 C 
ENDBRANCH  30  31
ENDBRANCH  29  30
ENDBRANCH   6  29
TORSDOF 8
ENDMDL
MODEL 4
REMARK VINA RESULT:      -8.9      0.920      1.539
REMARK  Name = 
REMARK  10 active torsions:
REMARK  status: ('A' for Active; 'I' for Inactive)
REMARK    1  A    between atoms: C_1  and  C_2
REMARK    2  A    between atoms: C_5  and  C_6
REMARK    3  A    between atoms: C_7  and  C_8
REMARK    4  A    between atoms: C_8  and  C_10
REMARK    5  A    between atoms: N_13  and  C_14
REMARK    6  A    between atoms: C_20  and  C_21
REMARK    7  A    between atoms: C_22  and  O_23
REMARK    8  A    between atoms: N_26  and  C_27
REMARK    9  A    between atoms: C_27  and  C_28
REMARK   10  A    between atoms: C_28  and  N_29
REMARK                            x       y       z     vdW  Elec       q    Type
REMARK                         _______ _______ _______ _____ _____    ______ ____
ROOT
ATOM      1  C   UNL     1       3.045   6.115  20.069  0.00  0.00    +0.000 C 
ATOM      2  C   UNL     1       4.075   6.185  18.995  0.00  0.00    +0.000 C 
ATOM      3  C   UNL     1       3.743   7.034  18.018  0.00  0.00    +0.000 C 
ATOM      4  C   UNL     1       2.459   7.658  18.413  0.00  0.00    +0.000 C 
ATOM      5  O   UNL     1       1.935   8.589  17.822  0.00  0.00    +0.000 OA
ATOM      6  N   UNL     1       2.022   7.023  19.570  0.00  0.00    +0.000 N 
ENDROOT
BRANCH   1  11
ATOM      7  C   UNL     1       0.658   2.131  18.781  0.00  0.00    +0.000 C 
ATOM      8  C   UNL     1       1.364   2.971  19.771  0.00  0.00    +0.000 A 
ATOM      9  C   UNL     1       1.532   2.888  21.135  0.00  0.00    +0.000 A 
ATOM     10  C   UNL     1       2.271   4.037  21.516  0.00  0.00    +0.000 A 
ATOM     11  C   UNL     1       2.492   4.761  20.361  0.00  0.00    +0.000 A 
ATOM     12  O   UNL     1       1.964   4.095  19.291  0.00  0.00    +0.000 OA
ENDBRANCH   1  11
BRANCH   2  13
ATOM     13  C   UNL     1       5.297   5.372  18.901  0.00  0.00    +0.000 C 
ATOM     14  O   UNL     1       5.670   4.712  19.870  0.00  0.00    +0.000 OA
BRANCH  13  15
ATOM     15  C   UNL     1       6.028   5.405  17.653  0.00  0.00    +0.000 A 
ATOM     16  C   UNL     1       7.149   6.162  17.273  0.00  0.00    +0.000 A 
ATOM     17  N   UNL     1       7.579   5.869  16.049  0.00  0.00    +0.000 NA
ATOM     18  N   UNL     1       6.645   5.018  15.551  0.00  0.00    +0.000 N 
ATOM     19  C   UNL     1       5.749   4.627  16.535  0.00  0.00    +0.000 A 
ATOM     20  C   UNL     1       4.805   3.479  16.426  0.00  0.00    +0.000 C 
BRANCH  18  21
ATOM     21  C   UNL     1       6.715   4.624  14.191  0.00  0.00    +0.000 A 
ATOM     22  C   UNL     1       5.835   3.638  13.725  0.00  0.00    +0.000 A 
ATOM     23  C   UNL     1       5.823   3.300  12.372  0.00  0.00    +0.000 A 
ATOM     24  C   UNL     1       6.718   3.909  11.492  0.00  0.00    +0.000 A 
ATOM     25  C   UNL     1       7.640   4.843  11.966  0.00  0.00    +0.000 A 
ATOM     26  C   UNL     1       7.642   5.203  13.314  0.00  0.00    +0.000 A 
ENDBRANCH  18  21
ENDBRANCH  13  15
ENDBRANCH   2  13
BRANCH   3  27
ATOM     27  O   UNL     1       4.430   7.342  16.877  0.00  0.00    +0.000 OA
ATOM     28  H   UNL     1       4.227   6.657  16.205  0.00  0.00    +0.000 HD
ENDBRANCH   3  27
BRANCH   6  29
ATOM     29  C   UNL     1       1.070   7.621  20.515  0.00  0.00    +0.000 C 
BRANCH  29  30
ATOM     30  C   UNL     1       1.065   9.163  20.624  0.00  0.00    +0.000 C 
BRANCH  30  31
ATOM     31  N   UNL     1      -0.280   9.780  20.726  0.00  0.00    +0.000 NA
ATOM     32  C   UNL     1      -0.712  10.291  19.399  0.00  0.00    +0.000 C 
ATOM     33  C   UNL     1       0.013  11.578  18.960  0.00  0.00    +0.000 C 
ATOM     34  O   UNL     1      -0.171  12.622  19.925  0.00  0.00    +0.000 OA
ATOM     35  C   UNL     1       0.303  12.213  21.213  0.00  0.00    +0.000 C 
ATOM     36  C   UNL     1      -0.367  10.908  21.681  0.00  0.00    +0.000 C 
ENDBRANCH  30  31
ENDBRANCH  29  30
ENDBRANCH   6  29
TORSDOF 8
ENDMDL
MODEL 5
REMARK VINA RESULT:      -8.9      3.583      7.186
REMARK  Name = 
REMARK  10 active torsions:
REMARK  status: ('A' for Active; 'I' for Inactive)
REMARK    1  A    between atoms: C_1  and  C_2
REMARK    2  A    between atoms: C_5  and  C_6
REMARK    3  A    between atoms: C_7  and  C_8
REMARK    4  A    between atoms: C_8  and  C_10
REMARK    5  A    between atoms: N_13  and  C_14
REMARK    6  A    between atoms: C_20  and  C_21
REMARK    7  A    between atoms: C_22  and  O_23
REMARK    8  A    between atoms: N_26  and  C_27
REMARK    9  A    between atoms: C_27  and  C_28
REMARK   10  A    between atoms: C_28  and  N_29
REMARK                            x       y       z     vdW  Elec       q    Type
REMARK                         _______ _______ _______ _____ _____    ______ ____
ROOT
ATOM      1  C   UNL     1       0.077  11.343  20.209  0.00  0.00    +0.000 C 
ATOM      2  C   UNL     1       0.238  10.328  21.288  0.00  0.00    +0.000 C 
ATOM      3  C   UNL     1      -0.673  10.459  22.258  0.00  0.00    +0.000 C 
ATOM      4  C   UNL     1      -1.573  11.562  21.851  0.00  0.00    +0.000 C 
ATOM      5  O   UNL     1      -2.604  11.859  22.433  0.00  0.00    +0.000 OA
ATOM      6  N   UNL     1      -1.047  12.130  20.696  0.00  0.00    +0.000 N 
ENDROOT
BRANCH   1  11
ATOM      7  C   UNL     1       3.531  14.415  21.573  0.00  0.00    +0.000 C 
ATOM      8  C   UNL     1       2.810  13.626  20.553  0.00  0.00    +0.000 A 
ATOM      9  C   UNL     1       2.858  13.587  19.177  0.00  0.00    +0.000 A 
ATOM     10  C   UNL     1       1.873  12.652  18.770  0.00  0.00    +0.000 A 
ATOM     11  C   UNL     1       1.269  12.192  19.924  0.00  0.00    +0.000 A 
ATOM     12  O   UNL     1       1.861  12.765  21.014  0.00  0.00    +0.000 OA
ENDBRANCH   1  11
BRANCH   2  13
ATOM     13  C   UNL     1       1.310   9.328  21.394  0.00  0.00    +0.000 C 
ATOM     14  O   UNL     1       1.865   9.136  22.476  0.00  0.00    +0.000 OA
BRANCH  13  15
ATOM     15  C   UNL     1       1.684   8.616  20.191  0.00  0.00    +0.000 A 
ATOM     16  C   UNL     1       1.830   9.072  18.870  0.00  0.00    +0.000 A 
ATOM     17  N   UNL     1       2.251   8.123  18.040  0.00  0.00    +0.000 NA
ATOM     18  N   UNL     1       2.240   6.986  18.783  0.00  0.00    +0.000 N 
ATOM     19  C   UNL     1       2.009   7.266  20.122  0.00  0.00    +0.000 A 
ATOM     20  C   UNL     1       2.240   6.317  21.247  0.00  0.00    +0.000 C 
BRANCH  18  21
ATOM     21  C   UNL     1       2.491   5.739  18.155  0.00  0.00    +0.000 A 
ATOM     22  C   UNL     1       3.755   5.505  17.597  0.00  0.00    +0.000 A 
ATOM     23  C   UNL     1       4.054   4.255  17.056  0.00  0.00    +0.000 A 
ATOM     24  C   UNL     1       3.082   3.255  17.028  0.00  0.00    +0.000 A 
ATOM     25  C   UNL     1       1.803   3.508  17.523  0.00  0.00    +0.000 A 
ATOM     26  C   UNL     1       1.503   4.749  18.087  0.00  0.00    +0.000 A 
ENDBRANCH  18  21
ENDBRANCH  13  15
ENDBRANCH   2  13
BRANCH   3  27
ATOM     27  O   UNL     1      -0.822   9.723  23.400  0.00  0.00    +0.000 OA
ATOM     28  H   UNL     1      -0.281  10.139  24.104  0.00  0.00    +0.000 HD
ENDBRANCH   3  27
BRANCH   6  29
ATOM     29  C   UNL     1      -1.841  12.915  19.742  0.00  0.00    +0.000 C 
BRANCH  29  30
ATOM     30  C   UNL     1      -2.017  12.325  18.323  0.00  0.00    +0.000 C 
BRANCH  30  31
ATOM     31  N   UNL     1      -2.749  11.037  18.267  0.00  0.00    +0.000 NA
ATOM     32  C   UNL     1      -2.258  10.217  17.129  0.00  0.00    +0.000 C 
ATOM     33  C   UNL     1      -2.728  10.719  15.750  0.00  0.00    +0.000 C 
ATOM     34  O   UNL     1      -4.159  10.768  15.684  0.00  0.00    +0.000 OA
ATOM     35  C   UNL     1      -4.686  11.612  16.714  0.00  0.00    +0.000 C 
ATOM     36  C   UNL     1      -4.215  11.171  18.112  0.00  0.00    +0.000 C 
ENDBRANCH  30  31
ENDBRANCH  29  30
ENDBRANCH   6  29
TORSDOF 8
ENDMDL
MODEL 6
REMARK VINA RESULT:      -8.9      4.301      7.451
REMARK  Name = 
REMARK  10 active torsions:
REMARK  status: ('A' for Active; 'I' for Inactive)
REMARK    1  A    between atoms: C_1  and  C_2
REMARK    2  A    between atoms: C_5  and  C_6
REMARK    3  A    between atoms: C_7  and  C_8
REMARK    4  A    between atoms: C_8  and  C_10
REMARK    5  A    between atoms: N_13  and  C_14
REMARK    6  A    between atoms: C_20  and  C_21
REMARK    7  A    between atoms: C_22  and  O_23
REMARK    8  A    between atoms: N_26  and  C_27
REMARK    9  A    between atoms: C_27  and  C_28
REMARK   10  A    between atoms: C_28  and  N_29
REMARK                            x       y       z     vdW  Elec       q    Type
REMARK                         _______ _______ _______ _____ _____    ______ ____
ROOT
ATOM      1  C   UNL     1      -1.113  11.389  19.688  0.00  0.00    +0.000 C 
ATOM      2  C   UNL     1       0.359  11.598  19.605  0.00  0.00    +0.000 C 
ATOM      3  C   UNL     1       0.728  12.823  19.996  0.00  0.00    +0.000 C 
ATOM      4  C   UNL     1      -0.503  13.516  20.442  0.00  0.00    +0.000 C 
ATOM      5  O   UNL     1      -0.518  14.603  20.997  0.00  0.00    +0.000 OA
ATOM      6  N   UNL     1      -1.581  12.687  20.152  0.00  0.00    +0.000 N 
ENDROOT
BRANCH   1  11
ATOM      7  C   UNL     1      -4.764  11.611  16.548  0.00  0.00    +0.000 C 
ATOM      8  C   UNL     1      -3.482  11.054  17.027  0.00  0.00    +0.000 A 
ATOM      9  C   UNL     1      -2.712   9.980  16.639  0.00  0.00    +0.000 A 
ATOM     10  C   UNL     1      -1.612   9.934  17.533  0.00  0.00    +0.000 A 
ATOM     11  C   UNL     1      -1.789  10.973  18.426  0.00  0.00    +0.000 A 
ATOM     12  O   UNL     1      -2.915  11.674  18.098  0.00  0.00    +0.000 OA
ENDBRANCH   1  11
BRANCH   2  13
ATOM     13  C   UNL     1       1.349  10.651  19.072  0.00  0.00    +0.000 C 
ATOM     14  O   UNL     1       2.050  10.971  18.113  0.00  0.00    +0.000 OA
BRANCH  13  15
ATOM     15  C   UNL     1       1.438   9.351  19.702  0.00  0.00    +0.000 A 
ATOM     16  C   UNL     1       1.080   8.938  20.996  0.00  0.00    +0.000 A 
ATOM     17  N   UNL     1       1.256   7.635  21.189  0.00  0.00    +0.000 NA
ATOM     18  N   UNL     1       1.880   7.201  20.063  0.00  0.00    +0.000 N 
ATOM     19  C   UNL     1       1.907   8.192  19.094  0.00  0.00    +0.000 A 
ATOM     20  C   UNL     1       2.222   7.972  17.654  0.00  0.00    +0.000 C 
BRANCH  18  21
ATOM     21  C   UNL     1       2.359   5.867  20.001  0.00  0.00    +0.000 A 
ATOM     22  C   UNL     1       1.515   4.826  20.408  0.00  0.00    +0.000 A 
ATOM     23  C   UNL     1       1.931   3.502  20.269  0.00  0.00    +0.000 A 
ATOM     24  C   UNL     1       3.202   3.216  19.771  0.00  0.00    +0.000 A 
ATOM     25  C   UNL     1       4.068   4.254  19.428  0.00  0.00    +0.000 A 
ATOM     26  C   UNL     1       3.651   5.581  19.542  0.00  0.00    +0.000 A 
ENDBRANCH  18  21
ENDBRANCH  13  15
ENDBRANCH   2  13
BRANCH   3  27
ATOM     27  O   UNL     1       1.979  13.370  20.040  0.00  0.00    +0.000 OA
ATOM     28  H   UNL     1       1.953  14.231  19.572  0.00  0.00    +0.000 HD
ENDBRANCH   3  27
BRANCH   6  29
ATOM     29  C   UNL     1      -2.884  12.783  20.823  0.00  0.00    +0.000 C 
BRANCH  29  30
ATOM     30  C   UNL     1      -2.931  12.400  22.321  0.00  0.00    +0.000 C 
BRANCH  30  31
ATOM     31  N   UNL     1      -4.241  12.610  22.980  0.00  0.00    +0.000 NA
ATOM     32  C   UNL     1      -4.887  13.842  22.458  0.00  0.00    +0.000 C 
ATOM     33  C   UNL     1      -4.248  15.148  22.971  0.00  0.00    +0.000 C 
ATOM     34  O   UNL     1      -4.273  15.200  24.403  0.00  0.00    +0.000 OA
ATOM     35  C   UNL     1      -3.593  14.072  24.965  0.00  0.00    +0.000 C 
ATOM     36  C   UNL     1      -4.174  12.741  24.454  0.00  0.00    +0.000 C 
ENDBRANCH  30  31
ENDBRANCH  29  30
ENDBRANCH   6  29
TORSDOF 8
ENDMDL
MODEL 7
REMARK VINA RESULT:      -8.9      3.930      9.614
REMARK  Name = 
REMARK  10 active torsions:
REMARK  status: ('A' for Active; 'I' for Inactive)
REMARK    1  A    between atoms: C_1  and  C_2
REMARK    2  A    between atoms: C_5  and  C_6
REMARK    3  A    between atoms: C_7  and  C_8
REMARK    4  A    between atoms: C_8  and  C_10
REMARK    5  A    between atoms: N_13  and  C_14
REMARK    6  A    between atoms: C_20  and  C_21
REMARK    7  A    between atoms: C_22  and  O_23
REMARK    8  A    between atoms: N_26  and  C_27
REMARK    9  A    between atoms: C_27  and  C_28
REMARK   10  A    between atoms: C_28  and  N_29
REMARK                            x       y       z     vdW  Elec       q    Type
REMARK                         _______ _______ _______ _____ _____    ______ ____
ROOT
ATOM      1  C   UNL     1       0.606   8.738  19.706  0.00  0.00    +0.000 C 
ATOM      2  C   UNL     1       0.804   9.865  18.752  0.00  0.00    +0.000 C 
ATOM      3  C   UNL     1       1.930   9.744  18.041  0.00  0.00    +0.000 C 
ATOM      4  C   UNL     1       2.548   8.458  18.436  0.00  0.00    +0.000 C 
ATOM      5  O   UNL     1       3.514   7.960  17.881  0.00  0.00    +0.000 OA
ATOM      6  N   UNL     1       1.803   7.940  19.489  0.00  0.00    +0.000 N 
ENDROOT
BRANCH   1  11
ATOM      7  C   UNL     1      -1.593  11.183  23.231  0.00  0.00    +0.000 C 
ATOM      8  C   UNL     1      -0.545  10.269  22.728  0.00  0.00    +0.000 A 
ATOM      9  C   UNL     1       0.582   9.717  23.295  0.00  0.00    +0.000 A 
ATOM     10  C   UNL     1       1.211   8.960  22.274  0.00  0.00    +0.000 A 
ATOM     11  C   UNL     1       0.439   9.114  21.139  0.00  0.00    +0.000 A 
ATOM     12  O   UNL     1      -0.650   9.889  21.425  0.00  0.00    +0.000 OA
ENDBRANCH   1  11
BRANCH   2  13
ATOM     13  C   UNL     1      -0.045  11.058  18.618  0.00  0.00    +0.000 C 
ATOM     14  O   UNL     1       0.433  12.175  18.811  0.00  0.00    +0.000 OA
BRANCH  13  15
ATOM     15  C   UNL     1      -1.437  10.854  18.280  0.00  0.00    +0.000 A 
ATOM     16  C   UNL     1      -2.041   9.913  17.430  0.00  0.00    +0.000 A 
ATOM     17  N   UNL     1      -3.368  10.001  17.422  0.00  0.00    +0.000 NA
ATOM     18  N   UNL     1      -3.644  11.110  18.157  0.00  0.00    +0.000 N 
ATOM     19  C   UNL     1      -2.504  11.589  18.786  0.00  0.00    +0.000 A 
ATOM     20  C   UNL     1      -2.494  12.579  19.899  0.00  0.00    +0.000 C 
BRANCH  18  21
ATOM     21  C   UNL     1      -4.977  11.588  18.224  0.00  0.00    +0.000 A 
ATOM     22  C   UNL     1      -5.453  12.412  17.196  0.00  0.00    +0.000 A 
ATOM     23  C   UNL     1      -6.787  12.818  17.192  0.00  0.00    +0.000 A 
ATOM     24  C   UNL     1      -7.634  12.444  18.235  0.00  0.00    +0.000 A 
ATOM     25  C   UNL     1      -7.145  11.679  19.294  0.00  0.00    +0.000 A 
ATOM     26  C   UNL     1      -5.817  11.248  19.292  0.00  0.00    +0.000 A 
ENDBRANCH  18  21
ENDBRANCH  13  15
ENDBRANCH   2  13
BRANCH   3  27
ATOM     27  O   UNL     1       2.440  10.585  17.092  0.00  0.00    +0.000 OA
ATOM     28  H   UNL     1       1.745  11.235  16.855  0.00  0.00    +0.000 HD
ENDBRANCH   3  27
BRANCH   6  29
ATOM     29  C   UNL     1       1.794   6.517  19.856  0.00  0.00    +0.000 C 
BRANCH  29  30
ATOM     30  C   UNL     1       2.224   5.509  18.765  0.00  0.00    +0.000 C 
BRANCH  30  31
ATOM     31  N   UNL     1       1.605   4.167  18.874  0.00  0.00    +0.000 NA
ATOM     32  C   UNL     1       1.032   3.974  20.231  0.00  0.00    +0.000 C 
ATOM     33  C   UNL     1       2.090   3.742  21.328  0.00  0.00    +0.000 C 
ATOM     34  O   UNL     1       2.905   2.605  21.019  0.00  0.00    +0.000 OA
ATOM     35  C   UNL     1       3.548   2.770  19.750  0.00  0.00    +0.000 C 
ATOM     36  C   UNL     1       2.533   3.041  18.624  0.00  0.00    +0.000 C 
ENDBRANCH  30  31
ENDBRANCH  29  30
ENDBRANCH   6  29
TORSDOF 8
ENDMDL
MODEL 8
REMARK VINA RESULT:      -8.8      4.345      8.115
REMARK  Name = 
REMARK  10 active torsions:
REMARK  status: ('A' for Active; 'I' for Inactive)
REMARK    1  A    between atoms: C_1  and  C_2
REMARK    2  A    between atoms: C_5  and  C_6
REMARK    3  A    between atoms: C_7  and  C_8
REMARK    4  A    between atoms: C_8  and  C_10
REMARK    5  A    between atoms: N_13  and  C_14
REMARK    6  A    between atoms: C_20  and  C_21
REMARK    7  A    between atoms: C_22  and  O_23
REMARK    8  A    between atoms: N_26  and  C_27
REMARK    9  A    between atoms: C_27  and  C_28
REMARK   10  A    between atoms: C_28  and  N_29
REMARK                            x       y       z     vdW  Elec       q    Type
REMARK                         _______ _______ _______ _____ _____    ______ ____
ROOT
ATOM      1  C   UNL     1       1.757  13.055  20.877  0.00  0.00    +0.000 C 
ATOM      2  C   UNL     1       1.616  12.376  19.558  0.00  0.00    +0.000 C 
ATOM      3  C   UNL     1       2.364  12.943  18.606  0.00  0.00    +0.000 C 
ATOM      4  C   UNL     1       3.128  14.033  19.255  0.00  0.00    +0.000 C 
ATOM      5  O   UNL     1       4.018  14.668  18.712  0.00  0.00    +0.000 OA
ATOM      6  N   UNL     1       2.674  14.142  20.565  0.00  0.00    +0.000 N 
ENDROOT
BRANCH   1  11
ATOM      7  C   UNL     1      -2.302  12.373  23.384  0.00  0.00    +0.000 C 
ATOM      8  C   UNL     1      -1.373  13.215  22.603  0.00  0.00    +0.000 A 
ATOM      9  C   UNL     1      -1.455  14.489  22.086  0.00  0.00    +0.000 A 
ATOM     10  C   UNL     1      -0.245  14.712  21.382  0.00  0.00    +0.000 A 
ATOM     11  C   UNL     1       0.495  13.552  21.497  0.00  0.00    +0.000 A 
ATOM     12  O   UNL     1      -0.181  12.649  22.267  0.00  0.00    +0.000 OA
ENDBRANCH   1  11
BRANCH   2  13
ATOM     13  C   UNL     1       0.706  11.266  19.238  0.00  0.00    +0.000 C 
ATOM     14  O   UNL     1      -0.273  11.464  18.521  0.00  0.00    +0.000 OA
BRANCH  13  15
ATOM     15  C   UNL     1       1.002   9.972  19.813  0.00  0.00    +0.000 A 
ATOM     16  C   UNL     1       0.831   9.495  21.123  0.00  0.00    +0.000 A 
ATOM     17  N   UNL     1       1.166   8.215  21.254  0.00  0.00    +0.000 NA
ATOM     18  N   UNL     1       1.709   7.877  20.055  0.00  0.00    +0.000 N 
ATOM     19  C   UNL     1       1.524   8.884  19.121  0.00  0.00    +0.000 A 
ATOM     20  C   UNL     1       1.705   8.731  17.650  0.00  0.00    +0.000 C 
BRANCH  18  21
ATOM     21  C   UNL     1       2.320   6.606  19.900  0.00  0.00    +0.000 A 
ATOM     22  C   UNL     1       3.433   6.489  19.058  0.00  0.00    +0.000 A 
ATOM     23  C   UNL     1       4.105   5.271  18.961  0.00  0.00    +0.000 A 
ATOM     24  C   UNL     1       3.642   4.159  19.665  0.00  0.00    +0.000 A 
ATOM     25  C   UNL     1       2.495   4.257  20.452  0.00  0.00    +0.000 A 
ATOM     26  C   UNL     1       1.830   5.479  20.572  0.00  0.00    +0.000 A 
ENDBRANCH  18  21
ENDBRANCH  13  15
ENDBRANCH   2  13
BRANCH   3  27
ATOM     27  O   UNL     1       2.476  12.603  17.287  0.00  0.00    +0.000 OA
ATOM     28  H   UNL     1       1.689  12.947  16.814  0.00  0.00    +0.000 HD
ENDBRANCH   3  27
BRANCH   6  29
ATOM     29  C   UNL     1       3.454  14.757  21.647  0.00  0.00    +0.000 C 
BRANCH  29  30
ATOM     30  C   UNL     1       4.811  14.102  21.993  0.00  0.00    +0.000 C 
BRANCH  30  31
ATOM     31  N   UNL     1       4.956  13.667  23.402  0.00  0.00    +0.000 NA
ATOM     32  C   UNL     1       5.336  14.820  24.259  0.00  0.00    +0.000 C 
ATOM     33  C   UNL     1       6.800  15.269  24.088  0.00  0.00    +0.000 C 
ATOM     34  O   UNL     1       7.701  14.189  24.363  0.00  0.00    +0.000 OA
ATOM     35  C   UNL     1       7.432  13.073  23.508  0.00  0.00    +0.000 C 
ATOM     36  C   UNL     1       5.968  12.608  23.617  0.00  0.00    +0.000 C 
ENDBRANCH  30  31
ENDBRANCH  29  30
ENDBRANCH   6  29
TORSDOF 8
ENDMDL
MODEL 9
REMARK VINA RESULT:      -8.7      3.696     11.030
REMARK  Name = 
REMARK  10 active torsions:
REMARK  status: ('A' for Active; 'I' for Inactive)
REMARK    1  A    between atoms: C_1  and  C_2
REMARK    2  A    between atoms: C_5  and  C_6
REMARK    3  A    between atoms: C_7  and  C_8
REMARK    4  A    between atoms: C_8  and  C_10
REMARK    5  A    between atoms: N_13  and  C_14
REMARK    6  A    between atoms: C_20  and  C_21
REMARK    7  A    between atoms: C_22  and  O_23
REMARK    8  A    between atoms: N_26  and  C_27
REMARK    9  A    between atoms: C_27  and  C_28
REMARK   10  A    between atoms: C_28  and  N_29
REMARK                            x       y       z     vdW  Elec       q    Type
REMARK                         _______ _______ _______ _____ _____    ______ ____
ROOT
ATOM      1  C   UNL     1       0.510  10.925  20.152  0.00  0.00    +0.000 C 
ATOM      2  C   UNL     1       0.150  11.169  21.577  0.00  0.00    +0.000 C 
ATOM      3  C   UNL     1       0.315  10.085  22.342  0.00  0.00    +0.000 C 
ATOM      4  C   UNL     1       0.874   9.028  21.468  0.00  0.00    +0.000 C 
ATOM      5  O   UNL     1       1.282   7.949  21.868  0.00  0.00    +0.000 OA
ATOM      6  N   UNL     1       0.880   9.517  20.167  0.00  0.00    +0.000 N 
ENDROOT
BRANCH   1  11
ATOM      7  C   UNL     1      -3.353   9.637  17.573  0.00  0.00    +0.000 C 
ATOM      8  C   UNL     1      -2.290  10.592  17.949  0.00  0.00    +0.000 A 
ATOM      9  C   UNL     1      -1.866  11.793  17.424  0.00  0.00    +0.000 A 
ATOM     10  C   UNL     1      -0.755  12.199  18.206  0.00  0.00    +0.000 A 
ATOM     11  C   UNL     1      -0.556  11.210  19.149  0.00  0.00    +0.000 A 
ATOM     12  O   UNL     1      -1.512  10.243  19.010  0.00  0.00    +0.000 OA
ENDBRANCH   1  11
BRANCH   2  13
ATOM     13  C   UNL     1      -0.420  12.403  22.137  0.00  0.00    +0.000 C 
ATOM     14  O   UNL     1       0.315  13.354  22.400  0.00  0.00    +0.000 OA
BRANCH  13  15
ATOM     15  C   UNL     1      -1.847  12.433  22.375  0.00  0.00    +0.000 A 
ATOM     16  C   UNL     1      -2.609  11.876  23.415  0.00  0.00    +0.000 A 
ATOM     17  N   UNL     1      -3.903  12.171  23.322  0.00  0.00    +0.000 NA
ATOM     18  N   UNL     1      -4.026  12.804  22.127  0.00  0.00    +0.000 N 
ATOM     19  C   UNL     1      -2.784  13.080  21.577  0.00  0.00    +0.000 A 
ATOM     20  C   UNL     1      -2.537  14.025  20.451  0.00  0.00    +0.000 C 
BRANCH  18  21
ATOM     21  C   UNL     1      -5.319  13.124  21.638  0.00  0.00    +0.000 A 
ATOM     22  C   UNL     1      -5.955  12.226  20.771  0.00  0.00    +0.000 A 
ATOM     23  C   UNL     1      -7.262  12.475  20.351  0.00  0.00    +0.000 A 
ATOM     24  C   UNL     1      -7.916  13.639  20.754  0.00  0.00    +0.000 A 
ATOM     25  C   UNL     1      -7.259  14.566  21.563  0.00  0.00    +0.000 A 
ATOM     26  C   UNL     1      -5.961  14.313  22.007  0.00  0.00    +0.000 A 
ENDBRANCH  18  21
ENDBRANCH  13  15
ENDBRANCH   2  13
BRANCH   3  27
ATOM     27  O   UNL     1       0.075   9.932  23.679  0.00  0.00    +0.000 OA
ATOM     28  H   UNL     1       0.747   9.318  24.042  0.00  0.00    +0.000 HD
ENDBRANCH   3  27
BRANCH   6  29
ATOM     29  C   UNL     1       1.747   8.992  19.104  0.00  0.00    +0.000 C 
BRANCH  29  30
ATOM     30  C   UNL     1       1.556   7.507  18.714  0.00  0.00    +0.000 C 
BRANCH  30  31
ATOM     31  N   UNL     1       2.752   6.652  18.901  0.00  0.00    +0.000 NA
ATOM     32  C   UNL     1       2.922   5.746  17.735  0.00  0.00    +0.000 C 
ATOM     33  C   UNL     1       1.910   4.585  17.694  0.00  0.00    +0.000 C 
ATOM     34  O   UNL     1       1.986   3.798  18.890  0.00  0.00    +0.000 OA
ATOM     35  C   UNL     1       1.751   4.607  20.047  0.00  0.00    +0.000 C 
ATOM     36  C   UNL     1       2.717   5.805  20.114  0.00  0.00    +0.000 C 
ENDBRANCH  30  31
ENDBRANCH  29  30
ENDBRANCH   6  29
TORSDOF 8
ENDMDL
