MODEL 1
REMARK VINA RESULT:      -7.9      0.000      0.000
REMARK  Name = 
REMARK  6 active torsions:
REMARK  status: ('A' for Active; 'I' for Inactive)
REMARK    1  A    between atoms: C_1  and  C_2
REMARK    2  A    between atoms: C_2  and  C_3
REMARK    3  A    between atoms: N_5  and  S_6
REMARK    4  A    between atoms: S_6  and  C_9
REMARK    5  A    between atoms: C_9  and  C_10
REMARK    6  A    between atoms: C_18  and  C_19
REMARK                            x       y       z     vdW  Elec       q    Type
REMARK                         _______ _______ _______ _____ _____    ______ ____
ROOT
ATOM      1  C   UNL     1       4.671   1.847  20.049  0.00  0.00    +0.000 C 
ATOM      2  C   UNL     1       3.973   2.986  19.310  0.00  0.00    +0.000 C 
ATOM      3  C   UNL     1       3.154   2.432  18.144  0.00  0.00    +0.000 C 
ATOM      4  C   UNL     1       3.184   3.931  20.255  0.00  0.00    +0.000 C 
ATOM      5  N   UNL     1       3.746   5.140  19.561  0.00  0.00    +0.000 NA
ATOM      6  C   UNL     1       4.861   4.251  19.019  0.00  0.00    +0.000 C 
ENDROOT
BRANCH   6   7
ATOM      7  C   UNL     1       5.553   4.395  17.590  0.00  0.00    +0.000 A 
ATOM      8  C   UNL     1       4.919   4.385  16.337  0.00  0.00    +0.000 A 
ATOM      9  C   UNL     1       5.631   4.519  15.144  0.00  0.00    +0.000 A 
ATOM     10  C   UNL     1       7.002   4.641  15.205  0.00  0.00    +0.000 A 
ATOM     11  N   UNL     1       7.687   4.628  16.363  0.00  0.00    +0.000 NA
ATOM     12  C   UNL     1       6.951   4.512  17.499  0.00  0.00    +0.000 A 
ENDBRANCH   6   7
BRANCH   5  13
ATOM     13  S   UNL     1       2.801   6.261  18.721  0.00  0.00    +0.000 S 
ATOM     14  O   UNL     1       3.701   7.257  18.188  0.00  0.00    +0.000 OA
ATOM     15  O   UNL     1       1.926   5.492  17.869  0.00  0.00    +0.000 OA
BRANCH  13  16
ATOM     16  C   UNL     1       1.839   7.018  20.037  0.00  0.00    +0.000 C 
BRANCH  16  17
ATOM     17  C   UNL     1       1.677   8.553  19.975  0.00  0.00    +0.000 C 
ATOM     18  C   UNL     1       1.141   9.069  18.631  0.00  0.00    +0.000 C 
ATOM     19  C   UNL     1       0.997  10.593  18.607  0.00  0.00    +0.000 C 
ATOM     20  C   UNL     1       0.166  11.098  19.782  0.00  0.00    +0.000 C 
ATOM     21  C   UNL     1       0.779  10.649  21.105  0.00  0.00    +0.000 C 
ATOM     22  C   UNL     1       0.882   9.132  21.150  0.00  0.00    +0.000 C 
ATOM     23  F   UNL     1      -0.377   8.653  21.173  0.00  0.00    +0.000 F 
ATOM     24  F   UNL     1       1.473   8.759  22.313  0.00  0.00    +0.000 F 
ENDBRANCH  16  17
ENDBRANCH  13  16
ENDBRANCH   5  13
TORSDOF 4
ENDMDL
MODEL 2
REMARK VINA RESULT:      -7.3      1.355      1.771
REMARK  Name = 
REMARK  6 active torsions:
REMARK  status: ('A' for Active; 'I' for Inactive)
REMARK    1  A    between atoms: C_1  and  C_2
REMARK    2  A    between atoms: C_2  and  C_3
REMARK    3  A    between atoms: N_5  and  S_6
REMARK    4  A    between atoms: S_6  and  C_9
REMARK    5  A    between atoms: C_9  and  C_10
REMARK    6  A    between atoms: C_18  and  C_19
REMARK                            x       y       z     vdW  Elec       q    Type
REMARK                         _______ _______ _______ _____ _____    ______ ____
ROOT
ATOM      1  C   UNL     1       4.465   1.988  19.763  0.00  0.00    +0.000 C 
ATOM      2  C   UNL     1       3.872   3.177  19.010  0.00  0.00    +0.000 C 
ATOM      3  C   UNL     1       2.999   2.684  17.855  0.00  0.00    +0.000 C 
ATOM      4  C   UNL     1       3.179   4.204  19.944  0.00  0.00    +0.000 C 
ATOM      5  N   UNL     1       3.847   5.345  19.231  0.00  0.00    +0.000 NA
ATOM      6  C   UNL     1       4.873   4.349  18.697  0.00  0.00    +0.000 C 
ENDROOT
BRANCH   6   7
ATOM      7  C   UNL     1       5.567   4.408  17.263  0.00  0.00    +0.000 A 
ATOM      8  C   UNL     1       4.945   4.263  16.013  0.00  0.00    +0.000 A 
ATOM      9  C   UNL     1       5.658   4.332  14.816  0.00  0.00    +0.000 A 
ATOM     10  C   UNL     1       7.021   4.525  14.872  0.00  0.00    +0.000 A 
ATOM     11  N   UNL     1       7.697   4.642  16.030  0.00  0.00    +0.000 NA
ATOM     12  C   UNL     1       6.959   4.585  17.168  0.00  0.00    +0.000 A 
ENDBRANCH   6   7
BRANCH   5  13
ATOM     13  S   UNL     1       3.007   6.537  18.378  0.00  0.00    +0.000 S 
ATOM     14  O   UNL     1       3.946   7.146  17.465  0.00  0.00    +0.000 OA
ATOM     15  O   UNL     1       1.788   5.918  17.916  0.00  0.00    +0.000 OA
BRANCH  13  16
ATOM     16  C   UNL     1       2.619   7.731  19.664  0.00  0.00    +0.000 C 
BRANCH  16  17
ATOM     17  C   UNL     1       1.250   8.438  19.556  0.00  0.00    +0.000 C 
ATOM     18  C   UNL     1       0.706   8.950  20.899  0.00  0.00    +0.000 C 
ATOM     19  C   UNL     1      -0.651   9.642  20.753  0.00  0.00    +0.000 C 
ATOM     20  C   UNL     1      -0.611  10.744  19.698  0.00  0.00    +0.000 C 
ATOM     21  C   UNL     1      -0.159  10.183  18.353  0.00  0.00    +0.000 C 
ATOM     22  C   UNL     1       1.210   9.534  18.486  0.00  0.00    +0.000 C 
ATOM     23  F   UNL     1       2.087  10.519  18.761  0.00  0.00    +0.000 F 
ATOM     24  F   UNL     1       1.569   9.001  17.291  0.00  0.00    +0.000 F 
ENDBRANCH  16  17
ENDBRANCH  13  16
ENDBRANCH   5  13
TORSDOF 4
ENDMDL
MODEL 3
REMARK VINA RESULT:      -7.0      3.409      5.897
REMARK  Name = 
REMARK  6 active torsions:
REMARK  status: ('A' for Active; 'I' for Inactive)
REMARK    1  A    between atoms: C_1  and  C_2
REMARK    2  A    between atoms: C_2  and  C_3
REMARK    3  A    between atoms: N_5  and  S_6
REMARK    4  A    between atoms: S_6  and  C_9
REMARK    5  A    between atoms: C_9  and  C_10
REMARK    6  A    between atoms: C_18  and  C_19
REMARK                            x       y       z     vdW  Elec       q    Type
REMARK                         _______ _______ _______ _____ _____    ______ ____
ROOT
ATOM      1  C   UNL     1       8.125   6.483  19.323  0.00  0.00    +0.000 C 
ATOM      2  C   UNL     1       7.250   6.079  18.138  0.00  0.00    +0.000 C 
ATOM      3  C   UNL     1       7.183   7.219  17.121  0.00  0.00    +0.000 C 
ATOM      4  C   UNL     1       7.641   4.704  17.534  0.00  0.00    +0.000 C 
ATOM      5  N   UNL     1       6.198   4.288  17.478  0.00  0.00    +0.000 NA
ATOM      6  C   UNL     1       5.894   5.373  18.506  0.00  0.00    +0.000 C 
ENDROOT
BRANCH   6   7
ATOM      7  C   UNL     1       4.562   6.246  18.570  0.00  0.00    +0.000 A 
ATOM      8  C   UNL     1       4.132   7.205  17.638  0.00  0.00    +0.000 A 
ATOM      9  C   UNL     1       2.940   7.914  17.798  0.00  0.00    +0.000 A 
ATOM     10  C   UNL     1       2.180   7.677  18.922  0.00  0.00    +0.000 A 
ATOM     11  N   UNL     1       2.537   6.799  19.877  0.00  0.00    +0.000 NA
ATOM     12  C   UNL     1       3.696   6.120  19.670  0.00  0.00    +0.000 A 
ENDBRANCH   6   7
BRANCH   5  13
ATOM     13  S   UNL     1       5.376   3.950  16.040  0.00  0.00    +0.000 S 
ATOM     14  O   UNL     1       4.717   5.170  15.634  0.00  0.00    +0.000 OA
ATOM     15  O   UNL     1       6.322   3.274  15.185  0.00  0.00    +0.000 OA
BRANCH  13  16
ATOM     16  C   UNL     1       4.120   2.784  16.579  0.00  0.00    +0.000 C 
BRANCH  16  17
ATOM     17  C   UNL     1       3.289   3.190  17.816  0.00  0.00    +0.000 C 
ATOM     18  C   UNL     1       1.804   3.444  17.513  0.00  0.00    +0.000 C 
ATOM     19  C   UNL     1       1.015   3.846  18.761  0.00  0.00    +0.000 C 
ATOM     20  C   UNL     1       1.201   2.841  19.894  0.00  0.00    +0.000 C 
ATOM     21  C   UNL     1       2.679   2.684  20.235  0.00  0.00    +0.000 C 
ATOM     22  C   UNL     1       3.459   2.241  19.007  0.00  0.00    +0.000 C 
ATOM     23  F   UNL     1       3.041   0.996  18.705  0.00  0.00    +0.000 F 
ATOM     24  F   UNL     1       4.776   2.155  19.322  0.00  0.00    +0.000 F 
ENDBRANCH  16  17
ENDBRANCH  13  16
ENDBRANCH   5  13
TORSDOF 4
ENDMDL
MODEL 4
REMARK VINA RESULT:      -6.7      1.750      2.184
REMARK  Name = 
REMARK  6 active torsions:
REMARK  status: ('A' for Active; 'I' for Inactive)
REMARK    1  A    between atoms: C_1  and  C_2
REMARK    2  A    between atoms: C_2  and  C_3
REMARK    3  A    between atoms: N_5  and  S_6
REMARK    4  A    between atoms: S_6  and  C_9
REMARK    5  A    between atoms: C_9  and  C_10
REMARK    6  A    between atoms: C_18  and  C_19
REMARK                            x       y       z     vdW  Elec       q    Type
REMARK                         _______ _______ _______ _____ _____    ______ ____
ROOT
ATOM      1  C   UNL     1       4.978   1.169  19.849  0.00  0.00    +0.000 C 
ATOM      2  C   UNL     1       3.942   2.197  19.399  0.00  0.00    +0.000 C 
ATOM      3  C   UNL     1       3.196   1.687  18.166  0.00  0.00    +0.000 C 
ATOM      4  C   UNL     1       3.021   2.676  20.553  0.00  0.00    +0.000 C 
ATOM      5  N   UNL     1       3.182   4.107  20.123  0.00  0.00    +0.000 NA
ATOM      6  C   UNL     1       4.438   3.689  19.365  0.00  0.00    +0.000 C 
ENDROOT
BRANCH   6   7
ATOM      7  C   UNL     1       4.937   4.305  17.981  0.00  0.00    +0.000 A 
ATOM      8  C   UNL     1       4.822   3.728  16.707  0.00  0.00    +0.000 A 
ATOM      9  C   UNL     1       5.299   4.362  15.559  0.00  0.00    +0.000 A 
ATOM     10  C   UNL     1       5.923   5.583  15.692  0.00  0.00    +0.000 A 
ATOM     11  N   UNL     1       6.101   6.188  16.881  0.00  0.00    +0.000 NA
ATOM     12  C   UNL     1       5.606   5.542  17.968  0.00  0.00    +0.000 A 
ENDBRANCH   6   7
BRANCH   5  13
ATOM     13  S   UNL     1       1.905   5.072  19.579  0.00  0.00    +0.000 S 
ATOM     14  O   UNL     1       1.722   4.779  18.177  0.00  0.00    +0.000 OA
ATOM     15  O   UNL     1       0.839   4.905  20.538  0.00  0.00    +0.000 OA
BRANCH  13  16
ATOM     16  C   UNL     1       2.584   6.729  19.724  0.00  0.00    +0.000 C 
BRANCH  16  17
ATOM     17  C   UNL     1       1.573   7.895  19.660  0.00  0.00    +0.000 C 
ATOM     18  C   UNL     1       1.567   8.783  20.914  0.00  0.00    +0.000 C 
ATOM     19  C   UNL     1       0.552   9.924  20.816  0.00  0.00    +0.000 C 
ATOM     20  C   UNL     1       0.744  10.740  19.541  0.00  0.00    +0.000 C 
ATOM     21  C   UNL     1       0.649   9.845  18.310  0.00  0.00    +0.000 C 
ATOM     22  C   UNL     1       1.687   8.735  18.385  0.00  0.00    +0.000 C 
ATOM     23  F   UNL     1       2.896   9.322  18.291  0.00  0.00    +0.000 F 
ATOM     24  F   UNL     1       1.552   7.925  17.305  0.00  0.00    +0.000 F 
ENDBRANCH  16  17
ENDBRANCH  13  16
ENDBRANCH   5  13
TORSDOF 4
ENDMDL
MODEL 5
REMARK VINA RESULT:      -6.3      1.841      2.220
REMARK  Name = 
REMARK  6 active torsions:
REMARK  status: ('A' for Active; 'I' for Inactive)
REMARK    1  A    between atoms: C_1  and  C_2
REMARK    2  A    between atoms: C_2  and  C_3
REMARK    3  A    between atoms: N_5  and  S_6
REMARK    4  A    between atoms: S_6  and  C_9
REMARK    5  A    between atoms: C_9  and  C_10
REMARK    6  A    between atoms: C_18  and  C_19
REMARK                            x       y       z     vdW  Elec       q    Type
REMARK                         _______ _______ _______ _____ _____    ______ ____
ROOT
ATOM      1  C   UNL     1       2.809   3.319  20.473  0.00  0.00    +0.000 C 
ATOM      2  C   UNL     1       2.575   4.474  19.501  0.00  0.00    +0.000 C 
ATOM      3  C   UNL     1       1.930   3.955  18.215  0.00  0.00    +0.000 C 
ATOM      4  C   UNL     1       1.837   5.675  20.148  0.00  0.00    +0.000 C 
ATOM      5  N   UNL     1       2.803   6.641  19.523  0.00  0.00    +0.000 NA
ATOM      6  C   UNL     1       3.774   5.479  19.340  0.00  0.00    +0.000 C 
ENDROOT
BRANCH   6   7
ATOM      7  C   UNL     1       4.780   5.291  18.118  0.00  0.00    +0.000 A 
ATOM      8  C   UNL     1       4.477   5.381  16.750  0.00  0.00    +0.000 A 
ATOM      9  C   UNL     1       5.444   5.195  15.761  0.00  0.00    +0.000 A 
ATOM     10  C   UNL     1       6.731   4.892  16.148  0.00  0.00    +0.000 A 
ATOM     11  N   UNL     1       7.096   4.757  17.437  0.00  0.00    +0.000 NA
ATOM     12  C   UNL     1       6.125   4.963  18.363  0.00  0.00    +0.000 A 
ENDBRANCH   6   7
BRANCH   5  13
ATOM     13  S   UNL     1       2.354   7.816  18.394  0.00  0.00    +0.000 S 
ATOM     14  O   UNL     1       3.573   8.411  17.896  0.00  0.00    +0.000 OA
ATOM     15  O   UNL     1       1.400   7.185  17.515  0.00  0.00    +0.000 OA
BRANCH  13  16
ATOM     16  C   UNL     1       1.511   9.031  19.415  0.00  0.00    +0.000 C 
BRANCH  16  17
ATOM     17  C   UNL     1       0.676  10.095  18.670  0.00  0.00    +0.000 C 
ATOM     18  C   UNL     1      -0.821   9.759  18.579  0.00  0.00    +0.000 C 
ATOM     19  C   UNL     1      -1.615  10.834  17.833  0.00  0.00    +0.000 C 
ATOM     20  C   UNL     1      -1.378  12.221  18.422  0.00  0.00    +0.000 C 
ATOM     21  C   UNL     1       0.109  12.562  18.410  0.00  0.00    +0.000 C 
ATOM     22  C   UNL     1       0.895  11.520  19.189  0.00  0.00    +0.000 C 
ATOM     23  F   UNL     1       0.527  11.633  20.480  0.00  0.00    +0.000 F 
ATOM     24  F   UNL     1       2.217  11.817  19.123  0.00  0.00    +0.000 F 
ENDBRANCH  16  17
ENDBRANCH  13  16
ENDBRANCH   5  13
TORSDOF 4
ENDMDL
MODEL 6
REMARK VINA RESULT:      -6.3      4.028      5.567
REMARK  Name = 
REMARK  6 active torsions:
REMARK  status: ('A' for Active; 'I' for Inactive)
REMARK    1  A    between atoms: C_1  and  C_2
REMARK    2  A    between atoms: C_2  and  C_3
REMARK    3  A    between atoms: N_5  and  S_6
REMARK    4  A    between atoms: S_6  and  C_9
REMARK    5  A    between atoms: C_9  and  C_10
REMARK    6  A    between atoms: C_18  and  C_19
REMARK                            x       y       z     vdW  Elec       q    Type
REMARK                         _______ _______ _______ _____ _____    ______ ____
ROOT
ATOM      1  C   UNL     1       6.314   5.107  14.357  0.00  0.00    +0.000 C 
ATOM      2  C   UNL     1       5.796   5.244  15.787  0.00  0.00    +0.000 C 
ATOM      3  C   UNL     1       4.754   6.362  15.864  0.00  0.00    +0.000 C 
ATOM      4  C   UNL     1       5.334   3.895  16.400  0.00  0.00    +0.000 C 
ATOM      5  N   UNL     1       6.060   4.197  17.680  0.00  0.00    +0.000 NA
ATOM      6  C   UNL     1       6.894   5.217  16.912  0.00  0.00    +0.000 C 
ENDROOT
BRANCH   6   7
ATOM      7  C   UNL     1       7.439   6.598  17.493  0.00  0.00    +0.000 A 
ATOM      8  C   UNL     1       7.283   7.875  16.929  0.00  0.00    +0.000 A 
ATOM      9  C   UNL     1       7.808   9.021  17.529  0.00  0.00    +0.000 A 
ATOM     10  C   UNL     1       8.521   8.883  18.699  0.00  0.00    +0.000 A 
ATOM     11  N   UNL     1       8.743   7.692  19.287  0.00  0.00    +0.000 NA
ATOM     12  C   UNL     1       8.199   6.608  18.676  0.00  0.00    +0.000 A 
ENDBRANCH   6   7
BRANCH   5  13
ATOM     13  S   UNL     1       5.288   4.388  19.172  0.00  0.00    +0.000 S 
ATOM     14  O   UNL     1       6.309   4.726  20.136  0.00  0.00    +0.000 OA
ATOM     15  O   UNL     1       4.154   5.248  18.930  0.00  0.00    +0.000 OA
BRANCH  13  16
ATOM     16  C   UNL     1       4.709   2.724  19.523  0.00  0.00    +0.000 C 
BRANCH  16  17
ATOM     17  C   UNL     1       3.197   2.563  19.794  0.00  0.00    +0.000 C 
ATOM     18  C   UNL     1       2.637   3.566  20.815  0.00  0.00    +0.000 C 
ATOM     19  C   UNL     1       1.139   3.375  21.059  0.00  0.00    +0.000 C 
ATOM     20  C   UNL     1       0.349   3.391  19.754  0.00  0.00    +0.000 C 
ATOM     21  C   UNL     1       0.867   2.319  18.799  0.00  0.00    +0.000 C 
ATOM     22  C   UNL     1       2.346   2.534  18.520  0.00  0.00    +0.000 C 
ATOM     23  F   UNL     1       2.453   3.688  17.833  0.00  0.00    +0.000 F 
ATOM     24  F   UNL     1       2.795   1.543  17.709  0.00  0.00    +0.000 F 
ENDBRANCH  16  17
ENDBRANCH  13  16
ENDBRANCH   5  13
TORSDOF 4
ENDMDL
MODEL 7
REMARK VINA RESULT:      -6.1      3.659      8.089
REMARK  Name = 
REMARK  6 active torsions:
REMARK  status: ('A' for Active; 'I' for Inactive)
REMARK    1  A    between atoms: C_1  and  C_2
REMARK    2  A    between atoms: C_2  and  C_3
REMARK    3  A    between atoms: N_5  and  S_6
REMARK    4  A    between atoms: S_6  and  C_9
REMARK    5  A    between atoms: C_9  and  C_10
REMARK    6  A    between atoms: C_18  and  C_19
REMARK                            x       y       z     vdW  Elec       q    Type
REMARK                         _______ _______ _______ _____ _____    ______ ____
ROOT
ATOM      1  C   UNL     1      -0.636  12.124  21.477  0.00  0.00    +0.000 C 
ATOM      2  C   UNL     1       0.002  11.510  20.233  0.00  0.00    +0.000 C 
ATOM      3  C   UNL     1       0.435  12.613  19.266  0.00  0.00    +0.000 C 
ATOM      4  C   UNL     1       1.112  10.477  20.565  0.00  0.00    +0.000 C 
ATOM      5  N   UNL     1       0.559   9.516  19.552  0.00  0.00    +0.000 NA
ATOM      6  C   UNL     1      -0.760  10.281  19.616  0.00  0.00    +0.000 C 
ENDROOT
BRANCH   6   7
ATOM      7  C   UNL     1      -1.754  10.524  18.393  0.00  0.00    +0.000 A 
ATOM      8  C   UNL     1      -1.608  10.058  17.077  0.00  0.00    +0.000 A 
ATOM      9  C   UNL     1      -2.547  10.336  16.082  0.00  0.00    +0.000 A 
ATOM     10  C   UNL     1      -3.637  11.114  16.405  0.00  0.00    +0.000 A 
ATOM     11  N   UNL     1      -3.834  11.625  17.634  0.00  0.00    +0.000 NA
ATOM     12  C   UNL     1      -2.903  11.314  18.573  0.00  0.00    +0.000 A 
ENDBRANCH   6   7
BRANCH   5  13
ATOM     13  S   UNL     1       1.407   9.008  18.181  0.00  0.00    +0.000 S 
ATOM     14  O   UNL     1       0.460   8.334  17.323  0.00  0.00    +0.000 OA
ATOM     15  O   UNL     1       2.164  10.150  17.730  0.00  0.00    +0.000 OA
BRANCH  13  16
ATOM     16  C   UNL     1       2.529   7.777  18.856  0.00  0.00    +0.000 C 
BRANCH  16  17
ATOM     17  C   UNL     1       3.044   6.703  17.873  0.00  0.00    +0.000 C 
ATOM     18  C   UNL     1       4.448   6.989  17.318  0.00  0.00    +0.000 C 
ATOM     19  C   UNL     1       4.923   5.906  16.346  0.00  0.00    +0.000 C 
ATOM     20  C   UNL     1       4.829   4.515  16.964  0.00  0.00    +0.000 C 
ATOM     21  C   UNL     1       3.402   4.224  17.418  0.00  0.00    +0.000 C 
ATOM     22  C   UNL     1       2.943   5.275  18.417  0.00  0.00    +0.000 C 
ATOM     23  F   UNL     1       3.695   5.118  19.525  0.00  0.00    +0.000 F 
ATOM     24  F   UNL     1       1.657   5.024  18.770  0.00  0.00    +0.000 F 
ENDBRANCH  16  17
ENDBRANCH  13  16
ENDBRANCH   5  13
TORSDOF 4
ENDMDL
MODEL 8
REMARK VINA RESULT:      -6.1      1.738      2.310
REMARK  Name = 
REMARK  6 active torsions:
REMARK  status: ('A' for Active; 'I' for Inactive)
REMARK    1  A    between atoms: C_1  and  C_2
REMARK    2  A    between atoms: C_2  and  C_3
REMARK    3  A    between atoms: N_5  and  S_6
REMARK    4  A    between atoms: S_6  and  C_9
REMARK    5  A    between atoms: C_9  and  C_10
REMARK    6  A    between atoms: C_18  and  C_19
REMARK                            x       y       z     vdW  Elec       q    Type
REMARK                         _______ _______ _______ _____ _____    ______ ____
ROOT
ATOM      1  C   UNL     1       2.482   3.378  20.889  0.00  0.00    +0.000 C 
ATOM      2  C   UNL     1       2.419   4.413  19.767  0.00  0.00    +0.000 C 
ATOM      3  C   UNL     1       1.919   3.759  18.478  0.00  0.00    +0.000 C 
ATOM      4  C   UNL     1       1.654   5.702  20.170  0.00  0.00    +0.000 C 
ATOM      5  N   UNL     1       2.730   6.561  19.567  0.00  0.00    +0.000 NA
ATOM      6  C   UNL     1       3.668   5.360  19.647  0.00  0.00    +0.000 C 
ENDROOT
BRANCH   6   7
ATOM      7  C   UNL     1       4.810   5.002  18.594  0.00  0.00    +0.000 A 
ATOM      8  C   UNL     1       4.636   4.574  17.268  0.00  0.00    +0.000 A 
ATOM      9  C   UNL     1       5.717   4.285  16.434  0.00  0.00    +0.000 A 
ATOM     10  C   UNL     1       6.992   4.404  16.943  0.00  0.00    +0.000 A 
ATOM     11  N   UNL     1       7.243   4.777  18.211  0.00  0.00    +0.000 NA
ATOM     12  C   UNL     1       6.161   5.064  18.981  0.00  0.00    +0.000 A 
ENDBRANCH   6   7
BRANCH   5  13
ATOM     13  S   UNL     1       2.474   7.602  18.261  0.00  0.00    +0.000 S 
ATOM     14  O   UNL     1       3.704   7.644  17.506  0.00  0.00    +0.000 OA
ATOM     15  O   UNL     1       1.226   7.196  17.661  0.00  0.00    +0.000 OA
BRANCH  13  16
ATOM     16  C   UNL     1       2.257   9.191  19.071  0.00  0.00    +0.000 C 
BRANCH  16  17
ATOM     17  C   UNL     1       0.990   9.353  19.941  0.00  0.00    +0.000 C 
ATOM     18  C   UNL     1       1.219   9.071  21.433  0.00  0.00    +0.000 C 
ATOM     19  C   UNL     1      -0.057   9.238  22.262  0.00  0.00    +0.000 C 
ATOM     20  C   UNL     1      -0.701  10.602  22.033  0.00  0.00    +0.000 C 
ATOM     21  C   UNL     1      -1.004  10.812  20.552  0.00  0.00    +0.000 C 
ATOM     22  C   UNL     1       0.270  10.689  19.732  0.00  0.00    +0.000 C 
ATOM     23  F   UNL     1       1.058  11.728  20.073  0.00  0.00    +0.000 F 
ATOM     24  F   UNL     1      -0.030  10.832  18.417  0.00  0.00    +0.000 F 
ENDBRANCH  16  17
ENDBRANCH  13  16
ENDBRANCH   5  13
TORSDOF 4
ENDMDL
MODEL 9
REMARK VINA RESULT:      -6.0      3.904      5.460
REMARK  Name = 
REMARK  6 active torsions:
REMARK  status: ('A' for Active; 'I' for Inactive)
REMARK    1  A    between atoms: C_1  and  C_2
REMARK    2  A    between atoms: C_2  and  C_3
REMARK    3  A    between atoms: N_5  and  S_6
REMARK    4  A    between atoms: S_6  and  C_9
REMARK    5  A    between atoms: C_9  and  C_10
REMARK    6  A    between atoms: C_18  and  C_19
REMARK                            x       y       z     vdW  Elec       q    Type
REMARK                         _______ _______ _______ _____ _____    ______ ____
ROOT
ATOM      1  C   UNL     1       7.326   4.719  13.481  0.00  0.00    +0.000 C 
ATOM      2  C   UNL     1       6.266   4.966  14.553  0.00  0.00    +0.000 C 
ATOM      3  C   UNL     1       5.678   6.369  14.397  0.00  0.00    +0.000 C 
ATOM      4  C   UNL     1       5.209   3.833  14.635  0.00  0.00    +0.000 C 
ATOM      5  N   UNL     1       5.307   3.812  16.134  0.00  0.00    +0.000 NA
ATOM      6  C   UNL     1       6.656   4.515  16.008  0.00  0.00    +0.000 C 
ENDROOT
BRANCH   6   7
ATOM      7  C   UNL     1       7.237   5.599  17.022  0.00  0.00    +0.000 A 
ATOM      8  C   UNL     1       7.673   5.380  18.339  0.00  0.00    +0.000 A 
ATOM      9  C   UNL     1       8.165   6.412  19.139  0.00  0.00    +0.000 A 
ATOM     10  C   UNL     1       8.199   7.688  18.621  0.00  0.00    +0.000 A 
ATOM     11  N   UNL     1       7.771   7.987  17.380  0.00  0.00    +0.000 NA
ATOM     12  C   UNL     1       7.316   6.948  16.633  0.00  0.00    +0.000 A 
ENDBRANCH   6   7
BRANCH   5  13
ATOM     13  S   UNL     1       4.022   4.194  17.163  0.00  0.00    +0.000 S 
ATOM     14  O   UNL     1       3.820   5.622  17.075  0.00  0.00    +0.000 OA
ATOM     15  O   UNL     1       2.969   3.256  16.856  0.00  0.00    +0.000 OA
BRANCH  13  16
ATOM     16  C   UNL     1       4.701   3.820  18.784  0.00  0.00    +0.000 C 
BRANCH  16  17
ATOM     17  C   UNL     1       3.704   3.818  19.964  0.00  0.00    +0.000 C 
ATOM     18  C   UNL     1       2.413   4.606  19.690  0.00  0.00    +0.000 C 
ATOM     19  C   UNL     1       1.452   4.584  20.881  0.00  0.00    +0.000 C 
ATOM     20  C   UNL     1       1.163   3.160  21.344  0.00  0.00    +0.000 C 
ATOM     21  C   UNL     1       2.458   2.436  21.700  0.00  0.00    +0.000 C 
ATOM     22  C   UNL     1       3.396   2.418  20.504  0.00  0.00    +0.000 C 
ATOM     23  F   UNL     1       2.818   1.646  19.563  0.00  0.00    +0.000 F 
ATOM     24  F   UNL     1       4.558   1.813  20.857  0.00  0.00    +0.000 F 
ENDBRANCH  16  17
ENDBRANCH  13  16
ENDBRANCH   5  13
TORSDOF 4
ENDMDL
