MODEL 1
REMARK VINA RESULT:      -8.8      0.000      0.000
REMARK  Name = 
REMARK  7 active torsions:
REMARK  status: ('A' for Active; 'I' for Inactive)
REMARK    1  A    between atoms: C_1  and  C_2
REMARK    2  A    between atoms: C_2  and  O_3
REMARK    3  A    between atoms: O_3  and  C_4
REMARK    4  A    between atoms: C_9  and  C_10
REMARK    5  A    between atoms: N_12  and  C_13
REMARK    6  A    between atoms: C_19  and  N_20
REMARK    7  A    between atoms: C_21  and  C_22
REMARK                            x       y       z     vdW  Elec       q    Type
REMARK                         _______ _______ _______ _____ _____    ______ ____
ROOT
ATOM      1  C   UNL     1       3.311   6.276  18.439  0.00  0.00    +0.000 A 
ATOM      2  N   UNL     1       4.627   6.497  18.213  0.00  0.00    +0.000 NA
ATOM      3  N   UNL     1       5.118   5.327  17.725  0.00  0.00    +0.000 N 
ATOM      4  C   UNL     1       4.153   4.332  17.702  0.00  0.00    +0.000 A 
ATOM      5  C   UNL     1       2.975   4.910  18.149  0.00  0.00    +0.000 A 
ENDROOT
BRANCH   1  11
ATOM      6  C   UNL     1      -0.331  10.841  21.391  0.00  0.00    +0.000 A 
ATOM      7  C   UNL     1       0.012   9.888  22.346  0.00  0.00    +0.000 A 
ATOM      8  C   UNL     1       0.746   8.746  21.985  0.00  0.00    +0.000 A 
ATOM      9  C   UNL     1       1.171   8.554  20.653  0.00  0.00    +0.000 A 
ATOM     10  C   UNL     1       1.970   7.453  20.246  0.00  0.00    +0.000 A 
ATOM     11  C   UNL     1       2.416   7.349  18.924  0.00  0.00    +0.000 A 
ATOM     12  C   UNL     1       1.987   8.368  18.078  0.00  0.00    +0.000 A 
ATOM     13  N   UNL     1       1.188   9.414  18.420  0.00  0.00    +0.000 NA
ATOM     14  C   UNL     1       0.806   9.518  19.692  0.00  0.00    +0.000 A 
ATOM     15  C   UNL     1       0.065  10.629  20.070  0.00  0.00    +0.000 A 
BRANCH   6  16
ATOM     16  O   UNL     1      -1.025  11.999  21.621  0.00  0.00    +0.000 OA
BRANCH  16  18
ATOM     17  C   UNL     1      -2.867  12.219  23.156  0.00  0.00    +0.000 C 
ATOM     18  C   UNL     1      -1.360  12.284  22.979  0.00  0.00    +0.000 C 
ENDBRANCH  16  18
ENDBRANCH   6  16
ENDBRANCH   1  11
BRANCH   3  19
ATOM     19  C   UNL     1       6.506   5.216  17.234  0.00  0.00    +0.000 C 
ATOM     20  C   UNL     1       7.080   6.453  16.524  0.00  0.00    +0.000 C 
ATOM     21  C   UNL     1       7.502   7.572  17.468  0.00  0.00    +0.000 C 
ATOM     22  C   UNL     1       8.333   7.115  18.667  0.00  0.00    +0.000 C 
ATOM     23  C   UNL     1       7.965   5.759  19.268  0.00  0.00    +0.000 C 
ATOM     24  C   UNL     1       7.537   4.709  18.250  0.00  0.00    +0.000 C 
ENDBRANCH   3  19
BRANCH   5  25
ATOM     25  C   UNL     1       1.687   4.206  18.288  0.00  0.00    +0.000 C 
ATOM     26  N   UNL     1       1.243   4.057  19.568  0.00  0.00    +0.000 N 
ATOM     27  O   UNL     1       1.011   3.764  17.373  0.00  0.00    +0.000 OA
ATOM     28  H   UNL     1       1.689   4.543  20.324  0.00  0.00    +0.000 HD
ATOM     29  H   UNL     1       0.315   3.675  19.680  0.00  0.00    +0.000 HD
ENDBRANCH   5  25
BRANCH   4  30
ATOM     30  N   UNL     1       4.365   3.062  17.275  0.00  0.00    +0.000 N 
ATOM     31  H   UNL     1       5.078   2.798  16.599  0.00  0.00    +0.000 HD
ATOM     32  H   UNL     1       3.551   2.444  17.216  0.00  0.00    +0.000 HD
ENDBRANCH   4  30
TORSDOF 6
ENDMDL
MODEL 2
REMARK VINA RESULT:      -8.5      1.389      1.469
REMARK  Name = 
REMARK  7 active torsions:
REMARK  status: ('A' for Active; 'I' for Inactive)
REMARK    1  A    between atoms: C_1  and  C_2
REMARK    2  A    between atoms: C_2  and  O_3
REMARK    3  A    between atoms: O_3  and  C_4
REMARK    4  A    between atoms: C_9  and  C_10
REMARK    5  A    between atoms: N_12  and  C_13
REMARK    6  A    between atoms: C_19  and  N_20
REMARK    7  A    between atoms: C_21  and  C_22
REMARK                            x       y       z     vdW  Elec       q    Type
REMARK                         _______ _______ _______ _____ _____    ______ ____
ROOT
ATOM      1  C   UNL     1       3.107   6.004  19.538  0.00  0.00    +0.000 A 
ATOM      2  N   UNL     1       4.216   6.149  18.775  0.00  0.00    +0.000 NA
ATOM      3  N   UNL     1       4.756   4.906  18.672  0.00  0.00    +0.000 N 
ATOM      4  C   UNL     1       4.052   3.974  19.418  0.00  0.00    +0.000 A 
ATOM      5  C   UNL     1       2.978   4.645  19.984  0.00  0.00    +0.000 A 
ENDROOT
BRANCH   1  11
ATOM      6  C   UNL     1      -0.680  10.897  21.670  0.00  0.00    +0.000 A 
ATOM      7  C   UNL     1      -0.540   9.983  22.711  0.00  0.00    +0.000 A 
ATOM      8  C   UNL     1       0.176   8.788  22.523  0.00  0.00    +0.000 A 
ATOM      9  C   UNL     1       0.786   8.502  21.284  0.00  0.00    +0.000 A 
ATOM     10  C   UNL     1       1.574   7.343  21.058  0.00  0.00    +0.000 A 
ATOM     11  C   UNL     1       2.210   7.144  19.827  0.00  0.00    +0.000 A 
ATOM     12  C   UNL     1       1.972   8.134  18.877  0.00  0.00    +0.000 A 
ATOM     13  N   UNL     1       1.191   9.234  19.041  0.00  0.00    +0.000 NA
ATOM     14  C   UNL     1       0.626   9.427  20.233  0.00  0.00    +0.000 A 
ATOM     15  C   UNL     1      -0.100  10.592  20.439  0.00  0.00    +0.000 A 
BRANCH   6  16
ATOM     16  O   UNL     1      -1.335  12.097  21.735  0.00  0.00    +0.000 OA
BRANCH  16  18
ATOM     17  C   UNL     1      -2.981  12.643  23.406  0.00  0.00    +0.000 C 
ATOM     18  C   UNL     1      -1.508  12.662  23.035  0.00  0.00    +0.000 C 
ENDBRANCH  16  18
ENDBRANCH   6  16
ENDBRANCH   1  11
BRANCH   3  19
ATOM     19  C   UNL     1       5.915   4.637  17.799  0.00  0.00    +0.000 C 
ATOM     20  C   UNL     1       5.923   5.348  16.436  0.00  0.00    +0.000 C 
ATOM     21  C   UNL     1       6.314   6.819  16.504  0.00  0.00    +0.000 C 
ATOM     22  C   UNL     1       7.551   7.111  17.353  0.00  0.00    +0.000 C 
ATOM     23  C   UNL     1       7.731   6.254  18.606  0.00  0.00    +0.000 C 
ATOM     24  C   UNL     1       7.295   4.802  18.449  0.00  0.00    +0.000 C 
ENDBRANCH   3  19
BRANCH   5  25
ATOM     25  C   UNL     1       1.966   4.033  20.863  0.00  0.00    +0.000 C 
ATOM     26  N   UNL     1       0.709   3.963  20.340  0.00  0.00    +0.000 N 
ATOM     27  O   UNL     1       2.163   3.598  21.986  0.00  0.00    +0.000 OA
ATOM     28  H   UNL     1       0.548   4.161  19.370  0.00  0.00    +0.000 HD
ATOM     29  H   UNL     1       0.026   3.451  20.880  0.00  0.00    +0.000 HD
ENDBRANCH   5  25
BRANCH   4  30
ATOM     30  N   UNL     1       4.371   2.658  19.510  0.00  0.00    +0.000 N 
ATOM     31  H   UNL     1       4.440   2.148  20.388  0.00  0.00    +0.000 HD
ATOM     32  H   UNL     1       5.013   2.280  18.809  0.00  0.00    +0.000 HD
ENDBRANCH   4  30
TORSDOF 6
ENDMDL
MODEL 3
REMARK VINA RESULT:      -8.4      0.807      1.418
REMARK  Name = 
REMARK  7 active torsions:
REMARK  status: ('A' for Active; 'I' for Inactive)
REMARK    1  A    between atoms: C_1  and  C_2
REMARK    2  A    between atoms: C_2  and  O_3
REMARK    3  A    between atoms: O_3  and  C_4
REMARK    4  A    between atoms: C_9  and  C_10
REMARK    5  A    between atoms: N_12  and  C_13
REMARK    6  A    between atoms: C_19  and  N_20
REMARK    7  A    between atoms: C_21  and  C_22
REMARK                            x       y       z     vdW  Elec       q    Type
REMARK                         _______ _______ _______ _____ _____    ______ ____
ROOT
ATOM      1  C   UNL     1       3.327   6.190  18.578  0.00  0.00    +0.000 A 
ATOM      2  N   UNL     1       4.652   6.383  18.380  0.00  0.00    +0.000 NA
ATOM      3  N   UNL     1       5.099   5.259  17.760  0.00  0.00    +0.000 N 
ATOM      4  C   UNL     1       4.096   4.313  17.620  0.00  0.00    +0.000 A 
ATOM      5  C   UNL     1       2.938   4.882  18.130  0.00  0.00    +0.000 A 
ENDROOT
BRANCH   1  11
ATOM      6  C   UNL     1      -0.680  11.019  20.433  0.00  0.00    +0.000 A 
ATOM      7  C   UNL     1      -0.289  11.272  19.121  0.00  0.00    +0.000 A 
ATOM      8  C   UNL     1       0.629  10.429  18.473  0.00  0.00    +0.000 A 
ATOM      9  C   UNL     1       1.155   9.296  19.131  0.00  0.00    +0.000 A 
ATOM     10  C   UNL     1       2.034   8.375  18.503  0.00  0.00    +0.000 A 
ATOM     11  C   UNL     1       2.472   7.234  19.184  0.00  0.00    +0.000 A 
ATOM     12  C   UNL     1       2.010   7.117  20.492  0.00  0.00    +0.000 A 
ATOM     13  N   UNL     1       1.202   7.997  21.140  0.00  0.00    +0.000 NA
ATOM     14  C   UNL     1       0.763   9.058  20.463  0.00  0.00    +0.000 A 
ATOM     15  C   UNL     1      -0.132   9.916  21.087  0.00  0.00    +0.000 A 
BRANCH   6  16
ATOM     16  O   UNL     1      -1.577  11.753  21.162  0.00  0.00    +0.000 OA
BRANCH  16  18
ATOM     17  C   UNL     1      -2.767  12.158  23.216  0.00  0.00    +0.000 C 
ATOM     18  C   UNL     1      -1.481  11.654  22.583  0.00  0.00    +0.000 C 
ENDBRANCH  16  18
ENDBRANCH   6  16
ENDBRANCH   1  11
BRANCH   3  19
ATOM     19  C   UNL     1       6.484   5.151  17.260  0.00  0.00    +0.000 C 
ATOM     20  C   UNL     1       7.029   6.366  16.491  0.00  0.00    +0.000 C 
ATOM     21  C   UNL     1       7.440   7.532  17.381  0.00  0.00    +0.000 C 
ATOM     22  C   UNL     1       8.290   7.143  18.590  0.00  0.00    +0.000 C 
ATOM     23  C   UNL     1       7.952   5.808  19.253  0.00  0.00    +0.000 C 
ATOM     24  C   UNL     1       7.534   4.707  18.287  0.00  0.00    +0.000 C 
ENDBRANCH   3  19
BRANCH   5  25
ATOM     25  C   UNL     1       1.623   4.218  18.185  0.00  0.00    +0.000 C 
ATOM     26  N   UNL     1       1.253   3.768  19.417  0.00  0.00    +0.000 N 
ATOM     27  O   UNL     1       0.867   4.049  17.243  0.00  0.00    +0.000 OA
ATOM     28  H   UNL     1       1.772   4.029  20.235  0.00  0.00    +0.000 HD
ATOM     29  H   UNL     1       0.312   3.408  19.499  0.00  0.00    +0.000 HD
ENDBRANCH   5  25
BRANCH   4  30
ATOM     30  N   UNL     1       4.259   3.094  17.049  0.00  0.00    +0.000 N 
ATOM     31  H   UNL     1       4.409   2.945  16.053  0.00  0.00    +0.000 HD
ATOM     32  H   UNL     1       3.761   2.306  17.470  0.00  0.00    +0.000 HD
ENDBRANCH   4  30
TORSDOF 6
ENDMDL
MODEL 4
REMARK VINA RESULT:      -8.3      1.636      1.865
REMARK  Name = 
REMARK  7 active torsions:
REMARK  status: ('A' for Active; 'I' for Inactive)
REMARK    1  A    between atoms: C_1  and  C_2
REMARK    2  A    between atoms: C_2  and  O_3
REMARK    3  A    between atoms: O_3  and  C_4
REMARK    4  A    between atoms: C_9  and  C_10
REMARK    5  A    between atoms: N_12  and  C_13
REMARK    6  A    between atoms: C_19  and  N_20
REMARK    7  A    between atoms: C_21  and  C_22
REMARK                            x       y       z     vdW  Elec       q    Type
REMARK                         _______ _______ _______ _____ _____    ______ ____
ROOT
ATOM      1  C   UNL     1       3.227   5.785  19.495  0.00  0.00    +0.000 A 
ATOM      2  N   UNL     1       4.364   5.845  18.762  0.00  0.00    +0.000 NA
ATOM      3  N   UNL     1       4.854   4.577  18.737  0.00  0.00    +0.000 N 
ATOM      4  C   UNL     1       4.089   3.714  19.506  0.00  0.00    +0.000 A 
ATOM      5  C   UNL     1       3.029   4.457  20.004  0.00  0.00    +0.000 A 
ENDROOT
BRANCH   1  11
ATOM      6  C   UNL     1      -0.412  10.929  21.260  0.00  0.00    +0.000 A 
ATOM      7  C   UNL     1      -0.342  10.064  22.349  0.00  0.00    +0.000 A 
ATOM      8  C   UNL     1       0.328   8.833  22.243  0.00  0.00    +0.000 A 
ATOM      9  C   UNL     1       0.963   8.460  21.039  0.00  0.00    +0.000 A 
ATOM     10  C   UNL     1       1.708   7.260  20.897  0.00  0.00    +0.000 A 
ATOM     11  C   UNL     1       2.371   6.974  19.699  0.00  0.00    +0.000 A 
ATOM     12  C   UNL     1       2.204   7.923  18.693  0.00  0.00    +0.000 A 
ATOM     13  N   UNL     1       1.466   9.061  18.778  0.00  0.00    +0.000 NA
ATOM     14  C   UNL     1       0.874   9.337  19.940  0.00  0.00    +0.000 A 
ATOM     15  C   UNL     1       0.192  10.539  20.064  0.00  0.00    +0.000 A 
BRANCH   6  16
ATOM     16  O   UNL     1      -1.017  12.157  21.244  0.00  0.00    +0.000 OA
BRANCH  16  18
ATOM     17  C   UNL     1      -3.101  12.556  20.107  0.00  0.00    +0.000 C 
ATOM     18  C   UNL     1      -1.586  12.574  20.003  0.00  0.00    +0.000 C 
ENDBRANCH  16  18
ENDBRANCH   6  16
ENDBRANCH   1  11
BRANCH   3  19
ATOM     19  C   UNL     1       6.026   4.217  17.916  0.00  0.00    +0.000 C 
ATOM     20  C   UNL     1       5.833   4.267  16.392  0.00  0.00    +0.000 C 
ATOM     21  C   UNL     1       5.855   5.675  15.808  0.00  0.00    +0.000 C 
ATOM     22  C   UNL     1       7.000   6.555  16.308  0.00  0.00    +0.000 C 
ATOM     23  C   UNL     1       7.408   6.369  17.769  0.00  0.00    +0.000 C 
ATOM     24  C   UNL     1       7.337   4.932  18.270  0.00  0.00    +0.000 C 
ENDBRANCH   3  19
BRANCH   5  25
ATOM     25  C   UNL     1       1.966   3.932  20.880  0.00  0.00    +0.000 C 
ATOM     26  N   UNL     1       0.721   3.901  20.327  0.00  0.00    +0.000 N 
ATOM     27  O   UNL     1       2.113   3.535  22.025  0.00  0.00    +0.000 OA
ATOM     28  H   UNL     1       0.593   4.066  19.346  0.00  0.00    +0.000 HD
ATOM     29  H   UNL     1      -0.000   3.446  20.869  0.00  0.00    +0.000 HD
ENDBRANCH   5  25
BRANCH   4  30
ATOM     30  N   UNL     1       4.350   2.393  19.674  0.00  0.00    +0.000 N 
ATOM     31  H   UNL     1       4.608   1.762  18.918  0.00  0.00    +0.000 HD
ATOM     32  H   UNL     1       3.835   1.902  20.408  0.00  0.00    +0.000 HD
ENDBRANCH   4  30
TORSDOF 6
ENDMDL
MODEL 5
REMARK VINA RESULT:      -8.3      2.430      4.229
REMARK  Name = 
REMARK  7 active torsions:
REMARK  status: ('A' for Active; 'I' for Inactive)
REMARK    1  A    between atoms: C_1  and  C_2
REMARK    2  A    between atoms: C_2  and  O_3
REMARK    3  A    between atoms: O_3  and  C_4
REMARK    4  A    between atoms: C_9  and  C_10
REMARK    5  A    between atoms: N_12  and  C_13
REMARK    6  A    between atoms: C_19  and  N_20
REMARK    7  A    between atoms: C_21  and  C_22
REMARK                            x       y       z     vdW  Elec       q    Type
REMARK                         _______ _______ _______ _____ _____    ______ ____
ROOT
ATOM      1  C   UNL     1       3.162   6.165  18.324  0.00  0.00    +0.000 A 
ATOM      2  N   UNL     1       2.608   5.025  18.799  0.00  0.00    +0.000 NA
ATOM      3  N   UNL     1       3.496   4.037  18.512  0.00  0.00    +0.000 N 
ATOM      4  C   UNL     1       4.582   4.512  17.794  0.00  0.00    +0.000 A 
ATOM      5  C   UNL     1       4.403   5.881  17.660  0.00  0.00    +0.000 A 
ENDROOT
BRANCH   1  11
ATOM      6  C   UNL     1       0.383  11.854  19.979  0.00  0.00    +0.000 A 
ATOM      7  C   UNL     1       0.302  11.004  21.080  0.00  0.00    +0.000 A 
ATOM      8  C   UNL     1       0.765   9.680  20.998  0.00  0.00    +0.000 A 
ATOM      9  C   UNL     1       1.344   9.193  19.807  0.00  0.00    +0.000 A 
ATOM     10  C   UNL     1       1.887   7.886  19.688  0.00  0.00    +0.000 A 
ATOM     11  C   UNL     1       2.507   7.479  18.502  0.00  0.00    +0.000 A 
ATOM     12  C   UNL     1       2.505   8.428  17.483  0.00  0.00    +0.000 A 
ATOM     13  N   UNL     1       1.960   9.672  17.544  0.00  0.00    +0.000 NA
ATOM     14  C   UNL     1       1.408  10.056  18.695  0.00  0.00    +0.000 A 
ATOM     15  C   UNL     1       0.928  11.354  18.796  0.00  0.00    +0.000 A 
BRANCH   6  16
ATOM     16  O   UNL     1      -0.015  13.163  19.941  0.00  0.00    +0.000 OA
BRANCH  16  18
ATOM     17  C   UNL     1      -0.068  15.315  18.862  0.00  0.00    +0.000 C 
ATOM     18  C   UNL     1       0.039  13.811  18.670  0.00  0.00    +0.000 C 
ENDBRANCH  16  18
ENDBRANCH   6  16
ENDBRANCH   1  11
BRANCH   3  19
ATOM     19  C   UNL     1       3.300   2.656  18.996  0.00  0.00    +0.000 C 
ATOM     20  C   UNL     1       3.712   2.378  20.451  0.00  0.00    +0.000 C 
ATOM     21  C   UNL     1       2.717   2.884  21.488  0.00  0.00    +0.000 C 
ATOM     22  C   UNL     1       1.257   2.543  21.190  0.00  0.00    +0.000 C 
ATOM     23  C   UNL     1       0.844   2.560  19.719  0.00  0.00    +0.000 C 
ATOM     24  C   UNL     1       1.910   2.053  18.755  0.00  0.00    +0.000 C 
ENDBRANCH   3  19
BRANCH   5  25
ATOM     25  C   UNL     1       5.326   6.790  16.956  0.00  0.00    +0.000 C 
ATOM     26  N   UNL     1       5.176   6.832  15.601  0.00  0.00    +0.000 N 
ATOM     27  O   UNL     1       6.183   7.484  17.477  0.00  0.00    +0.000 OA
ATOM     28  H   UNL     1       4.384   6.402  15.161  0.00  0.00    +0.000 HD
ATOM     29  H   UNL     1       5.722   7.527  15.111  0.00  0.00    +0.000 HD
ENDBRANCH   5  25
BRANCH   4  30
ATOM     30  N   UNL     1       5.616   3.747  17.362  0.00  0.00    +0.000 N 
ATOM     31  H   UNL     1       6.359   4.083  16.752  0.00  0.00    +0.000 HD
ATOM     32  H   UNL     1       5.435   2.752  17.213  0.00  0.00    +0.000 HD
ENDBRANCH   4  30
TORSDOF 6
ENDMDL
MODEL 6
REMARK VINA RESULT:      -8.0      1.886      2.491
REMARK  Name = 
REMARK  7 active torsions:
REMARK  status: ('A' for Active; 'I' for Inactive)
REMARK    1  A    between atoms: C_1  and  C_2
REMARK    2  A    between atoms: C_2  and  O_3
REMARK    3  A    between atoms: O_3  and  C_4
REMARK    4  A    between atoms: C_9  and  C_10
REMARK    5  A    between atoms: N_12  and  C_13
REMARK    6  A    between atoms: C_19  and  N_20
REMARK    7  A    between atoms: C_21  and  C_22
REMARK                            x       y       z     vdW  Elec       q    Type
REMARK                         _______ _______ _______ _____ _____    ______ ____
ROOT
ATOM      1  C   UNL     1       3.228   5.620  19.463  0.00  0.00    +0.000 A 
ATOM      2  N   UNL     1       4.318   5.661  18.662  0.00  0.00    +0.000 NA
ATOM      3  N   UNL     1       4.768   4.381  18.586  0.00  0.00    +0.000 N 
ATOM      4  C   UNL     1       4.028   3.526  19.387  0.00  0.00    +0.000 A 
ATOM      5  C   UNL     1       3.022   4.289  19.961  0.00  0.00    +0.000 A 
ENDROOT
BRANCH   1  11
ATOM      6  C   UNL     1      -0.419  11.043  19.807  0.00  0.00    +0.000 A 
ATOM      7  C   UNL     1       0.189  11.018  18.554  0.00  0.00    +0.000 A 
ATOM      8  C   UNL     1       1.088   9.993  18.215  0.00  0.00    +0.000 A 
ATOM      9  C   UNL     1       1.375   8.956  19.129  0.00  0.00    +0.000 A 
ATOM     10  C   UNL     1       2.224   7.862  18.816  0.00  0.00    +0.000 A 
ATOM     11  C   UNL     1       2.421   6.828  19.739  0.00  0.00    +0.000 A 
ATOM     12  C   UNL     1       1.759   6.992  20.953  0.00  0.00    +0.000 A 
ATOM     13  N   UNL     1       0.973   8.044  21.305  0.00  0.00    +0.000 NA
ATOM     14  C   UNL     1       0.766   8.999  20.399  0.00  0.00    +0.000 A 
ATOM     15  C   UNL     1      -0.106  10.032  20.715  0.00  0.00    +0.000 A 
BRANCH   6  16
ATOM     16  O   UNL     1      -1.321  11.974  20.246  0.00  0.00    +0.000 OA
BRANCH  16  18
ATOM     17  C   UNL     1      -3.611  12.715  20.316  0.00  0.00    +0.000 C 
ATOM     18  C   UNL     1      -2.496  12.150  19.453  0.00  0.00    +0.000 C 
ENDBRANCH  16  18
ENDBRANCH   6  16
ENDBRANCH   1  11
BRANCH   3  19
ATOM     19  C   UNL     1       5.877   4.003  17.688  0.00  0.00    +0.000 C 
ATOM     20  C   UNL     1       5.564   3.997  16.183  0.00  0.00    +0.000 C 
ATOM     21  C   UNL     1       5.523   5.383  15.551  0.00  0.00    +0.000 C 
ATOM     22  C   UNL     1       6.692   6.291  15.928  0.00  0.00    +0.000 C 
ATOM     23  C   UNL     1       7.216   6.162  17.358  0.00  0.00    +0.000 C 
ATOM     24  C   UNL     1       7.203   4.743  17.913  0.00  0.00    +0.000 C 
ENDBRANCH   3  19
BRANCH   5  25
ATOM     25  C   UNL     1       2.000   3.778  20.893  0.00  0.00    +0.000 C 
ATOM     26  N   UNL     1       0.762   3.594  20.352  0.00  0.00    +0.000 N 
ATOM     27  O   UNL     1       2.174   3.515  22.072  0.00  0.00    +0.000 OA
ATOM     28  H   UNL     1       0.625   3.647  19.360  0.00  0.00    +0.000 HD
ATOM     29  H   UNL     1       0.077   3.145  20.943  0.00  0.00    +0.000 HD
ENDBRANCH   5  25
BRANCH   4  30
ATOM     30  N   UNL     1       4.259   2.195  19.516  0.00  0.00    +0.000 N 
ATOM     31  H   UNL     1       5.184   1.785  19.628  0.00  0.00    +0.000 HD
ATOM     32  H   UNL     1       3.628   1.558  19.025  0.00  0.00    +0.000 HD
ENDBRANCH   4  30
TORSDOF 6
ENDMDL
MODEL 7
REMARK VINA RESULT:      -8.0      1.340      1.935
REMARK  Name = 
REMARK  7 active torsions:
REMARK  status: ('A' for Active; 'I' for Inactive)
REMARK    1  A    between atoms: C_1  and  C_2
REMARK    2  A    between atoms: C_2  and  O_3
REMARK    3  A    between atoms: O_3  and  C_4
REMARK    4  A    between atoms: C_9  and  C_10
REMARK    5  A    between atoms: N_12  and  C_13
REMARK    6  A    between atoms: C_19  and  N_20
REMARK    7  A    between atoms: C_21  and  C_22
REMARK                            x       y       z     vdW  Elec       q    Type
REMARK                         _______ _______ _______ _____ _____    ______ ____
ROOT
ATOM      1  C   UNL     1       3.288   5.829  19.121  0.00  0.00    +0.000 A 
ATOM      2  N   UNL     1       4.632   5.940  19.012  0.00  0.00    +0.000 NA
ATOM      3  N   UNL     1       5.068   4.728  18.578  0.00  0.00    +0.000 N 
ATOM      4  C   UNL     1       4.031   3.814  18.476  0.00  0.00    +0.000 A 
ATOM      5  C   UNL     1       2.868   4.491  18.812  0.00  0.00    +0.000 A 
ENDROOT
BRANCH   1  11
ATOM      6  C   UNL     1      -0.581  11.032  20.010  0.00  0.00    +0.000 A 
ATOM      7  C   UNL     1      -0.052  11.110  18.724  0.00  0.00    +0.000 A 
ATOM      8  C   UNL     1       0.871  10.153  18.270  0.00  0.00    +0.000 A 
ATOM      9  C   UNL     1       1.263   9.081  19.101  0.00  0.00    +0.000 A 
ATOM     10  C   UNL     1       2.141   8.051  18.672  0.00  0.00    +0.000 A 
ATOM     11  C   UNL     1       2.444   6.978  19.517  0.00  0.00    +0.000 A 
ATOM     12  C   UNL     1       1.853   7.037  20.777  0.00  0.00    +0.000 A 
ATOM     13  N   UNL     1       1.041   8.026  21.237  0.00  0.00    +0.000 NA
ATOM     14  C   UNL     1       0.733   9.020  20.405  0.00  0.00    +0.000 A 
ATOM     15  C   UNL     1      -0.164   9.987  20.835  0.00  0.00    +0.000 A 
BRANCH   6  16
ATOM     16  O   UNL     1      -1.497  11.889  20.557  0.00  0.00    +0.000 OA
BRANCH  16  18
ATOM     17  C   UNL     1      -3.656  12.956  20.561  0.00  0.00    +0.000 C 
ATOM     18  C   UNL     1      -2.584  12.284  19.719  0.00  0.00    +0.000 C 
ENDBRANCH  16  18
ENDBRANCH   6  16
ENDBRANCH   1  11
BRANCH   3  19
ATOM     19  C   UNL     1       6.479   4.499  18.212  0.00  0.00    +0.000 C 
ATOM     20  C   UNL     1       6.798   4.466  16.709  0.00  0.00    +0.000 C 
ATOM     21  C   UNL     1       6.851   5.841  16.053  0.00  0.00    +0.000 C 
ATOM     22  C   UNL     1       7.655   6.885  16.826  0.00  0.00    +0.000 C 
ATOM     23  C   UNL     1       7.574   6.811  18.350  0.00  0.00    +0.000 C 
ATOM     24  C   UNL     1       7.507   5.397  18.914  0.00  0.00    +0.000 C 
ENDBRANCH   3  19
BRANCH   5  25
ATOM     25  C   UNL     1       1.520   3.895  18.841  0.00  0.00    +0.000 C 
ATOM     26  N   UNL     1       0.931   3.855  20.070  0.00  0.00    +0.000 N 
ATOM     27  O   UNL     1       0.913   3.451  17.880  0.00  0.00    +0.000 OA
ATOM     28  H   UNL     1       1.330   4.351  20.845  0.00  0.00    +0.000 HD
ATOM     29  H   UNL     1      -0.032   3.550  20.095  0.00  0.00    +0.000 HD
ENDBRANCH   5  25
BRANCH   4  30
ATOM     30  N   UNL     1       4.175   2.524  18.079  0.00  0.00    +0.000 N 
ATOM     31  H   UNL     1       4.288   2.235  17.110  0.00  0.00    +0.000 HD
ATOM     32  H   UNL     1       3.694   1.807  18.627  0.00  0.00    +0.000 HD
ENDBRANCH   4  30
TORSDOF 6
ENDMDL
