MODEL 1
REMARK VINA RESULT:      -8.1      0.000      0.000
REMARK  Name = 
REMARK  7 active torsions:
REMARK  status: ('A' for Active; 'I' for Inactive)
REMARK    1  A    between atoms: C_1  and  C_2
REMARK    2  A    between atoms: C_6  and  O_7
REMARK    3  A    between atoms: O_7  and  C_8
REMARK    4  A    between atoms: C_8  and  C_9
REMARK    5  A    between atoms: C_9  and  C_10
REMARK    6  A    between atoms: C_13  and  C_14
REMARK    7  A    between atoms: C_17  and  C_19
REMARK                            x       y       z     vdW  Elec       q    Type
REMARK                         _______ _______ _______ _____ _____    ______ ____
ROOT
ATOM      1  C   UNL     1       7.471   7.578  17.876  0.00  0.00    +0.000 A 
ATOM      2  N   UNL     1       8.026   6.695  18.713  0.00  0.00    +0.000 NA
ATOM      3  O   UNL     1       7.045   5.732  18.872  0.00  0.00    +0.000 OA
ATOM      4  C   UNL     1       5.967   6.105  18.111  0.00  0.00    +0.000 A 
ATOM      5  N   UNL     1       6.184   7.245  17.476  0.00  0.00    +0.000 NA
ENDROOT
BRANCH   4   6
ATOM      6  C   UNL     1       4.727   5.217  18.075  0.00  0.00    +0.000 C 
ATOM      7  C   UNL     1       4.906   3.842  17.396  0.00  0.00    +0.000 C 
ATOM      8  N   UNL     1       3.963   3.340  18.402  0.00  0.00    +0.000 N 
ATOM      9  C   UNL     1       2.719   2.761  18.160  0.00  0.00    +0.000 C 
ATOM     10  O   UNL     1       2.375   2.506  17.005  0.00  0.00    +0.000 OA
ATOM     11  C   UNL     1       4.357   4.398  19.336  0.00  0.00    +0.000 C 
BRANCH   9  12
ATOM     12  C   UNL     1       1.862   2.390  19.416  0.00  0.00    +0.000 C 
ATOM     13  C   UNL     1       2.543   2.423  20.816  0.00  0.00    +0.000 C 
ATOM     14  C   UNL     1       1.274   3.082  21.384  0.00  0.00    +0.000 C 
ATOM     15  C   UNL     1       0.912   3.507  19.954  0.00  0.00    +0.000 C 
ENDBRANCH   9  12
ENDBRANCH   4   6
BRANCH   1  16
ATOM     16  C   UNL     1       8.240   8.781  17.440  0.00  0.00    +0.000 C 
BRANCH  16  17
ATOM     17  C   UNL     1       8.812   9.591  18.595  0.00  0.00    +0.000 C 
BRANCH  17  18
ATOM     18  O   UNL     1       8.701  10.994  18.328  0.00  0.00    +0.000 OA
BRANCH  18  24
ATOM     19  C   UNL     1      11.809  14.647  16.991  0.00  0.00    +0.000 C 
ATOM     20  C   UNL     1      11.447  13.483  17.870  0.00  0.00    +0.000 A 
ATOM     21  C   UNL     1      12.295  13.060  18.894  0.00  0.00    +0.000 A 
ATOM     22  C   UNL     1      11.938  11.977  19.697  0.00  0.00    +0.000 A 
ATOM     23  C   UNL     1      10.727  11.312  19.478  0.00  0.00    +0.000 A 
ATOM     24  C   UNL     1       9.865  11.720  18.456  0.00  0.00    +0.000 A 
ATOM     25  C   UNL     1      10.234  12.806  17.660  0.00  0.00    +0.000 A 
ENDBRANCH  18  24
ENDBRANCH  17  18
ENDBRANCH  16  17
ENDBRANCH   1  16
TORSDOF 6
ENDMDL
MODEL 2
REMARK VINA RESULT:      -8.0      2.026     10.731
REMARK  Name = 
REMARK  7 active torsions:
REMARK  status: ('A' for Active; 'I' for Inactive)
REMARK    1  A    between atoms: C_1  and  C_2
REMARK    2  A    between atoms: C_6  and  O_7
REMARK    3  A    between atoms: O_7  and  C_8
REMARK    4  A    between atoms: C_8  and  C_9
REMARK    5  A    between atoms: C_9  and  C_10
REMARK    6  A    between atoms: C_13  and  C_14
REMARK    7  A    between atoms: C_17  and  C_19
REMARK                            x       y       z     vdW  Elec       q    Type
REMARK                         _______ _______ _______ _____ _____    ______ ____
ROOT
ATOM      1  C   UNL     1       7.945   7.115  18.252  0.00  0.00    +0.000 A 
ATOM      2  N   UNL     1       7.328   7.540  17.144  0.00  0.00    +0.000 NA
ATOM      3  O   UNL     1       7.633   8.889  17.096  0.00  0.00    +0.000 OA
ATOM      4  C   UNL     1       8.419   9.178  18.182  0.00  0.00    +0.000 A 
ATOM      5  N   UNL     1       8.639   8.109  18.930  0.00  0.00    +0.000 NA
ENDROOT
BRANCH   4   6
ATOM      6  C   UNL     1       8.928  10.602  18.386  0.00  0.00    +0.000 C 
ATOM      7  C   UNL     1       9.452  10.931  19.800  0.00  0.00    +0.000 C 
ATOM      8  N   UNL     1      10.433  11.787  19.122  0.00  0.00    +0.000 N 
ATOM      9  C   UNL     1      10.577  13.165  19.270  0.00  0.00    +0.000 C 
ATOM     10  O   UNL     1       9.929  13.761  20.131  0.00  0.00    +0.000 OA
ATOM     11  C   UNL     1      10.358  10.959  17.915  0.00  0.00    +0.000 C 
BRANCH   9  12
ATOM     12  C   UNL     1      11.645  13.859  18.361  0.00  0.00    +0.000 C 
ATOM     13  C   UNL     1      11.208  14.367  16.956  0.00  0.00    +0.000 C 
ATOM     14  C   UNL     1      12.036  15.643  17.192  0.00  0.00    +0.000 C 
ATOM     15  C   UNL     1      11.968  15.351  18.698  0.00  0.00    +0.000 C 
ENDBRANCH   9  12
ENDBRANCH   4   6
BRANCH   1  16
ATOM     16  C   UNL     1       7.865   5.678  18.649  0.00  0.00    +0.000 C 
BRANCH  16  17
ATOM     17  C   UNL     1       6.557   5.306  19.333  0.00  0.00    +0.000 C 
BRANCH  17  18
ATOM     18  O   UNL     1       5.933   4.207  18.658  0.00  0.00    +0.000 OA
BRANCH  18  24
ATOM     19  C   UNL     1       1.314   2.353  18.550  0.00  0.00    +0.000 C 
ATOM     20  C   UNL     1       2.277   3.495  18.391  0.00  0.00    +0.000 A 
ATOM     21  C   UNL     1       1.834   4.769  18.032  0.00  0.00    +0.000 A 
ATOM     22  C   UNL     1       2.747   5.814  17.891  0.00  0.00    +0.000 A 
ATOM     23  C   UNL     1       4.110   5.587  18.109  0.00  0.00    +0.000 A 
ATOM     24  C   UNL     1       4.573   4.318  18.468  0.00  0.00    +0.000 A 
ATOM     25  C   UNL     1       3.648   3.281  18.607  0.00  0.00    +0.000 A 
ENDBRANCH  18  24
ENDBRANCH  17  18
ENDBRANCH  16  17
ENDBRANCH   1  16
TORSDOF 6
ENDMDL
MODEL 3
REMARK VINA RESULT:      -7.9      2.241     10.526
REMARK  Name = 
REMARK  7 active torsions:
REMARK  status: ('A' for Active; 'I' for Inactive)
REMARK    1  A    between atoms: C_1  and  C_2
REMARK    2  A    between atoms: C_6  and  O_7
REMARK    3  A    between atoms: O_7  and  C_8
REMARK    4  A    between atoms: C_8  and  C_9
REMARK    5  A    between atoms: C_9  and  C_10
REMARK    6  A    between atoms: C_13  and  C_14
REMARK    7  A    between atoms: C_17  and  C_19
REMARK                            x       y       z     vdW  Elec       q    Type
REMARK                         _______ _______ _______ _____ _____    ______ ____
ROOT
ATOM      1  C   UNL     1       7.650   7.016  18.111  0.00  0.00    +0.000 A 
ATOM      2  N   UNL     1       7.021   7.629  17.103  0.00  0.00    +0.000 NA
ATOM      3  O   UNL     1       7.546   8.909  17.117  0.00  0.00    +0.000 OA
ATOM      4  C   UNL     1       8.462   8.973  18.136  0.00  0.00    +0.000 A 
ATOM      5  N   UNL     1       8.560   7.823  18.782  0.00  0.00    +0.000 NA
ENDROOT
BRANCH   4   6
ATOM      6  C   UNL     1       9.222  10.272  18.385  0.00  0.00    +0.000 C 
ATOM      7  C   UNL     1       8.528  11.560  17.891  0.00  0.00    +0.000 C 
ATOM      8  N   UNL     1       9.119  12.204  19.070  0.00  0.00    +0.000 N 
ATOM      9  C   UNL     1      10.022  13.265  19.072  0.00  0.00    +0.000 C 
ATOM     10  O   UNL     1      10.295  13.842  18.019  0.00  0.00    +0.000 OA
ATOM     11  C   UNL     1       9.145  10.926  19.786  0.00  0.00    +0.000 C 
BRANCH   9  12
ATOM     12  C   UNL     1      10.574  13.712  20.468  0.00  0.00    +0.000 C 
ATOM     13  C   UNL     1      11.084  15.175  20.631  0.00  0.00    +0.000 C 
ATOM     14  C   UNL     1      10.389  15.232  22.003  0.00  0.00    +0.000 C 
ATOM     15  C   UNL     1       9.502  14.063  21.550  0.00  0.00    +0.000 C 
ENDBRANCH   9  12
ENDBRANCH   4   6
BRANCH   1  16
ATOM     16  C   UNL     1       7.362   5.583  18.413  0.00  0.00    +0.000 C 
BRANCH  16  17
ATOM     17  C   UNL     1       5.952   5.152  18.033  0.00  0.00    +0.000 C 
BRANCH  17  18
ATOM     18  O   UNL     1       5.013   5.573  19.029  0.00  0.00    +0.000 OA
BRANCH  18  24
ATOM     19  C   UNL     1       1.306   3.035  21.175  0.00  0.00    +0.000 C 
ATOM     20  C   UNL     1       1.931   3.689  19.975  0.00  0.00    +0.000 A 
ATOM     21  C   UNL     1       1.290   3.685  18.735  0.00  0.00    +0.000 A 
ATOM     22  C   UNL     1       1.890   4.299  17.635  0.00  0.00    +0.000 A 
ATOM     23  C   UNL     1       3.135   4.921  17.773  0.00  0.00    +0.000 A 
ATOM     24  C   UNL     1       3.792   4.934  19.006  0.00  0.00    +0.000 A 
ATOM     25  C   UNL     1       3.181   4.316  20.100  0.00  0.00    +0.000 A 
ENDBRANCH  18  24
ENDBRANCH  17  18
ENDBRANCH  16  17
ENDBRANCH   1  16
TORSDOF 6
ENDMDL
MODEL 4
REMARK VINA RESULT:      -7.8      1.135      1.485
REMARK  Name = 
REMARK  7 active torsions:
REMARK  status: ('A' for Active; 'I' for Inactive)
REMARK    1  A    between atoms: C_1  and  C_2
REMARK    2  A    between atoms: C_6  and  O_7
REMARK    3  A    between atoms: O_7  and  C_8
REMARK    4  A    between atoms: C_8  and  C_9
REMARK    5  A    between atoms: C_9  and  C_10
REMARK    6  A    between atoms: C_13  and  C_14
REMARK    7  A    between atoms: C_17  and  C_19
REMARK                            x       y       z     vdW  Elec       q    Type
REMARK                         _______ _______ _______ _____ _____    ______ ____
ROOT
ATOM      1  C   UNL     1       7.436   7.131  17.876  0.00  0.00    +0.000 A 
ATOM      2  N   UNL     1       7.244   7.117  16.552  0.00  0.00    +0.000 NA
ATOM      3  O   UNL     1       6.120   6.326  16.392  0.00  0.00    +0.000 OA
ATOM      4  C   UNL     1       5.712   5.923  17.638  0.00  0.00    +0.000 A 
ATOM      5  N   UNL     1       6.499   6.397  18.590  0.00  0.00    +0.000 NA
ENDROOT
BRANCH   4   6
ATOM      6  C   UNL     1       4.473   5.044  17.777  0.00  0.00    +0.000 C 
ATOM      7  C   UNL     1       4.596   3.616  17.200  0.00  0.00    +0.000 C 
ATOM      8  N   UNL     1       3.738   3.205  18.317  0.00  0.00    +0.000 N 
ATOM      9  C   UNL     1       2.478   2.617  18.226  0.00  0.00    +0.000 C 
ATOM     10  O   UNL     1       2.041   2.271  17.128  0.00  0.00    +0.000 OA
ATOM     11  C   UNL     1       4.208   4.334  19.126  0.00  0.00    +0.000 C 
BRANCH   9  12
ATOM     12  C   UNL     1       1.727   2.356  19.574  0.00  0.00    +0.000 C 
ATOM     13  C   UNL     1       2.546   2.383  20.898  0.00  0.00    +0.000 C 
ATOM     14  C   UNL     1       1.393   3.158  21.560  0.00  0.00    +0.000 C 
ATOM     15  C   UNL     1       0.921   3.562  20.156  0.00  0.00    +0.000 C 
ENDBRANCH   9  12
ENDBRANCH   4   6
BRANCH   1  16
ATOM     16  C   UNL     1       8.569   7.908  18.460  0.00  0.00    +0.000 C 
BRANCH  16  17
ATOM     17  C   UNL     1       8.454   9.411  18.242  0.00  0.00    +0.000 C 
BRANCH  17  18
ATOM     18  O   UNL     1       8.928  10.122  19.392  0.00  0.00    +0.000 OA
BRANCH  18  24
ATOM     19  C   UNL     1      10.818  14.560  20.622  0.00  0.00    +0.000 C 
ATOM     20  C   UNL     1      10.641  13.429  19.648  0.00  0.00    +0.000 A 
ATOM     21  C   UNL     1      11.238  13.462  18.386  0.00  0.00    +0.000 A 
ATOM     22  C   UNL     1      11.059  12.401  17.499  0.00  0.00    +0.000 A 
ATOM     23  C   UNL     1      10.280  11.301  17.872  0.00  0.00    +0.000 A 
ATOM     24  C   UNL     1       9.672  11.251  19.130  0.00  0.00    +0.000 A 
ATOM     25  C   UNL     1       9.861  12.319  20.009  0.00  0.00    +0.000 A 
ENDBRANCH  18  24
ENDBRANCH  17  18
ENDBRANCH  16  17
ENDBRANCH   1  16
TORSDOF 6
ENDMDL
MODEL 5
REMARK VINA RESULT:      -7.8      1.196      1.566
REMARK  Name = 
REMARK  7 active torsions:
REMARK  status: ('A' for Active; 'I' for Inactive)
REMARK    1  A    between atoms: C_1  and  C_2
REMARK    2  A    between atoms: C_6  and  O_7
REMARK    3  A    between atoms: O_7  and  C_8
REMARK    4  A    between atoms: C_8  and  C_9
REMARK    5  A    between atoms: C_9  and  C_10
REMARK    6  A    between atoms: C_13  and  C_14
REMARK    7  A    between atoms: C_17  and  C_19
REMARK                            x       y       z     vdW  Elec       q    Type
REMARK                         _______ _______ _______ _____ _____    ______ ____
ROOT
ATOM      1  C   UNL     1       7.430   7.270  17.894  0.00  0.00    +0.000 A 
ATOM      2  N   UNL     1       7.828   6.237  18.644  0.00  0.00    +0.000 NA
ATOM      3  O   UNL     1       6.662   5.525  18.867  0.00  0.00    +0.000 OA
ATOM      4  C   UNL     1       5.643   6.184  18.227  0.00  0.00    +0.000 A 
ATOM      5  N   UNL     1       6.071   7.273  17.611  0.00  0.00    +0.000 NA
ENDROOT
BRANCH   4   6
ATOM      6  C   UNL     1       4.227   5.617  18.285  0.00  0.00    +0.000 C 
ATOM      7  C   UNL     1       3.858   4.619  17.165  0.00  0.00    +0.000 C 
ATOM      8  N   UNL     1       3.059   3.932  18.186  0.00  0.00    +0.000 N 
ATOM      9  C   UNL     1       1.682   3.726  18.165  0.00  0.00    +0.000 C 
ATOM     10  O   UNL     1       1.033   4.017  17.159  0.00  0.00    +0.000 OA
ATOM     11  C   UNL     1       3.931   4.442  19.248  0.00  0.00    +0.000 C 
BRANCH   9  12
ATOM     12  C   UNL     1       1.055   3.040  19.425  0.00  0.00    +0.000 C 
ATOM     13  C   UNL     1       1.943   2.073  20.263  0.00  0.00    +0.000 C 
ATOM     14  C   UNL     1       1.357   2.693  21.544  0.00  0.00    +0.000 C 
ATOM     15  C   UNL     1       0.964   3.923  20.712  0.00  0.00    +0.000 C 
ENDBRANCH   9  12
ENDBRANCH   4   6
BRANCH   1  16
ATOM     16  C   UNL     1       8.424   8.280  17.423  0.00  0.00    +0.000 C 
BRANCH  16  17
ATOM     17  C   UNL     1       8.212   9.666  18.016  0.00  0.00    +0.000 C 
BRANCH  17  18
ATOM     18  O   UNL     1       9.109   9.885  19.111  0.00  0.00    +0.000 OA
BRANCH  18  24
ATOM     19  C   UNL     1      10.324  14.164  21.348  0.00  0.00    +0.000 C 
ATOM     20  C   UNL     1      10.363  13.242  20.162  0.00  0.00    +0.000 A 
ATOM     21  C   UNL     1      11.038  13.596  18.993  0.00  0.00    +0.000 A 
ATOM     22  C   UNL     1      11.060  12.725  17.905  0.00  0.00    +0.000 A 
ATOM     23  C   UNL     1      10.403  11.492  17.983  0.00  0.00    +0.000 A 
ATOM     24  C   UNL     1       9.720  11.120  19.144  0.00  0.00    +0.000 A 
ATOM     25  C   UNL     1       9.707  12.002  20.227  0.00  0.00    +0.000 A 
ENDBRANCH  18  24
ENDBRANCH  17  18
ENDBRANCH  16  17
ENDBRANCH   1  16
TORSDOF 6
ENDMDL
MODEL 6
REMARK VINA RESULT:      -7.7      0.979      1.111
REMARK  Name = 
REMARK  7 active torsions:
REMARK  status: ('A' for Active; 'I' for Inactive)
REMARK    1  A    between atoms: C_1  and  C_2
REMARK    2  A    between atoms: C_6  and  O_7
REMARK    3  A    between atoms: O_7  and  C_8
REMARK    4  A    between atoms: C_8  and  C_9
REMARK    5  A    between atoms: C_9  and  C_10
REMARK    6  A    between atoms: C_13  and  C_14
REMARK    7  A    between atoms: C_17  and  C_19
REMARK                            x       y       z     vdW  Elec       q    Type
REMARK                         _______ _______ _______ _____ _____    ______ ____
ROOT
ATOM      1  C   UNL     1       7.408   7.239  17.799  0.00  0.00    +0.000 A 
ATOM      2  N   UNL     1       7.176   7.228  16.482  0.00  0.00    +0.000 NA
ATOM      3  O   UNL     1       6.077   6.399  16.348  0.00  0.00    +0.000 OA
ATOM      4  C   UNL     1       5.722   5.972  17.603  0.00  0.00    +0.000 A 
ATOM      5  N   UNL     1       6.520   6.466  18.535  0.00  0.00    +0.000 NA
ENDROOT
BRANCH   4   6
ATOM      6  C   UNL     1       4.520   5.047  17.771  0.00  0.00    +0.000 C 
ATOM      7  C   UNL     1       4.698   3.611  17.230  0.00  0.00    +0.000 C 
ATOM      8  N   UNL     1       3.862   3.195  18.362  0.00  0.00    +0.000 N 
ATOM      9  C   UNL     1       2.627   2.554  18.293  0.00  0.00    +0.000 C 
ATOM     10  O   UNL     1       2.199   2.162  17.207  0.00  0.00    +0.000 OA
ATOM     11  C   UNL     1       4.290   4.362  19.139  0.00  0.00    +0.000 C 
BRANCH   9  12
ATOM     12  C   UNL     1       1.893   2.298  19.652  0.00  0.00    +0.000 C 
ATOM     13  C   UNL     1       2.690   2.494  20.975  0.00  0.00    +0.000 C 
ATOM     14  C   UNL     1       1.454   3.181  21.583  0.00  0.00    +0.000 C 
ATOM     15  C   UNL     1       0.957   3.444  20.154  0.00  0.00    +0.000 C 
ENDBRANCH   9  12
ENDBRANCH   4   6
BRANCH   1  16
ATOM     16  C   UNL     1       8.530   8.052  18.355  0.00  0.00    +0.000 C 
BRANCH  16  17
ATOM     17  C   UNL     1       8.281   9.553  18.298  0.00  0.00    +0.000 C 
BRANCH  17  18
ATOM     18  O   UNL     1       9.377  10.219  17.659  0.00  0.00    +0.000 OA
BRANCH  18  24
ATOM     19  C   UNL     1      12.270  14.233  18.208  0.00  0.00    +0.000 C 
ATOM     20  C   UNL     1      11.432  13.127  18.784  0.00  0.00    +0.000 A 
ATOM     21  C   UNL     1      11.260  12.992  20.162  0.00  0.00    +0.000 A 
ATOM     22  C   UNL     1      10.479  11.957  20.673  0.00  0.00    +0.000 A 
ATOM     23  C   UNL     1       9.864  11.049  19.804  0.00  0.00    +0.000 A 
ATOM     24  C   UNL     1      10.026  11.166  18.421  0.00  0.00    +0.000 A 
ATOM     25  C   UNL     1      10.810  12.208  17.922  0.00  0.00    +0.000 A 
ENDBRANCH  18  24
ENDBRANCH  17  18
ENDBRANCH  16  17
ENDBRANCH   1  16
TORSDOF 6
ENDMDL
MODEL 7
REMARK VINA RESULT:      -7.7      9.031     12.158
REMARK  Name = 
REMARK  7 active torsions:
REMARK  status: ('A' for Active; 'I' for Inactive)
REMARK    1  A    between atoms: C_1  and  C_2
REMARK    2  A    between atoms: C_6  and  O_7
REMARK    3  A    between atoms: O_7  and  C_8
REMARK    4  A    between atoms: C_8  and  C_9
REMARK    5  A    between atoms: C_9  and  C_10
REMARK    6  A    between atoms: C_13  and  C_14
REMARK    7  A    between atoms: C_17  and  C_19
REMARK                            x       y       z     vdW  Elec       q    Type
REMARK                         _______ _______ _______ _____ _____    ______ ____
ROOT
ATOM      1  C   UNL     1       0.385   9.835  21.545  0.00  0.00    +0.000 A 
ATOM      2  N   UNL     1       0.728   9.549  22.806  0.00  0.00    +0.000 NA
ATOM      3  O   UNL     1      -0.142  10.313  23.564  0.00  0.00    +0.000 OA
ATOM      4  C   UNL     1      -0.953  11.003  22.699  0.00  0.00    +0.000 A 
ATOM      5  N   UNL     1      -0.663  10.740  21.436  0.00  0.00    +0.000 NA
ENDROOT
BRANCH   4   6
ATOM      6  C   UNL     1      -2.034  11.926  23.255  0.00  0.00    +0.000 C 
ATOM      7  C   UNL     1      -1.645  13.415  23.380  0.00  0.00    +0.000 C 
ATOM      8  N   UNL     1      -3.043  13.699  23.034  0.00  0.00    +0.000 N 
ATOM      9  C   UNL     1      -3.974  14.372  23.821  0.00  0.00    +0.000 C 
ATOM     10  O   UNL     1      -3.617  14.912  24.869  0.00  0.00    +0.000 OA
ATOM     11  C   UNL     1      -3.146  12.431  22.305  0.00  0.00    +0.000 C 
BRANCH   9  12
ATOM     12  C   UNL     1      -5.432  14.466  23.257  0.00  0.00    +0.000 C 
ATOM     13  C   UNL     1      -6.508  13.487  23.812  0.00  0.00    +0.000 C 
ATOM     14  C   UNL     1      -7.511  14.654  23.839  0.00  0.00    +0.000 C 
ATOM     15  C   UNL     1      -6.317  15.619  23.830  0.00  0.00    +0.000 C 
ENDBRANCH   9  12
ENDBRANCH   4   6
BRANCH   1  16
ATOM     16  C   UNL     1       1.099   9.181  20.408  0.00  0.00    +0.000 C 
BRANCH  16  17
ATOM     17  C   UNL     1       1.630   7.793  20.740  0.00  0.00    +0.000 C 
BRANCH  17  18
ATOM     18  O   UNL     1       2.207   7.187  19.577  0.00  0.00    +0.000 OA
BRANCH  18  24
ATOM     19  C   UNL     1       1.477   2.682  21.566  0.00  0.00    +0.000 C 
ATOM     20  C   UNL     1       1.732   3.572  20.383  0.00  0.00    +0.000 A 
ATOM     21  C   UNL     1       1.862   3.045  19.097  0.00  0.00    +0.000 A 
ATOM     22  C   UNL     1       2.099   3.891  18.014  0.00  0.00    +0.000 A 
ATOM     23  C   UNL     1       2.207   5.271  18.214  0.00  0.00    +0.000 A 
ATOM     24  C   UNL     1       2.082   5.817  19.495  0.00  0.00    +0.000 A 
ATOM     25  C   UNL     1       1.844   4.959  20.570  0.00  0.00    +0.000 A 
ENDBRANCH  18  24
ENDBRANCH  17  18
ENDBRANCH  16  17
ENDBRANCH   1  16
TORSDOF 6
ENDMDL
MODEL 8
REMARK VINA RESULT:      -7.6      5.904      9.335
REMARK  Name = 
REMARK  7 active torsions:
REMARK  status: ('A' for Active; 'I' for Inactive)
REMARK    1  A    between atoms: C_1  and  C_2
REMARK    2  A    between atoms: C_6  and  O_7
REMARK    3  A    between atoms: O_7  and  C_8
REMARK    4  A    between atoms: C_8  and  C_9
REMARK    5  A    between atoms: C_9  and  C_10
REMARK    6  A    between atoms: C_13  and  C_14
REMARK    7  A    between atoms: C_17  and  C_19
REMARK                            x       y       z     vdW  Elec       q    Type
REMARK                         _______ _______ _______ _____ _____    ______ ____
ROOT
ATOM      1  C   UNL     1       2.292   7.967  18.988  0.00  0.00    +0.000 A 
ATOM      2  N   UNL     1       2.577   6.850  19.666  0.00  0.00    +0.000 NA
ATOM      3  O   UNL     1       3.459   6.179  18.837  0.00  0.00    +0.000 OA
ATOM      4  C   UNL     1       3.646   6.948  17.717  0.00  0.00    +0.000 A 
ATOM      5  N   UNL     1       2.941   8.067  17.765  0.00  0.00    +0.000 NA
ENDROOT
BRANCH   4   6
ATOM      6  C   UNL     1       4.591   6.465  16.621  0.00  0.00    +0.000 C 
ATOM      7  C   UNL     1       6.021   6.105  17.080  0.00  0.00    +0.000 C 
ATOM      8  N   UNL     1       5.969   5.053  16.058  0.00  0.00    +0.000 N 
ATOM      9  C   UNL     1       6.808   4.926  14.953  0.00  0.00    +0.000 C 
ATOM     10  O   UNL     1       7.784   5.667  14.834  0.00  0.00    +0.000 OA
ATOM     11  C   UNL     1       4.509   4.990  16.159  0.00  0.00    +0.000 C 
BRANCH   9  12
ATOM     12  C   UNL     1       6.486   3.760  13.958  0.00  0.00    +0.000 C 
ATOM     13  C   UNL     1       5.080   3.722  13.290  0.00  0.00    +0.000 C 
ATOM     14  C   UNL     1       5.755   3.332  11.963  0.00  0.00    +0.000 C 
ATOM     15  C   UNL     1       7.066   3.909  12.515  0.00  0.00    +0.000 C 
ENDBRANCH   9  12
ENDBRANCH   4   6
BRANCH   1  16
ATOM     16  C   UNL     1       1.365   8.981  19.573  0.00  0.00    +0.000 C 
BRANCH  16  17
ATOM     17  C   UNL     1       0.559   9.743  18.529  0.00  0.00    +0.000 C 
BRANCH  17  18
ATOM     18  O   UNL     1      -0.576  10.373  19.135  0.00  0.00    +0.000 OA
BRANCH  18  24
ATOM     19  C   UNL     1      -3.011   9.870  14.821  0.00  0.00    +0.000 C 
ATOM     20  C   UNL     1      -2.911  10.408  16.221  0.00  0.00    +0.000 A 
ATOM     21  C   UNL     1      -3.927  11.193  16.768  0.00  0.00    +0.000 A 
ATOM     22  C   UNL     1      -3.812  11.681  18.069  0.00  0.00    +0.000 A 
ATOM     23  C   UNL     1      -2.676  11.385  18.830  0.00  0.00    +0.000 A 
ATOM     24  C   UNL     1      -1.647  10.602  18.299  0.00  0.00    +0.000 A 
ATOM     25  C   UNL     1      -1.776  10.118  16.995  0.00  0.00    +0.000 A 
ENDBRANCH  18  24
ENDBRANCH  17  18
ENDBRANCH  16  17
ENDBRANCH   1  16
TORSDOF 6
ENDMDL
MODEL 9
REMARK VINA RESULT:      -7.6      2.036     10.438
REMARK  Name = 
REMARK  7 active torsions:
REMARK  status: ('A' for Active; 'I' for Inactive)
REMARK    1  A    between atoms: C_1  and  C_2
REMARK    2  A    between atoms: C_6  and  O_7
REMARK    3  A    between atoms: O_7  and  C_8
REMARK    4  A    between atoms: C_8  and  C_9
REMARK    5  A    between atoms: C_9  and  C_10
REMARK    6  A    between atoms: C_13  and  C_14
REMARK    7  A    between atoms: C_17  and  C_19
REMARK                            x       y       z     vdW  Elec       q    Type
REMARK                         _______ _______ _______ _____ _____    ______ ____
ROOT
ATOM      1  C   UNL     1       7.302   6.690  17.396  0.00  0.00    +0.000 A 
ATOM      2  N   UNL     1       7.799   6.331  18.585  0.00  0.00    +0.000 NA
ATOM      3  O   UNL     1       8.514   7.444  18.991  0.00  0.00    +0.000 OA
ATOM      4  C   UNL     1       8.390   8.399  18.014  0.00  0.00    +0.000 A 
ATOM      5  N   UNL     1       7.648   7.976  17.004  0.00  0.00    +0.000 NA
ENDROOT
BRANCH   4   6
ATOM      6  C   UNL     1       9.067   9.754  18.195  0.00  0.00    +0.000 C 
ATOM      7  C   UNL     1       8.207  10.986  17.839  0.00  0.00    +0.000 C 
ATOM      8  N   UNL     1       8.900  11.657  18.945  0.00  0.00    +0.000 N 
ATOM      9  C   UNL     1       9.704  12.792  18.856  0.00  0.00    +0.000 C 
ATOM     10  O   UNL     1       9.780  13.409  17.793  0.00  0.00    +0.000 OA
ATOM     11  C   UNL     1       9.132  10.373  19.612  0.00  0.00    +0.000 C 
BRANCH   9  12
ATOM     12  C   UNL     1      10.405  13.259  20.175  0.00  0.00    +0.000 C 
ATOM     13  C   UNL     1      11.090  14.657  20.197  0.00  0.00    +0.000 C 
ATOM     14  C   UNL     1      10.510  14.886  21.604  0.00  0.00    +0.000 C 
ATOM     15  C   UNL     1       9.463  13.806  21.297  0.00  0.00    +0.000 C 
ENDBRANCH   9  12
ENDBRANCH   4   6
BRANCH   1  16
ATOM     16  C   UNL     1       6.441   5.743  16.628  0.00  0.00    +0.000 C 
BRANCH  16  17
ATOM     17  C   UNL     1       5.052   5.560  17.226  0.00  0.00    +0.000 C 
BRANCH  17  18
ATOM     18  O   UNL     1       5.017   4.401  18.067  0.00  0.00    +0.000 OA
BRANCH  18  24
ATOM     19  C   UNL     1       1.940   2.814  21.645  0.00  0.00    +0.000 C 
ATOM     20  C   UNL     1       2.194   3.278  20.238  0.00  0.00    +0.000 A 
ATOM     21  C   UNL     1       1.155   3.379  19.312  0.00  0.00    +0.000 A 
ATOM     22  C   UNL     1       1.416   3.812  18.012  0.00  0.00    +0.000 A 
ATOM     23  C   UNL     1       2.721   4.145  17.633  0.00  0.00    +0.000 A 
ATOM     24  C   UNL     1       3.774   4.048  18.546  0.00  0.00    +0.000 A 
ATOM     25  C   UNL     1       3.500   3.614  19.845  0.00  0.00    +0.000 A 
ENDBRANCH  18  24
ENDBRANCH  17  18
ENDBRANCH  16  17
ENDBRANCH   1  16
TORSDOF 6
ENDMDL
