MODEL 1
REMARK VINA RESULT:      -7.2      0.000      0.000
REMARK  Name = 
REMARK  10 active torsions:
REMARK  status: ('A' for Active; 'I' for Inactive)
REMARK    1  A    between atoms: C_2  and  C_3
REMARK    2  A    between atoms: C_2  and  C_14
REMARK    3  A    between atoms: C_3  and  C_4
REMARK    4  A    between atoms: C_4  and  C_5
REMARK    5  A    between atoms: C_5  and  C_6
REMARK    6  A    between atoms: C_6  and  C_7
REMARK    7  A    between atoms: C_7  and  C_8
REMARK    8  A    between atoms: C_14  and  C_15
REMARK    9  A    between atoms: C_15  and  C_16
REMARK   10  A    between atoms: C_19  and  O_20
REMARK                            x       y       z     vdW  Elec       q    Type
REMARK                         _______ _______ _______ _____ _____    ______ ____
ROOT
ATOM      1  O   UNL     1       1.188   2.300  20.324  0.00  0.00    +0.000 OA
ATOM      2  C   UNL     1       1.300   3.392  19.768  0.00  0.00    +0.000 C 
ENDROOT
BRANCH   2   3
ATOM      3  C   UNL     1       1.406   3.517  18.257  0.00  0.00    +0.000 C 
BRANCH   3   4
ATOM      4  C   UNL     1       2.336   2.468  17.653  0.00  0.00    +0.000 C 
BRANCH   4   5
ATOM      5  C   UNL     1       3.797   2.913  17.737  0.00  0.00    +0.000 C 
BRANCH   5   6
ATOM      6  C   UNL     1       4.110   4.008  16.715  0.00  0.00    +0.000 C 
BRANCH   6   7
ATOM      7  C   UNL     1       5.591   3.992  16.331  0.00  0.00    +0.000 C 
BRANCH   7   8
ATOM      8  C   UNL     1       6.368   5.048  17.074  0.00  0.00    +0.000 A 
ATOM      9  C   UNL     1       6.323   6.387  16.662  0.00  0.00    +0.000 A 
ATOM     10  C   UNL     1       7.071   7.357  17.330  0.00  0.00    +0.000 A 
ATOM     11  C   UNL     1       7.870   6.999  18.413  0.00  0.00    +0.000 A 
ATOM     12  C   UNL     1       7.922   5.671  18.831  0.00  0.00    +0.000 A 
ATOM     13  C   UNL     1       7.175   4.698  18.165  0.00  0.00    +0.000 A 
ENDBRANCH   7   8
ENDBRANCH   6   7
ENDBRANCH   5   6
ENDBRANCH   4   5
ENDBRANCH   3   4
ENDBRANCH   2   3
BRANCH   2  14
ATOM     14  C   UNL     1       1.340   4.689  20.554  0.00  0.00    +0.000 C 
BRANCH  14  15
ATOM     15  C   UNL     1       2.656   5.434  20.348  0.00  0.00    +0.000 C 
BRANCH  15  16
ATOM     16  C   UNL     1       2.451   6.716  19.579  0.00  0.00    +0.000 A 
ATOM     17  C   UNL     1       1.698   7.763  20.130  0.00  0.00    +0.000 A 
ATOM     18  C   UNL     1       1.498   8.949  19.419  0.00  0.00    +0.000 A 
ATOM     19  C   UNL     1       2.052   9.086  18.150  0.00  0.00    +0.000 A 
ATOM     20  C   UNL     1       2.793   8.056  17.583  0.00  0.00    +0.000 A 
ATOM     21  C   UNL     1       2.994   6.873  18.295  0.00  0.00    +0.000 A 
BRANCH  19  22
ATOM     22  O   UNL     1       1.888  10.228  17.422  0.00  0.00    +0.000 OA
ATOM     23  H   UNL     1       1.255  10.049  16.708  0.00  0.00    +0.000 HD
ENDBRANCH  19  22
ENDBRANCH  15  16
ENDBRANCH  14  15
ENDBRANCH   2  14
TORSDOF 10
ENDMDL
MODEL 2
REMARK VINA RESULT:      -7.1      3.937      6.670
REMARK  Name = 
REMARK  10 active torsions:
REMARK  status: ('A' for Active; 'I' for Inactive)
REMARK    1  A    between atoms: C_2  and  C_3
REMARK    2  A    between atoms: C_2  and  C_14
REMARK    3  A    between atoms: C_3  and  C_4
REMARK    4  A    between atoms: C_4  and  C_5
REMARK    5  A    between atoms: C_5  and  C_6
REMARK    6  A    between atoms: C_6  and  C_7
REMARK    7  A    between atoms: C_7  and  C_8
REMARK    8  A    between atoms: C_14  and  C_15
REMARK    9  A    between atoms: C_15  and  C_16
REMARK   10  A    between atoms: C_19  and  O_20
REMARK                            x       y       z     vdW  Elec       q    Type
REMARK                         _______ _______ _______ _____ _____    ______ ____
ROOT
ATOM      1  O   UNL     1       8.152   4.282  17.042  0.00  0.00    +0.000 OA
ATOM      2  C   UNL     1       7.089   4.894  17.135  0.00  0.00    +0.000 C 
ENDROOT
BRANCH   2   3
ATOM      3  C   UNL     1       6.932   6.097  18.050  0.00  0.00    +0.000 C 
BRANCH   3   4
ATOM      4  C   UNL     1       7.681   7.322  17.529  0.00  0.00    +0.000 C 
BRANCH   4   5
ATOM      5  C   UNL     1       8.436   8.026  18.658  0.00  0.00    +0.000 C 
BRANCH   5   6
ATOM      6  C   UNL     1       8.649   9.509  18.350  0.00  0.00    +0.000 C 
BRANCH   6   7
ATOM      7  C   UNL     1       9.214  10.246  19.566  0.00  0.00    +0.000 C 
BRANCH   7   8
ATOM      8  C   UNL     1      10.262  11.254  19.166  0.00  0.00    +0.000 A 
ATOM      9  C   UNL     1      10.434  11.604  17.820  0.00  0.00    +0.000 A 
ATOM     10  C   UNL     1      11.428  12.511  17.449  0.00  0.00    +0.000 A 
ATOM     11  C   UNL     1      12.257  13.073  18.416  0.00  0.00    +0.000 A 
ATOM     12  C   UNL     1      12.093  12.732  19.757  0.00  0.00    +0.000 A 
ATOM     13  C   UNL     1      11.101  11.825  20.132  0.00  0.00    +0.000 A 
ENDBRANCH   7   8
ENDBRANCH   6   7
ENDBRANCH   5   6
ENDBRANCH   4   5
ENDBRANCH   3   4
ENDBRANCH   2   3
BRANCH   2  14
ATOM     14  C   UNL     1       5.860   4.487  16.343  0.00  0.00    +0.000 C 
BRANCH  14  15
ATOM     15  C   UNL     1       4.648   5.340  16.703  0.00  0.00    +0.000 C 
BRANCH  15  16
ATOM     16  C   UNL     1       3.527   4.500  17.267  0.00  0.00    +0.000 A 
ATOM     17  C   UNL     1       3.599   3.100  17.224  0.00  0.00    +0.000 A 
ATOM     18  C   UNL     1       2.561   2.317  17.736  0.00  0.00    +0.000 A 
ATOM     19  C   UNL     1       1.446   2.939  18.290  0.00  0.00    +0.000 A 
ATOM     20  C   UNL     1       1.353   4.325  18.332  0.00  0.00    +0.000 A 
ATOM     21  C   UNL     1       2.391   5.105  17.823  0.00  0.00    +0.000 A 
BRANCH  19  22
ATOM     22  O   UNL     1       0.412   2.215  18.807  0.00  0.00    +0.000 OA
ATOM     23  H   UNL     1      -0.088   2.784  19.415  0.00  0.00    +0.000 HD
ENDBRANCH  19  22
ENDBRANCH  15  16
ENDBRANCH  14  15
ENDBRANCH   2  14
TORSDOF 10
ENDMDL
MODEL 3
REMARK VINA RESULT:      -7.0      0.991      1.558
REMARK  Name = 
REMARK  10 active torsions:
REMARK  status: ('A' for Active; 'I' for Inactive)
REMARK    1  A    between atoms: C_2  and  C_3
REMARK    2  A    between atoms: C_2  and  C_14
REMARK    3  A    between atoms: C_3  and  C_4
REMARK    4  A    between atoms: C_4  and  C_5
REMARK    5  A    between atoms: C_5  and  C_6
REMARK    6  A    between atoms: C_6  and  C_7
REMARK    7  A    between atoms: C_7  and  C_8
REMARK    8  A    between atoms: C_14  and  C_15
REMARK    9  A    between atoms: C_15  and  C_16
REMARK   10  A    between atoms: C_19  and  O_20
REMARK                            x       y       z     vdW  Elec       q    Type
REMARK                         _______ _______ _______ _____ _____    ______ ____
ROOT
ATOM      1  O   UNL     1       2.268   3.253  22.115  0.00  0.00    +0.000 OA
ATOM      2  C   UNL     1       1.663   3.394  21.053  0.00  0.00    +0.000 C 
ENDROOT
BRANCH   2   3
ATOM      3  C   UNL     1       1.287   2.210  20.179  0.00  0.00    +0.000 C 
BRANCH   3   4
ATOM      4  C   UNL     1       2.304   1.966  19.066  0.00  0.00    +0.000 C 
BRANCH   4   5
ATOM      5  C   UNL     1       1.947   2.761  17.810  0.00  0.00    +0.000 C 
BRANCH   5   6
ATOM      6  C   UNL     1       3.119   3.625  17.341  0.00  0.00    +0.000 C 
BRANCH   6   7
ATOM      7  C   UNL     1       4.347   3.412  18.229  0.00  0.00    +0.000 C 
BRANCH   7   8
ATOM      8  C   UNL     1       5.406   4.452  17.970  0.00  0.00    +0.000 A 
ATOM      9  C   UNL     1       6.085   5.058  19.037  0.00  0.00    +0.000 A 
ATOM     10  C   UNL     1       7.040   6.045  18.796  0.00  0.00    +0.000 A 
ATOM     11  C   UNL     1       7.326   6.438  17.491  0.00  0.00    +0.000 A 
ATOM     12  C   UNL     1       6.657   5.843  16.423  0.00  0.00    +0.000 A 
ATOM     13  C   UNL     1       5.701   4.854  16.661  0.00  0.00    +0.000 A 
ENDBRANCH   7   8
ENDBRANCH   6   7
ENDBRANCH   5   6
ENDBRANCH   4   5
ENDBRANCH   3   4
ENDBRANCH   2   3
BRANCH   2  14
ATOM     14  C   UNL     1       1.252   4.763  20.543  0.00  0.00    +0.000 C 
BRANCH  14  15
ATOM     15  C   UNL     1       2.306   5.821  20.852  0.00  0.00    +0.000 C 
BRANCH  15  16
ATOM     16  C   UNL     1       2.192   7.004  19.921  0.00  0.00    +0.000 A 
ATOM     17  C   UNL     1       1.471   8.144  20.305  0.00  0.00    +0.000 A 
ATOM     18  C   UNL     1       1.355   9.238  19.444  0.00  0.00    +0.000 A 
ATOM     19  C   UNL     1       1.960   9.189  18.192  0.00  0.00    +0.000 A 
ATOM     20  C   UNL     1       2.670   8.064  17.789  0.00  0.00    +0.000 A 
ATOM     21  C   UNL     1       2.787   6.973  18.652  0.00  0.00    +0.000 A 
BRANCH  19  22
ATOM     22  O   UNL     1       1.878  10.235  17.321  0.00  0.00    +0.000 OA
ATOM     23  H   UNL     1       2.052  11.056  17.810  0.00  0.00    +0.000 HD
ENDBRANCH  19  22
ENDBRANCH  15  16
ENDBRANCH  14  15
ENDBRANCH   2  14
TORSDOF 10
ENDMDL
MODEL 4
REMARK VINA RESULT:      -7.0      1.858      5.128
REMARK  Name = 
REMARK  10 active torsions:
REMARK  status: ('A' for Active; 'I' for Inactive)
REMARK    1  A    between atoms: C_2  and  C_3
REMARK    2  A    between atoms: C_2  and  C_14
REMARK    3  A    between atoms: C_3  and  C_4
REMARK    4  A    between atoms: C_4  and  C_5
REMARK    5  A    between atoms: C_5  and  C_6
REMARK    6  A    between atoms: C_6  and  C_7
REMARK    7  A    between atoms: C_7  and  C_8
REMARK    8  A    between atoms: C_14  and  C_15
REMARK    9  A    between atoms: C_15  and  C_16
REMARK   10  A    between atoms: C_19  and  O_20
REMARK                            x       y       z     vdW  Elec       q    Type
REMARK                         _______ _______ _______ _____ _____    ______ ____
ROOT
ATOM      1  O   UNL     1       1.036   3.455  17.832  0.00  0.00    +0.000 OA
ATOM      2  C   UNL     1       1.924   2.844  18.425  0.00  0.00    +0.000 C 
ENDROOT
BRANCH   2   3
ATOM      3  C   UNL     1       1.668   2.133  19.743  0.00  0.00    +0.000 C 
BRANCH   3   4
ATOM      4  C   UNL     1       1.278   3.102  20.858  0.00  0.00    +0.000 C 
BRANCH   4   5
ATOM      5  C   UNL     1       2.321   4.210  21.014  0.00  0.00    +0.000 C 
BRANCH   5   6
ATOM      6  C   UNL     1       1.746   5.578  20.644  0.00  0.00    +0.000 C 
BRANCH   6   7
ATOM      7  C   UNL     1       2.668   6.317  19.672  0.00  0.00    +0.000 C 
BRANCH   7   8
ATOM      8  C   UNL     1       2.153   7.699  19.360  0.00  0.00    +0.000 A 
ATOM      9  C   UNL     1       1.346   8.381  20.281  0.00  0.00    +0.000 A 
ATOM     10  C   UNL     1       0.842   9.646  19.975  0.00  0.00    +0.000 A 
ATOM     11  C   UNL     1       1.137  10.238  18.749  0.00  0.00    +0.000 A 
ATOM     12  C   UNL     1       1.938   9.568  17.828  0.00  0.00    +0.000 A 
ATOM     13  C   UNL     1       2.444   8.303  18.130  0.00  0.00    +0.000 A 
ENDBRANCH   7   8
ENDBRANCH   6   7
ENDBRANCH   5   6
ENDBRANCH   4   5
ENDBRANCH   3   4
ENDBRANCH   2   3
BRANCH   2  14
ATOM     14  C   UNL     1       3.338   2.759  17.880  0.00  0.00    +0.000 C 
BRANCH  14  15
ATOM     15  C   UNL     1       3.606   3.838  16.835  0.00  0.00    +0.000 C 
BRANCH  15  16
ATOM     16  C   UNL     1       4.758   4.726  17.239  0.00  0.00    +0.000 A 
ATOM     17  C   UNL     1       5.160   5.788  16.415  0.00  0.00    +0.000 A 
ATOM     18  C   UNL     1       6.232   6.606  16.781  0.00  0.00    +0.000 A 
ATOM     19  C   UNL     1       6.905   6.359  17.973  0.00  0.00    +0.000 A 
ATOM     20  C   UNL     1       6.528   5.306  18.797  0.00  0.00    +0.000 A 
ATOM     21  C   UNL     1       5.456   4.490  18.432  0.00  0.00    +0.000 A 
BRANCH  19  22
ATOM     22  O   UNL     1       7.953   7.136  18.372  0.00  0.00    +0.000 OA
ATOM     23  H   UNL     1       8.439   6.663  19.067  0.00  0.00    +0.000 HD
ENDBRANCH  19  22
ENDBRANCH  15  16
ENDBRANCH  14  15
ENDBRANCH   2  14
TORSDOF 10
ENDMDL
MODEL 5
REMARK VINA RESULT:      -6.8      3.511      6.224
REMARK  Name = 
REMARK  10 active torsions:
REMARK  status: ('A' for Active; 'I' for Inactive)
REMARK    1  A    between atoms: C_2  and  C_3
REMARK    2  A    between atoms: C_2  and  C_14
REMARK    3  A    between atoms: C_3  and  C_4
REMARK    4  A    between atoms: C_4  and  C_5
REMARK    5  A    between atoms: C_5  and  C_6
REMARK    6  A    between atoms: C_6  and  C_7
REMARK    7  A    between atoms: C_7  and  C_8
REMARK    8  A    between atoms: C_14  and  C_15
REMARK    9  A    between atoms: C_15  and  C_16
REMARK   10  A    between atoms: C_19  and  O_20
REMARK                            x       y       z     vdW  Elec       q    Type
REMARK                         _______ _______ _______ _____ _____    ______ ____
ROOT
ATOM      1  O   UNL     1       5.823   6.138  15.355  0.00  0.00    +0.000 OA
ATOM      2  C   UNL     1       5.962   5.426  16.348  0.00  0.00    +0.000 C 
ENDROOT
BRANCH   2   3
ATOM      3  C   UNL     1       7.253   5.406  17.148  0.00  0.00    +0.000 C 
BRANCH   3   4
ATOM      4  C   UNL     1       7.316   6.536  18.175  0.00  0.00    +0.000 C 
BRANCH   4   5
ATOM      5  C   UNL     1       7.799   7.837  17.533  0.00  0.00    +0.000 C 
BRANCH   5   6
ATOM      6  C   UNL     1       8.547   8.714  18.538  0.00  0.00    +0.000 C 
BRANCH   6   7
ATOM      7  C   UNL     1       8.528  10.182  18.106  0.00  0.00    +0.000 C 
BRANCH   7   8
ATOM      8  C   UNL     1       9.713  10.937  18.653  0.00  0.00    +0.000 A 
ATOM      9  C   UNL     1       9.862  11.123  20.034  0.00  0.00    +0.000 A 
ATOM     10  C   UNL     1      10.941  11.852  20.535  0.00  0.00    +0.000 A 
ATOM     11  C   UNL     1      11.878  12.402  19.664  0.00  0.00    +0.000 A 
ATOM     12  C   UNL     1      11.739  12.222  18.289  0.00  0.00    +0.000 A 
ATOM     13  C   UNL     1      10.660  11.494  17.784  0.00  0.00    +0.000 A 
ENDBRANCH   7   8
ENDBRANCH   6   7
ENDBRANCH   5   6
ENDBRANCH   4   5
ENDBRANCH   3   4
ENDBRANCH   2   3
BRANCH   2  14
ATOM     14  C   UNL     1       4.852   4.517  16.842  0.00  0.00    +0.000 C 
BRANCH  14  15
ATOM     15  C   UNL     1       3.711   5.310  17.473  0.00  0.00    +0.000 C 
BRANCH  15  16
ATOM     16  C   UNL     1       3.223   4.660  18.745  0.00  0.00    +0.000 A 
ATOM     17  C   UNL     1       2.710   5.441  19.791  0.00  0.00    +0.000 A 
ATOM     18  C   UNL     1       2.265   4.846  20.974  0.00  0.00    +0.000 A 
ATOM     19  C   UNL     1       2.338   3.463  21.112  0.00  0.00    +0.000 A 
ATOM     20  C   UNL     1       2.853   2.673  20.091  0.00  0.00    +0.000 A 
ATOM     21  C   UNL     1       3.294   3.269  18.909  0.00  0.00    +0.000 A 
BRANCH  19  22
ATOM     22  O   UNL     1       1.910   2.838  22.246  0.00  0.00    +0.000 OA
ATOM     23  H   UNL     1       2.095   1.889  22.163  0.00  0.00    +0.000 HD
ENDBRANCH  19  22
ENDBRANCH  15  16
ENDBRANCH  14  15
ENDBRANCH   2  14
TORSDOF 10
ENDMDL
MODEL 6
REMARK VINA RESULT:      -6.8      1.064      1.902
REMARK  Name = 
REMARK  10 active torsions:
REMARK  status: ('A' for Active; 'I' for Inactive)
REMARK    1  A    between atoms: C_2  and  C_3
REMARK    2  A    between atoms: C_2  and  C_14
REMARK    3  A    between atoms: C_3  and  C_4
REMARK    4  A    between atoms: C_4  and  C_5
REMARK    5  A    between atoms: C_5  and  C_6
REMARK    6  A    between atoms: C_6  and  C_7
REMARK    7  A    between atoms: C_7  and  C_8
REMARK    8  A    between atoms: C_14  and  C_15
REMARK    9  A    between atoms: C_15  and  C_16
REMARK   10  A    between atoms: C_19  and  O_20
REMARK                            x       y       z     vdW  Elec       q    Type
REMARK                         _______ _______ _______ _____ _____    ______ ____
ROOT
ATOM      1  O   UNL     1       2.135   3.473  22.047  0.00  0.00    +0.000 OA
ATOM      2  C   UNL     1       1.901   4.099  21.014  0.00  0.00    +0.000 C 
ENDROOT
BRANCH   2   3
ATOM      3  C   UNL     1       1.727   3.403  19.675  0.00  0.00    +0.000 C 
BRANCH   3   4
ATOM      4  C   UNL     1       2.998   2.685  19.226  0.00  0.00    +0.000 C 
BRANCH   4   5
ATOM      5  C   UNL     1       3.095   2.640  17.700  0.00  0.00    +0.000 C 
BRANCH   5   6
ATOM      6  C   UNL     1       4.342   3.368  17.195  0.00  0.00    +0.000 C 
BRANCH   6   7
ATOM      7  C   UNL     1       4.182   4.884  17.328  0.00  0.00    +0.000 C 
BRANCH   7   8
ATOM      8  C   UNL     1       5.486   5.550  17.687  0.00  0.00    +0.000 A 
ATOM      9  C   UNL     1       6.230   5.108  18.790  0.00  0.00    +0.000 A 
ATOM     10  C   UNL     1       7.419   5.748  19.142  0.00  0.00    +0.000 A 
ATOM     11  C   UNL     1       7.874   6.834  18.398  0.00  0.00    +0.000 A 
ATOM     12  C   UNL     1       7.142   7.281  17.300  0.00  0.00    +0.000 A 
ATOM     13  C   UNL     1       5.952   6.643  16.946  0.00  0.00    +0.000 A 
ENDBRANCH   7   8
ENDBRANCH   6   7
ENDBRANCH   5   6
ENDBRANCH   4   5
ENDBRANCH   3   4
ENDBRANCH   2   3
BRANCH   2  14
ATOM     14  C   UNL     1       1.771   5.611  21.007  0.00  0.00    +0.000 C 
BRANCH  14  15
ATOM     15  C   UNL     1       2.688   6.252  19.969  0.00  0.00    +0.000 C 
BRANCH  15  16
ATOM     16  C   UNL     1       2.137   7.571  19.484  0.00  0.00    +0.000 A 
ATOM     17  C   UNL     1       2.404   8.017  18.181  0.00  0.00    +0.000 A 
ATOM     18  C   UNL     1       1.904   9.241  17.730  0.00  0.00    +0.000 A 
ATOM     19  C   UNL     1       1.136  10.023  18.588  0.00  0.00    +0.000 A 
ATOM     20  C   UNL     1       0.869   9.603  19.885  0.00  0.00    +0.000 A 
ATOM     21  C   UNL     1       1.367   8.379  20.334  0.00  0.00    +0.000 A 
BRANCH  19  22
ATOM     22  O   UNL     1       0.622  11.221  18.188  0.00  0.00    +0.000 OA
ATOM     23  H   UNL     1      -0.347  11.167  18.221  0.00  0.00    +0.000 HD
ENDBRANCH  19  22
ENDBRANCH  15  16
ENDBRANCH  14  15
ENDBRANCH   2  14
TORSDOF 10
ENDMDL
MODEL 7
REMARK VINA RESULT:      -6.7      3.988      7.363
REMARK  Name = 
REMARK  10 active torsions:
REMARK  status: ('A' for Active; 'I' for Inactive)
REMARK    1  A    between atoms: C_2  and  C_3
REMARK    2  A    between atoms: C_2  and  C_14
REMARK    3  A    between atoms: C_3  and  C_4
REMARK    4  A    between atoms: C_4  and  C_5
REMARK    5  A    between atoms: C_5  and  C_6
REMARK    6  A    between atoms: C_6  and  C_7
REMARK    7  A    between atoms: C_7  and  C_8
REMARK    8  A    between atoms: C_14  and  C_15
REMARK    9  A    between atoms: C_15  and  C_16
REMARK   10  A    between atoms: C_19  and  O_20
REMARK                            x       y       z     vdW  Elec       q    Type
REMARK                         _______ _______ _______ _____ _____    ______ ____
ROOT
ATOM      1  O   UNL     1       6.664   7.454  16.675  0.00  0.00    +0.000 OA
ATOM      2  C   UNL     1       7.473   7.700  17.568  0.00  0.00    +0.000 C 
ENDROOT
BRANCH   2   3
ATOM      3  C   UNL     1       7.911   6.645  18.570  0.00  0.00    +0.000 C 
BRANCH   3   4
ATOM      4  C   UNL     1       7.423   5.248  18.190  0.00  0.00    +0.000 C 
BRANCH   4   5
ATOM      5  C   UNL     1       6.040   4.968  18.779  0.00  0.00    +0.000 C 
BRANCH   5   6
ATOM      6  C   UNL     1       5.075   4.438  17.718  0.00  0.00    +0.000 C 
BRANCH   6   7
ATOM      7  C   UNL     1       3.773   5.242  17.712  0.00  0.00    +0.000 C 
BRANCH   7   8
ATOM      8  C   UNL     1       2.707   4.578  18.546  0.00  0.00    +0.000 A 
ATOM      9  C   UNL     1       2.478   4.991  19.866  0.00  0.00    +0.000 A 
ATOM     10  C   UNL     1       1.515   4.353  20.648  0.00  0.00    +0.000 A 
ATOM     11  C   UNL     1       0.775   3.297  20.121  0.00  0.00    +0.000 A 
ATOM     12  C   UNL     1       0.995   2.879  18.810  0.00  0.00    +0.000 A 
ATOM     13  C   UNL     1       1.957   3.516  18.025  0.00  0.00    +0.000 A 
ENDBRANCH   7   8
ENDBRANCH   6   7
ENDBRANCH   5   6
ENDBRANCH   4   5
ENDBRANCH   3   4
ENDBRANCH   2   3
BRANCH   2  14
ATOM     14  C   UNL     1       8.089   9.077  17.732  0.00  0.00    +0.000 C 
BRANCH  14  15
ATOM     15  C   UNL     1       8.885   9.191  19.029  0.00  0.00    +0.000 C 
BRANCH  15  16
ATOM     16  C   UNL     1       9.545  10.542  19.157  0.00  0.00    +0.000 A 
ATOM     17  C   UNL     1       9.749  11.116  20.420  0.00  0.00    +0.000 A 
ATOM     18  C   UNL     1      10.352  12.370  20.544  0.00  0.00    +0.000 A 
ATOM     19  C   UNL     1      10.747  13.054  19.399  0.00  0.00    +0.000 A 
ATOM     20  C   UNL     1      10.544  12.507  18.138  0.00  0.00    +0.000 A 
ATOM     21  C   UNL     1       9.945  11.252  18.016  0.00  0.00    +0.000 A 
BRANCH  19  22
ATOM     22  O   UNL     1      11.345  14.278  19.472  0.00  0.00    +0.000 OA
ATOM     23  H   UNL     1      10.694  14.954  19.219  0.00  0.00    +0.000 HD
ENDBRANCH  19  22
ENDBRANCH  15  16
ENDBRANCH  14  15
ENDBRANCH   2  14
TORSDOF 10
ENDMDL
MODEL 8
REMARK VINA RESULT:      -6.5      2.129      4.849
REMARK  Name = 
REMARK  10 active torsions:
REMARK  status: ('A' for Active; 'I' for Inactive)
REMARK    1  A    between atoms: C_2  and  C_3
REMARK    2  A    between atoms: C_2  and  C_14
REMARK    3  A    between atoms: C_3  and  C_4
REMARK    4  A    between atoms: C_4  and  C_5
REMARK    5  A    between atoms: C_5  and  C_6
REMARK    6  A    between atoms: C_6  and  C_7
REMARK    7  A    between atoms: C_7  and  C_8
REMARK    8  A    between atoms: C_14  and  C_15
REMARK    9  A    between atoms: C_15  and  C_16
REMARK   10  A    between atoms: C_19  and  O_20
REMARK                            x       y       z     vdW  Elec       q    Type
REMARK                         _______ _______ _______ _____ _____    ______ ____
ROOT
ATOM      1  O   UNL     1       6.990   7.723  17.202  0.00  0.00    +0.000 OA
ATOM      2  C   UNL     1       6.077   6.900  17.149  0.00  0.00    +0.000 C 
ENDROOT
BRANCH   2   3
ATOM      3  C   UNL     1       6.314   5.420  17.396  0.00  0.00    +0.000 C 
BRANCH   3   4
ATOM      4  C   UNL     1       6.343   4.613  16.099  0.00  0.00    +0.000 C 
BRANCH   4   5
ATOM      5  C   UNL     1       5.153   3.655  16.020  0.00  0.00    +0.000 C 
BRANCH   5   6
ATOM      6  C   UNL     1       4.671   3.242  17.412  0.00  0.00    +0.000 C 
BRANCH   6   7
ATOM      7  C   UNL     1       3.164   2.979  17.414  0.00  0.00    +0.000 C 
BRANCH   7   8
ATOM      8  C   UNL     1       2.576   3.136  18.793  0.00  0.00    +0.000 A 
ATOM      9  C   UNL     1       3.204   2.555  19.904  0.00  0.00    +0.000 A 
ATOM     10  C   UNL     1       2.640   2.671  21.175  0.00  0.00    +0.000 A 
ATOM     11  C   UNL     1       1.444   3.365  21.347  0.00  0.00    +0.000 A 
ATOM     12  C   UNL     1       0.812   3.946  20.250  0.00  0.00    +0.000 A 
ATOM     13  C   UNL     1       1.375   3.832  18.978  0.00  0.00    +0.000 A 
ENDBRANCH   7   8
ENDBRANCH   6   7
ENDBRANCH   5   6
ENDBRANCH   4   5
ENDBRANCH   3   4
ENDBRANCH   2   3
BRANCH   2  14
ATOM     14  C   UNL     1       4.650   7.308  16.831  0.00  0.00    +0.000 C 
BRANCH  14  15
ATOM     15  C   UNL     1       3.642   6.559  17.698  0.00  0.00    +0.000 C 
BRANCH  15  16
ATOM     16  C   UNL     1       2.730   7.511  18.433  0.00  0.00    +0.000 A 
ATOM     17  C   UNL     1       2.343   7.245  19.755  0.00  0.00    +0.000 A 
ATOM     18  C   UNL     1       1.493   8.118  20.438  0.00  0.00    +0.000 A 
ATOM     19  C   UNL     1       1.025   9.260  19.793  0.00  0.00    +0.000 A 
ATOM     20  C   UNL     1       1.389   9.535  18.481  0.00  0.00    +0.000 A 
ATOM     21  C   UNL     1       2.241   8.663  17.801  0.00  0.00    +0.000 A 
BRANCH  19  22
ATOM     22  O   UNL     1       0.198  10.143  20.423  0.00  0.00    +0.000 OA
ATOM     23  H   UNL     1       0.422  11.040  20.125  0.00  0.00    +0.000 HD
ENDBRANCH  19  22
ENDBRANCH  15  16
ENDBRANCH  14  15
ENDBRANCH   2  14
TORSDOF 10
ENDMDL
MODEL 9
REMARK VINA RESULT:      -6.5      3.599      6.344
REMARK  Name = 
REMARK  10 active torsions:
REMARK  status: ('A' for Active; 'I' for Inactive)
REMARK    1  A    between atoms: C_2  and  C_3
REMARK    2  A    between atoms: C_2  and  C_14
REMARK    3  A    between atoms: C_3  and  C_4
REMARK    4  A    between atoms: C_4  and  C_5
REMARK    5  A    between atoms: C_5  and  C_6
REMARK    6  A    between atoms: C_6  and  C_7
REMARK    7  A    between atoms: C_7  and  C_8
REMARK    8  A    between atoms: C_14  and  C_15
REMARK    9  A    between atoms: C_15  and  C_16
REMARK   10  A    between atoms: C_19  and  O_20
REMARK                            x       y       z     vdW  Elec       q    Type
REMARK                         _______ _______ _______ _____ _____    ______ ____
ROOT
ATOM      1  O   UNL     1       7.367   5.030  15.403  0.00  0.00    +0.000 OA
ATOM      2  C   UNL     1       6.422   5.230  16.164  0.00  0.00    +0.000 C 
ENDROOT
BRANCH   2   3
ATOM      3  C   UNL     1       5.903   6.629  16.450  0.00  0.00    +0.000 C 
BRANCH   3   4
ATOM      4  C   UNL     1       6.544   7.242  17.693  0.00  0.00    +0.000 C 
BRANCH   4   5
ATOM      5  C   UNL     1       7.870   7.924  17.350  0.00  0.00    +0.000 C 
BRANCH   5   6
ATOM      6  C   UNL     1       8.274   8.935  18.424  0.00  0.00    +0.000 C 
BRANCH   6   7
ATOM      7  C   UNL     1       8.610  10.292  17.802  0.00  0.00    +0.000 C 
BRANCH   7   8
ATOM      8  C   UNL     1       9.744  10.970  18.527  0.00  0.00    +0.000 A 
ATOM      9  C   UNL     1       9.710  11.117  19.921  0.00  0.00    +0.000 A 
ATOM     10  C   UNL     1      10.745  11.775  20.587  0.00  0.00    +0.000 A 
ATOM     11  C   UNL     1      11.819  12.294  19.868  0.00  0.00    +0.000 A 
ATOM     12  C   UNL     1      11.863  12.152  18.482  0.00  0.00    +0.000 A 
ATOM     13  C   UNL     1      10.830  11.494  17.814  0.00  0.00    +0.000 A 
ENDBRANCH   7   8
ENDBRANCH   6   7
ENDBRANCH   5   6
ENDBRANCH   4   5
ENDBRANCH   3   4
ENDBRANCH   2   3
BRANCH   2  14
ATOM     14  C   UNL     1       5.709   4.092  16.870  0.00  0.00    +0.000 C 
BRANCH  14  15
ATOM     15  C   UNL     1       4.320   3.848  16.288  0.00  0.00    +0.000 C 
BRANCH  15  16
ATOM     16  C   UNL     1       3.284   3.692  17.376  0.00  0.00    +0.000 A 
ATOM     17  C   UNL     1       2.666   2.452  17.596  0.00  0.00    +0.000 A 
ATOM     18  C   UNL     1       1.701   2.305  18.595  0.00  0.00    +0.000 A 
ATOM     19  C   UNL     1       1.351   3.404  19.374  0.00  0.00    +0.000 A 
ATOM     20  C   UNL     1       1.945   4.642  19.164  0.00  0.00    +0.000 A 
ATOM     21  C   UNL     1       2.910   4.787  18.168  0.00  0.00    +0.000 A 
BRANCH  19  22
ATOM     22  O   UNL     1       0.418   3.304  20.365  0.00  0.00    +0.000 OA
ATOM     23  H   UNL     1      -0.128   4.107  20.355  0.00  0.00    +0.000 HD
ENDBRANCH  19  22
ENDBRANCH  15  16
ENDBRANCH  14  15
ENDBRANCH   2  14
TORSDOF 10
ENDMDL
