MODEL 1
REMARK VINA RESULT:      -8.0      0.000      0.000
REMARK  Name = 
REMARK  13 active torsions:
REMARK  status: ('A' for Active; 'I' for Inactive)
REMARK    1  A    between atoms: C_2  and  C_3
REMARK    2  A    between atoms: C_3  and  O_5
REMARK    3  A    between atoms: O_5  and  C_6
REMARK    4  A    between atoms: C_9  and  C_10
REMARK    5  A    between atoms: C_10  and  C_12
REMARK    6  A    between atoms: C_13  and  C_14
REMARK    7  A    between atoms: C_17  and  N_18
REMARK    8  A    between atoms: N_18  and  C_19
REMARK    9  A    between atoms: N_18  and  C_21
REMARK   10  A    between atoms: C_19  and  C_20
REMARK   11  A    between atoms: C_21  and  C_22
REMARK   12  A    between atoms: C_29  and  C_30
REMARK   13  A    between atoms: C_29  and  C_31
REMARK                            x       y       z     vdW  Elec       q    Type
REMARK                         _______ _______ _______ _____ _____    ______ ____
ROOT
ATOM      1  C   UNL     1       4.413   5.972  16.775  0.00  0.00    +0.000 A 
ATOM      2  C   UNL     1       4.166   7.260  17.284  0.00  0.00    +0.000 A 
ATOM      3  C   UNL     1       3.371   7.427  18.413  0.00  0.00    +0.000 A 
ATOM      4  C   UNL     1       2.763   6.328  19.022  0.00  0.00    +0.000 A 
ATOM      5  C   UNL     1       2.980   5.042  18.489  0.00  0.00    +0.000 A 
ATOM      6  C   UNL     1       3.804   4.846  17.358  0.00  0.00    +0.000 A 
ATOM      7  C   UNL     1       3.969   3.480  16.849  0.00  0.00    +0.000 C 
ATOM      8  C   UNL     1       3.558   2.458  17.625  0.00  0.00    +0.000 C 
ATOM      9  C   UNL     1       2.943   2.690  18.981  0.00  0.00    +0.000 C 
ATOM     10  C   UNL     1       3.995   2.561  20.089  0.00  0.00    +0.000 C 
ATOM     11  C   UNL     1       1.798   1.702  19.245  0.00  0.00    +0.000 C 
ATOM     12  O   UNL     1       2.345   3.991  19.098  0.00  0.00    +0.000 OA
ENDROOT
BRANCH   4  13
ATOM     13  C   UNL     1       1.972   6.588  20.261  0.00  0.00    +0.000 C 
ATOM     14  O   UNL     1       1.931   5.737  21.145  0.00  0.00    +0.000 OA
BRANCH  13  15
ATOM     15  C   UNL     1       1.302   7.908  20.424  0.00  0.00    +0.000 C 
ATOM     16  C   UNL     1       1.175   8.487  21.629  0.00  0.00    +0.000 C 
BRANCH  16  17
ATOM     17  C   UNL     1       0.501   9.783  21.827  0.00  0.00    +0.000 A 
ATOM     18  C   UNL     1      -0.462   9.926  22.825  0.00  0.00    +0.000 A 
ATOM     19  C   UNL     1      -1.136  11.148  23.002  0.00  0.00    +0.000 A 
ATOM     20  C   UNL     1      -0.865  12.279  22.212  0.00  0.00    +0.000 A 
ATOM     21  C   UNL     1       0.148  12.131  21.259  0.00  0.00    +0.000 A 
ATOM     22  C   UNL     1       0.814  10.907  21.060  0.00  0.00    +0.000 A 
BRANCH  20  23
ATOM     23  N   UNL     1      -1.586  13.464  22.325  0.00  0.00    +0.000 N 
BRANCH  23  24
ATOM     24  C   UNL     1      -1.986  13.978  23.640  0.00  0.00    +0.000 C 
ATOM     25  C   UNL     1      -1.119  15.146  24.092  0.00  0.00    +0.000 C 
ENDBRANCH  23  24
BRANCH  23  26
ATOM     26  C   UNL     1      -2.193  14.086  21.144  0.00  0.00    +0.000 C 
ATOM     27  C   UNL     1      -3.439  13.326  20.711  0.00  0.00    +0.000 C 
ENDBRANCH  23  26
ENDBRANCH  20  23
ENDBRANCH  16  17
ENDBRANCH  13  15
ENDBRANCH   4  13
BRANCH   1  28
ATOM     28  O   UNL     1       5.196   5.845  15.605  0.00  0.00    +0.000 OA
BRANCH  28  29
ATOM     29  C   UNL     1       6.542   5.561  15.808  0.00  0.00    +0.000 C 
ATOM     30  O   UNL     1       7.364   6.234  16.411  0.00  0.00    +0.000 OA
BRANCH  29  32
ATOM     31  C   UNL     1       6.241   4.050  13.904  0.00  0.00    +0.000 C 
ATOM     32  C   UNL     1       6.872   4.330  15.048  0.00  0.00    +0.000 C 
ENDBRANCH  29  32
ENDBRANCH  28  29
ENDBRANCH   1  28
TORSDOF 9
ENDMDL
MODEL 2
REMARK VINA RESULT:      -7.7      1.802      2.413
REMARK  Name = 
REMARK  13 active torsions:
REMARK  status: ('A' for Active; 'I' for Inactive)
REMARK    1  A    between atoms: C_2  and  C_3
REMARK    2  A    between atoms: C_3  and  O_5
REMARK    3  A    between atoms: O_5  and  C_6
REMARK    4  A    between atoms: C_9  and  C_10
REMARK    5  A    between atoms: C_10  and  C_12
REMARK    6  A    between atoms: C_13  and  C_14
REMARK    7  A    between atoms: C_17  and  N_18
REMARK    8  A    between atoms: N_18  and  C_19
REMARK    9  A    between atoms: N_18  and  C_21
REMARK   10  A    between atoms: C_19  and  C_20
REMARK   11  A    between atoms: C_21  and  C_22
REMARK   12  A    between atoms: C_29  and  C_30
REMARK   13  A    between atoms: C_29  and  C_31
REMARK                            x       y       z     vdW  Elec       q    Type
REMARK                         _______ _______ _______ _____ _____    ______ ____
ROOT
ATOM      1  C   UNL     1       4.551   5.510  16.690  0.00  0.00    +0.000 A 
ATOM      2  C   UNL     1       4.605   6.896  16.919  0.00  0.00    +0.000 A 
ATOM      3  C   UNL     1       3.773   7.482  17.868  0.00  0.00    +0.000 A 
ATOM      4  C   UNL     1       2.838   6.715  18.563  0.00  0.00    +0.000 A 
ATOM      5  C   UNL     1       2.758   5.332  18.306  0.00  0.00    +0.000 A 
ATOM      6  C   UNL     1       3.611   4.711  17.365  0.00  0.00    +0.000 A 
ATOM      7  C   UNL     1       3.459   3.270  17.136  0.00  0.00    +0.000 C 
ATOM      8  C   UNL     1       2.715   2.563  18.009  0.00  0.00    +0.000 C 
ATOM      9  C   UNL     1       2.050   3.215  19.194  0.00  0.00    +0.000 C 
ATOM     10  C   UNL     1       2.914   3.072  20.454  0.00  0.00    +0.000 C 
ATOM     11  C   UNL     1       0.664   2.607  19.454  0.00  0.00    +0.000 C 
ATOM     12  O   UNL     1       1.810   4.615  18.988  0.00  0.00    +0.000 OA
ENDROOT
BRANCH   4  13
ATOM     13  C   UNL     1       2.024   7.410  19.604  0.00  0.00    +0.000 C 
ATOM     14  O   UNL     1       1.609   6.780  20.572  0.00  0.00    +0.000 OA
BRANCH  13  15
ATOM     15  C   UNL     1       1.789   8.875  19.474  0.00  0.00    +0.000 C 
ATOM     16  C   UNL     1       0.684   9.456  19.969  0.00  0.00    +0.000 C 
BRANCH  16  17
ATOM     17  C   UNL     1       0.413  10.899  19.841  0.00  0.00    +0.000 A 
ATOM     18  C   UNL     1       0.939  11.795  20.771  0.00  0.00    +0.000 A 
ATOM     19  C   UNL     1       0.660  13.171  20.681  0.00  0.00    +0.000 A 
ATOM     20  C   UNL     1      -0.131  13.713  19.652  0.00  0.00    +0.000 A 
ATOM     21  C   UNL     1      -0.596  12.804  18.696  0.00  0.00    +0.000 A 
ATOM     22  C   UNL     1      -0.340  11.423  18.789  0.00  0.00    +0.000 A 
BRANCH  20  23
ATOM     23  N   UNL     1      -0.481  15.059  19.604  0.00  0.00    +0.000 N 
BRANCH  23  24
ATOM     24  C   UNL     1       0.160  15.967  18.645  0.00  0.00    +0.000 C 
ATOM     25  C   UNL     1      -0.738  17.138  18.271  0.00  0.00    +0.000 C 
ENDBRANCH  23  24
BRANCH  23  26
ATOM     26  C   UNL     1      -1.289  15.660  20.668  0.00  0.00    +0.000 C 
ATOM     27  C   UNL     1      -2.600  14.905  20.845  0.00  0.00    +0.000 C 
ENDBRANCH  23  26
ENDBRANCH  20  23
ENDBRANCH  16  17
ENDBRANCH  13  15
ENDBRANCH   4  13
BRANCH   1  28
ATOM     28  O   UNL     1       5.386   4.956  15.693  0.00  0.00    +0.000 OA
BRANCH  28  29
ATOM     29  C   UNL     1       6.752   5.139  15.878  0.00  0.00    +0.000 C 
ATOM     30  O   UNL     1       7.543   5.679  15.119  0.00  0.00    +0.000 OA
BRANCH  29  32
ATOM     31  C   UNL     1       7.730   5.123  18.123  0.00  0.00    +0.000 C 
ATOM     32  C   UNL     1       7.143   4.448  17.132  0.00  0.00    +0.000 C 
ENDBRANCH  29  32
ENDBRANCH  28  29
ENDBRANCH   1  28
TORSDOF 9
ENDMDL
MODEL 3
REMARK VINA RESULT:      -7.7      0.752      1.329
REMARK  Name = 
REMARK  13 active torsions:
REMARK  status: ('A' for Active; 'I' for Inactive)
REMARK    1  A    between atoms: C_2  and  C_3
REMARK    2  A    between atoms: C_3  and  O_5
REMARK    3  A    between atoms: O_5  and  C_6
REMARK    4  A    between atoms: C_9  and  C_10
REMARK    5  A    between atoms: C_10  and  C_12
REMARK    6  A    between atoms: C_13  and  C_14
REMARK    7  A    between atoms: C_17  and  N_18
REMARK    8  A    between atoms: N_18  and  C_19
REMARK    9  A    between atoms: N_18  and  C_21
REMARK   10  A    between atoms: C_19  and  C_20
REMARK   11  A    between atoms: C_21  and  C_22
REMARK   12  A    between atoms: C_29  and  C_30
REMARK   13  A    between atoms: C_29  and  C_31
REMARK                            x       y       z     vdW  Elec       q    Type
REMARK                         _______ _______ _______ _____ _____    ______ ____
ROOT
ATOM      1  C   UNL     1       4.448   5.988  16.765  0.00  0.00    +0.000 A 
ATOM      2  C   UNL     1       4.199   7.271  17.283  0.00  0.00    +0.000 A 
ATOM      3  C   UNL     1       3.412   7.427  18.419  0.00  0.00    +0.000 A 
ATOM      4  C   UNL     1       2.814   6.322  19.026  0.00  0.00    +0.000 A 
ATOM      5  C   UNL     1       3.034   5.040  18.484  0.00  0.00    +0.000 A 
ATOM      6  C   UNL     1       3.850   4.855  17.345  0.00  0.00    +0.000 A 
ATOM      7  C   UNL     1       4.018   3.494  16.826  0.00  0.00    +0.000 C 
ATOM      8  C   UNL     1       3.618   2.465  17.599  0.00  0.00    +0.000 C 
ATOM      9  C   UNL     1       3.012   2.685  18.962  0.00  0.00    +0.000 C 
ATOM     10  C   UNL     1       4.074   2.555  20.061  0.00  0.00    +0.000 C 
ATOM     11  C   UNL     1       1.875   1.689  19.229  0.00  0.00    +0.000 C 
ATOM     12  O   UNL     1       2.409   3.982  19.091  0.00  0.00    +0.000 OA
ENDROOT
BRANCH   4  13
ATOM     13  C   UNL     1       2.033   6.570  20.274  0.00  0.00    +0.000 C 
ATOM     14  O   UNL     1       2.123   5.785  21.213  0.00  0.00    +0.000 OA
BRANCH  13  15
ATOM     15  C   UNL     1       1.207   7.806  20.372  0.00  0.00    +0.000 C 
ATOM     16  C   UNL     1       0.903   8.354  21.560  0.00  0.00    +0.000 C 
BRANCH  16  17
ATOM     17  C   UNL     1       0.074   9.566  21.693  0.00  0.00    +0.000 A 
ATOM     18  C   UNL     1      -0.230  10.332  20.568  0.00  0.00    +0.000 A 
ATOM     19  C   UNL     1      -0.991  11.510  20.687  0.00  0.00    +0.000 A 
ATOM     20  C   UNL     1      -1.499  11.957  21.919  0.00  0.00    +0.000 A 
ATOM     21  C   UNL     1      -1.234  11.140  23.023  0.00  0.00    +0.000 A 
ATOM     22  C   UNL     1      -0.456   9.972  22.919  0.00  0.00    +0.000 A 
BRANCH  20  23
ATOM     23  N   UNL     1      -2.180  13.163  22.056  0.00  0.00    +0.000 N 
BRANCH  23  24
ATOM     24  C   UNL     1      -3.639  13.188  22.214  0.00  0.00    +0.000 C 
ATOM     25  C   UNL     1      -4.101  14.301  23.146  0.00  0.00    +0.000 C 
ENDBRANCH  23  24
BRANCH  23  26
ATOM     26  C   UNL     1      -1.508  14.437  21.784  0.00  0.00    +0.000 C 
ATOM     27  C   UNL     1      -0.102  14.444  22.368  0.00  0.00    +0.000 C 
ENDBRANCH  23  26
ENDBRANCH  20  23
ENDBRANCH  16  17
ENDBRANCH  13  15
ENDBRANCH   4  13
BRANCH   1  28
ATOM     28  O   UNL     1       5.223   5.872  15.588  0.00  0.00    +0.000 OA
BRANCH  28  29
ATOM     29  C   UNL     1       6.574   5.604  15.778  0.00  0.00    +0.000 C 
ATOM     30  O   UNL     1       7.347   6.166  16.538  0.00  0.00    +0.000 OA
BRANCH  29  32
ATOM     31  C   UNL     1       6.087   4.054  13.945  0.00  0.00    +0.000 C 
ATOM     32  C   UNL     1       6.981   4.571  14.792  0.00  0.00    +0.000 C 
ENDBRANCH  29  32
ENDBRANCH  28  29
ENDBRANCH   1  28
TORSDOF 9
ENDMDL
MODEL 4
REMARK VINA RESULT:      -7.6      0.990      1.538
REMARK  Name = 
REMARK  13 active torsions:
REMARK  status: ('A' for Active; 'I' for Inactive)
REMARK    1  A    between atoms: C_2  and  C_3
REMARK    2  A    between atoms: C_3  and  O_5
REMARK    3  A    between atoms: O_5  and  C_6
REMARK    4  A    between atoms: C_9  and  C_10
REMARK    5  A    between atoms: C_10  and  C_12
REMARK    6  A    between atoms: C_13  and  C_14
REMARK    7  A    between atoms: C_17  and  N_18
REMARK    8  A    between atoms: N_18  and  C_19
REMARK    9  A    between atoms: N_18  and  C_21
REMARK   10  A    between atoms: C_19  and  C_20
REMARK   11  A    between atoms: C_21  and  C_22
REMARK   12  A    between atoms: C_29  and  C_30
REMARK   13  A    between atoms: C_29  and  C_31
REMARK                            x       y       z     vdW  Elec       q    Type
REMARK                         _______ _______ _______ _____ _____    ______ ____
ROOT
ATOM      1  C   UNL     1       4.542   6.019  16.877  0.00  0.00    +0.000 A 
ATOM      2  C   UNL     1       4.199   7.297  17.355  0.00  0.00    +0.000 A 
ATOM      3  C   UNL     1       3.318   7.432  18.422  0.00  0.00    +0.000 A 
ATOM      4  C   UNL     1       2.721   6.310  18.997  0.00  0.00    +0.000 A 
ATOM      5  C   UNL     1       3.036   5.032  18.494  0.00  0.00    +0.000 A 
ATOM      6  C   UNL     1       3.947   4.868  17.426  0.00  0.00    +0.000 A 
ATOM      7  C   UNL     1       4.213   3.509  16.942  0.00  0.00    +0.000 C 
ATOM      8  C   UNL     1       3.795   2.474  17.697  0.00  0.00    +0.000 C 
ATOM      9  C   UNL     1       3.075   2.684  19.004  0.00  0.00    +0.000 C 
ATOM     10  C   UNL     1       4.050   2.612  20.185  0.00  0.00    +0.000 C 
ATOM     11  C   UNL     1       1.962   1.644  19.196  0.00  0.00    +0.000 C 
ATOM     12  O   UNL     1       2.409   3.956  19.066  0.00  0.00    +0.000 OA
ENDROOT
BRANCH   4  13
ATOM     13  C   UNL     1       1.833   6.539  20.175  0.00  0.00    +0.000 C 
ATOM     14  O   UNL     1       1.653   5.634  20.986  0.00  0.00    +0.000 OA
BRANCH  13  15
ATOM     15  C   UNL     1       1.233   7.888  20.373  0.00  0.00    +0.000 C 
ATOM     16  C   UNL     1       0.428   8.153  21.415  0.00  0.00    +0.000 C 
BRANCH  16  17
ATOM     17  C   UNL     1      -0.194   9.471  21.630  0.00  0.00    +0.000 A 
ATOM     18  C   UNL     1      -0.575   9.864  22.913  0.00  0.00    +0.000 A 
ATOM     19  C   UNL     1      -1.202  11.106  23.126  0.00  0.00    +0.000 A 
ATOM     20  C   UNL     1      -1.452  12.013  22.082  0.00  0.00    +0.000 A 
ATOM     21  C   UNL     1      -1.005  11.624  20.814  0.00  0.00    +0.000 A 
ATOM     22  C   UNL     1      -0.397  10.376  20.587  0.00  0.00    +0.000 A 
BRANCH  20  23
ATOM     23  N   UNL     1      -2.146  13.204  22.272  0.00  0.00    +0.000 N 
BRANCH  23  24
ATOM     24  C   UNL     1      -3.577  13.196  22.597  0.00  0.00    +0.000 C 
ATOM     25  C   UNL     1      -3.841  13.537  24.057  0.00  0.00    +0.000 C 
ENDBRANCH  23  24
BRANCH  23  26
ATOM     26  C   UNL     1      -1.545  14.488  21.898  0.00  0.00    +0.000 C 
ATOM     27  C   UNL     1      -0.333  14.794  22.768  0.00  0.00    +0.000 C 
ENDBRANCH  23  26
ENDBRANCH  20  23
ENDBRANCH  16  17
ENDBRANCH  13  15
ENDBRANCH   4  13
BRANCH   1  28
ATOM     28  O   UNL     1       5.412   5.922  15.767  0.00  0.00    +0.000 OA
BRANCH  28  29
ATOM     29  C   UNL     1       6.741   5.641  16.064  0.00  0.00    +0.000 C 
ATOM     30  O   UNL     1       7.430   4.736  15.618  0.00  0.00    +0.000 OA
BRANCH  29  32
ATOM     31  C   UNL     1       7.735   6.097  18.255  0.00  0.00    +0.000 C 
ATOM     32  C   UNL     1       7.179   6.569  17.136  0.00  0.00    +0.000 C 
ENDBRANCH  29  32
ENDBRANCH  28  29
ENDBRANCH   1  28
TORSDOF 9
ENDMDL
MODEL 5
REMARK VINA RESULT:      -7.6      5.509      7.674
REMARK  Name = 
REMARK  13 active torsions:
REMARK  status: ('A' for Active; 'I' for Inactive)
REMARK    1  A    between atoms: C_2  and  C_3
REMARK    2  A    between atoms: C_3  and  O_5
REMARK    3  A    between atoms: O_5  and  C_6
REMARK    4  A    between atoms: C_9  and  C_10
REMARK    5  A    between atoms: C_10  and  C_12
REMARK    6  A    between atoms: C_13  and  C_14
REMARK    7  A    between atoms: C_17  and  N_18
REMARK    8  A    between atoms: N_18  and  C_19
REMARK    9  A    between atoms: N_18  and  C_21
REMARK   10  A    between atoms: C_19  and  C_20
REMARK   11  A    between atoms: C_21  and  C_22
REMARK   12  A    between atoms: C_29  and  C_30
REMARK   13  A    between atoms: C_29  and  C_31
REMARK                            x       y       z     vdW  Elec       q    Type
REMARK                         _______ _______ _______ _____ _____    ______ ____
ROOT
ATOM      1  C   UNL     1       5.733   4.249  15.074  0.00  0.00    +0.000 A 
ATOM      2  C   UNL     1       7.002   4.818  14.863  0.00  0.00    +0.000 A 
ATOM      3  C   UNL     1       7.580   5.622  15.841  0.00  0.00    +0.000 A 
ATOM      4  C   UNL     1       6.889   5.919  17.016  0.00  0.00    +0.000 A 
ATOM      5  C   UNL     1       5.602   5.379  17.210  0.00  0.00    +0.000 A 
ATOM      6  C   UNL     1       5.005   4.540  16.242  0.00  0.00    +0.000 A 
ATOM      7  C   UNL     1       3.656   4.029  16.504  0.00  0.00    +0.000 C 
ATOM      8  C   UNL     1       3.160   4.155  17.751  0.00  0.00    +0.000 C 
ATOM      9  C   UNL     1       3.953   4.799  18.859  0.00  0.00    +0.000 C 
ATOM     10  C   UNL     1       4.676   3.742  19.702  0.00  0.00    +0.000 C 
ATOM     11  C   UNL     1       3.049   5.646  19.766  0.00  0.00    +0.000 C 
ATOM     12  O   UNL     1       4.944   5.714  18.364  0.00  0.00    +0.000 OA
ENDROOT
BRANCH   4  13
ATOM     13  C   UNL     1       7.604   6.741  18.037  0.00  0.00    +0.000 C 
ATOM     14  O   UNL     1       7.987   6.216  19.079  0.00  0.00    +0.000 OA
BRANCH  13  15
ATOM     15  C   UNL     1       7.893   8.170  17.737  0.00  0.00    +0.000 C 
ATOM     16  C   UNL     1       8.658   8.918  18.549  0.00  0.00    +0.000 C 
BRANCH  16  17
ATOM     17  C   UNL     1       8.949  10.339  18.290  0.00  0.00    +0.000 A 
ATOM     18  C   UNL     1      10.165  10.890  18.694  0.00  0.00    +0.000 A 
ATOM     19  C   UNL     1      10.441  12.254  18.483  0.00  0.00    +0.000 A 
ATOM     20  C   UNL     1       9.533  13.115  17.843  0.00  0.00    +0.000 A 
ATOM     21  C   UNL     1       8.346  12.527  17.391  0.00  0.00    +0.000 A 
ATOM     22  C   UNL     1       8.052  11.170  17.615  0.00  0.00    +0.000 A 
BRANCH  20  23
ATOM     23  N   UNL     1       9.763  14.481  17.706  0.00  0.00    +0.000 N 
BRANCH  23  24
ATOM     24  C   UNL     1      11.053  14.980  17.215  0.00  0.00    +0.000 C 
ATOM     25  C   UNL     1      11.083  16.499  17.113  0.00  0.00    +0.000 C 
ENDBRANCH  23  24
BRANCH  23  26
ATOM     26  C   UNL     1       8.840  15.457  18.292  0.00  0.00    +0.000 C 
ATOM     27  C   UNL     1       8.734  15.267  19.799  0.00  0.00    +0.000 C 
ENDBRANCH  23  26
ENDBRANCH  20  23
ENDBRANCH  16  17
ENDBRANCH  13  15
ENDBRANCH   4  13
BRANCH   1  28
ATOM     28  O   UNL     1       5.162   3.468  14.043  0.00  0.00    +0.000 OA
BRANCH  28  29
ATOM     29  C   UNL     1       5.791   3.548  12.806  0.00  0.00    +0.000 C 
ATOM     30  O   UNL     1       6.797   4.179  12.519  0.00  0.00    +0.000 OA
BRANCH  29  32
ATOM     31  C   UNL     1       4.137   3.490  11.001  0.00  0.00    +0.000 C 
ATOM     32  C   UNL     1       4.956   2.821  11.817  0.00  0.00    +0.000 C 
ENDBRANCH  29  32
ENDBRANCH  28  29
ENDBRANCH   1  28
TORSDOF 9
ENDMDL
MODEL 6
REMARK VINA RESULT:      -7.6      2.551      3.151
REMARK  Name = 
REMARK  13 active torsions:
REMARK  status: ('A' for Active; 'I' for Inactive)
REMARK    1  A    between atoms: C_2  and  C_3
REMARK    2  A    between atoms: C_3  and  O_5
REMARK    3  A    between atoms: O_5  and  C_6
REMARK    4  A    between atoms: C_9  and  C_10
REMARK    5  A    between atoms: C_10  and  C_12
REMARK    6  A    between atoms: C_13  and  C_14
REMARK    7  A    between atoms: C_17  and  N_18
REMARK    8  A    between atoms: N_18  and  C_19
REMARK    9  A    between atoms: N_18  and  C_21
REMARK   10  A    between atoms: C_19  and  C_20
REMARK   11  A    between atoms: C_21  and  C_22
REMARK   12  A    between atoms: C_29  and  C_30
REMARK   13  A    between atoms: C_29  and  C_31
REMARK                            x       y       z     vdW  Elec       q    Type
REMARK                         _______ _______ _______ _____ _____    ______ ____
ROOT
ATOM      1  C   UNL     1       5.520   4.999  16.782  0.00  0.00    +0.000 A 
ATOM      2  C   UNL     1       5.528   6.404  16.838  0.00  0.00    +0.000 A 
ATOM      3  C   UNL     1       4.471   7.087  17.432  0.00  0.00    +0.000 A 
ATOM      4  C   UNL     1       3.367   6.393  17.929  0.00  0.00    +0.000 A 
ATOM      5  C   UNL     1       3.343   4.987  17.838  0.00  0.00    +0.000 A 
ATOM      6  C   UNL     1       4.417   4.271  17.262  0.00  0.00    +0.000 A 
ATOM      7  C   UNL     1       4.314   2.810  17.185  0.00  0.00    +0.000 C 
ATOM      8  C   UNL     1       3.344   2.203  17.898  0.00  0.00    +0.000 C 
ATOM      9  C   UNL     1       2.383   2.985  18.756  0.00  0.00    +0.000 C 
ATOM     10  C   UNL     1       2.855   3.022  20.214  0.00  0.00    +0.000 C 
ATOM     11  C   UNL     1       0.971   2.385  18.691  0.00  0.00    +0.000 C 
ATOM     12  O   UNL     1       2.231   4.343  18.313  0.00  0.00    +0.000 OA
ENDROOT
BRANCH   4  13
ATOM     13  C   UNL     1       2.304   7.197  18.601  0.00  0.00    +0.000 C 
ATOM     14  O   UNL     1       1.439   6.628  19.262  0.00  0.00    +0.000 OA
BRANCH  13  15
ATOM     15  C   UNL     1       2.356   8.682  18.507  0.00  0.00    +0.000 C 
ATOM     16  C   UNL     1       1.396   9.455  19.042  0.00  0.00    +0.000 C 
BRANCH  16  17
ATOM     17  C   UNL     1       1.409  10.925  18.951  0.00  0.00    +0.000 A 
ATOM     18  C   UNL     1       0.497  11.680  19.687  0.00  0.00    +0.000 A 
ATOM     19  C   UNL     1       0.477  13.083  19.583  0.00  0.00    +0.000 A 
ATOM     20  C   UNL     1       1.374  13.791  18.765  0.00  0.00    +0.000 A 
ATOM     21  C   UNL     1       2.321  13.017  18.083  0.00  0.00    +0.000 A 
ATOM     22  C   UNL     1       2.336  11.613  18.164  0.00  0.00    +0.000 A 
BRANCH  20  23
ATOM     23  N   UNL     1       1.305  15.170  18.591  0.00  0.00    +0.000 N 
BRANCH  23  24
ATOM     24  C   UNL     1       2.514  15.999  18.674  0.00  0.00    +0.000 C 
ATOM     25  C   UNL     1       2.889  16.609  17.330  0.00  0.00    +0.000 C 
ENDBRANCH  23  24
BRANCH  23  26
ATOM     26  C   UNL     1       0.012  15.860  18.588  0.00  0.00    +0.000 C 
ATOM     27  C   UNL     1      -0.025  16.947  19.654  0.00  0.00    +0.000 C 
ENDBRANCH  23  26
ENDBRANCH  20  23
ENDBRANCH  16  17
ENDBRANCH  13  15
ENDBRANCH   4  13
BRANCH   1  28
ATOM     28  O   UNL     1       6.594   4.341  16.138  0.00  0.00    +0.000 OA
BRANCH  28  29
ATOM     29  C   UNL     1       6.826   4.713  14.819  0.00  0.00    +0.000 C 
ATOM     30  O   UNL     1       7.635   5.528  14.404  0.00  0.00    +0.000 OA
BRANCH  29  32
ATOM     31  C   UNL     1       6.151   3.592  12.749  0.00  0.00    +0.000 C 
ATOM     32  C   UNL     1       5.820   4.031  13.966  0.00  0.00    +0.000 C 
ENDBRANCH  29  32
ENDBRANCH  28  29
ENDBRANCH   1  28
TORSDOF 9
ENDMDL
MODEL 7
REMARK VINA RESULT:      -7.5      0.456      1.372
REMARK  Name = 
REMARK  13 active torsions:
REMARK  status: ('A' for Active; 'I' for Inactive)
REMARK    1  A    between atoms: C_2  and  C_3
REMARK    2  A    between atoms: C_3  and  O_5
REMARK    3  A    between atoms: O_5  and  C_6
REMARK    4  A    between atoms: C_9  and  C_10
REMARK    5  A    between atoms: C_10  and  C_12
REMARK    6  A    between atoms: C_13  and  C_14
REMARK    7  A    between atoms: C_17  and  N_18
REMARK    8  A    between atoms: N_18  and  C_19
REMARK    9  A    between atoms: N_18  and  C_21
REMARK   10  A    between atoms: C_19  and  C_20
REMARK   11  A    between atoms: C_21  and  C_22
REMARK   12  A    between atoms: C_29  and  C_30
REMARK   13  A    between atoms: C_29  and  C_31
REMARK                            x       y       z     vdW  Elec       q    Type
REMARK                         _______ _______ _______ _____ _____    ______ ____
ROOT
ATOM      1  C   UNL     1       4.341   6.086  16.868  0.00  0.00    +0.000 A 
ATOM      2  C   UNL     1       4.041   7.341  17.426  0.00  0.00    +0.000 A 
ATOM      3  C   UNL     1       3.253   7.429  18.569  0.00  0.00    +0.000 A 
ATOM      4  C   UNL     1       2.706   6.282  19.144  0.00  0.00    +0.000 A 
ATOM      5  C   UNL     1       2.976   5.027  18.563  0.00  0.00    +0.000 A 
ATOM      6  C   UNL     1       3.794   4.912  17.416  0.00  0.00    +0.000 A 
ATOM      7  C   UNL     1       4.016   3.575  16.855  0.00  0.00    +0.000 C 
ATOM      8  C   UNL     1       3.663   2.507  17.597  0.00  0.00    +0.000 C 
ATOM      9  C   UNL     1       3.056   2.661  18.968  0.00  0.00    +0.000 C 
ATOM     10  C   UNL     1       4.127   2.541  20.059  0.00  0.00    +0.000 C 
ATOM     11  C   UNL     1       1.963   1.610  19.209  0.00  0.00    +0.000 C 
ATOM     12  O   UNL     1       2.399   3.926  19.139  0.00  0.00    +0.000 OA
ENDROOT
BRANCH   4  13
ATOM     13  C   UNL     1       1.920   6.459  20.402  0.00  0.00    +0.000 C 
ATOM     14  O   UNL     1       2.038   5.643  21.312  0.00  0.00    +0.000 OA
BRANCH  13  15
ATOM     15  C   UNL     1       1.056   7.663  20.547  0.00  0.00    +0.000 C 
ATOM     16  C   UNL     1       1.167   8.484  21.605  0.00  0.00    +0.000 C 
BRANCH  16  17
ATOM     17  C   UNL     1       0.316   9.673  21.787  0.00  0.00    +0.000 A 
ATOM     18  C   UNL     1      -0.417   9.835  22.963  0.00  0.00    +0.000 A 
ATOM     19  C   UNL     1      -1.260  10.948  23.135  0.00  0.00    +0.000 A 
ATOM     20  C   UNL     1      -1.389  11.953  22.161  0.00  0.00    +0.000 A 
ATOM     21  C   UNL     1      -0.598  11.801  21.017  0.00  0.00    +0.000 A 
ATOM     22  C   UNL     1       0.232  10.681  20.826  0.00  0.00    +0.000 A 
BRANCH  20  23
ATOM     23  N   UNL     1      -2.283  13.012  22.289  0.00  0.00    +0.000 N 
BRANCH  23  24
ATOM     24  C   UNL     1      -2.923  13.601  21.106  0.00  0.00    +0.000 C 
ATOM     25  C   UNL     1      -4.253  12.935  20.778  0.00  0.00    +0.000 C 
ENDBRANCH  23  24
BRANCH  23  26
ATOM     26  C   UNL     1      -2.409  13.737  23.557  0.00  0.00    +0.000 C 
ATOM     27  C   UNL     1      -1.165  14.571  23.829  0.00  0.00    +0.000 C 
ENDBRANCH  23  26
ENDBRANCH  20  23
ENDBRANCH  16  17
ENDBRANCH  13  15
ENDBRANCH   4  13
BRANCH   1  28
ATOM     28  O   UNL     1       5.114   6.038  15.685  0.00  0.00    +0.000 OA
BRANCH  28  29
ATOM     29  C   UNL     1       6.456   5.716  15.853  0.00  0.00    +0.000 C 
ATOM     30  O   UNL     1       7.286   6.303  16.530  0.00  0.00    +0.000 OA
BRANCH  29  32
ATOM     31  C   UNL     1       7.272   4.792  13.737  0.00  0.00    +0.000 C 
ATOM     32  C   UNL     1       6.771   4.576  14.956  0.00  0.00    +0.000 C 
ENDBRANCH  29  32
ENDBRANCH  28  29
ENDBRANCH   1  28
TORSDOF 9
ENDMDL
MODEL 8
REMARK VINA RESULT:      -7.4      1.856      2.422
REMARK  Name = 
REMARK  13 active torsions:
REMARK  status: ('A' for Active; 'I' for Inactive)
REMARK    1  A    between atoms: C_2  and  C_3
REMARK    2  A    between atoms: C_3  and  O_5
REMARK    3  A    between atoms: O_5  and  C_6
REMARK    4  A    between atoms: C_9  and  C_10
REMARK    5  A    between atoms: C_10  and  C_12
REMARK    6  A    between atoms: C_13  and  C_14
REMARK    7  A    between atoms: C_17  and  N_18
REMARK    8  A    between atoms: N_18  and  C_19
REMARK    9  A    between atoms: N_18  and  C_21
REMARK   10  A    between atoms: C_19  and  C_20
REMARK   11  A    between atoms: C_21  and  C_22
REMARK   12  A    between atoms: C_29  and  C_30
REMARK   13  A    between atoms: C_29  and  C_31
REMARK                            x       y       z     vdW  Elec       q    Type
REMARK                         _______ _______ _______ _____ _____    ______ ____
ROOT
ATOM      1  C   UNL     1       4.530   5.571  16.773  0.00  0.00    +0.000 A 
ATOM      2  C   UNL     1       4.571   6.923  17.157  0.00  0.00    +0.000 A 
ATOM      3  C   UNL     1       3.732   7.391  18.164  0.00  0.00    +0.000 A 
ATOM      4  C   UNL     1       2.804   6.541  18.767  0.00  0.00    +0.000 A 
ATOM      5  C   UNL     1       2.739   5.195  18.356  0.00  0.00    +0.000 A 
ATOM      6  C   UNL     1       3.597   4.692  17.352  0.00  0.00    +0.000 A 
ATOM      7  C   UNL     1       3.459   3.285  16.963  0.00  0.00    +0.000 C 
ATOM      8  C   UNL     1       2.722   2.477  17.750  0.00  0.00    +0.000 C 
ATOM      9  C   UNL     1       2.051   2.985  19.000  0.00  0.00    +0.000 C 
ATOM     10  C   UNL     1       2.915   2.710  20.237  0.00  0.00    +0.000 C 
ATOM     11  C   UNL     1       0.671   2.339  19.188  0.00  0.00    +0.000 C 
ATOM     12  O   UNL     1       1.797   4.398  18.952  0.00  0.00    +0.000 OA
ENDROOT
BRANCH   4  13
ATOM     13  C   UNL     1       1.983   7.108  19.878  0.00  0.00    +0.000 C 
ATOM     14  O   UNL     1       1.515   6.359  20.730  0.00  0.00    +0.000 OA
BRANCH  13  15
ATOM     15  C   UNL     1       1.806   8.584  19.961  0.00  0.00    +0.000 C 
ATOM     16  C   UNL     1       0.690   9.184  19.516  0.00  0.00    +0.000 C 
BRANCH  16  17
ATOM     17  C   UNL     1       0.490  10.643  19.568  0.00  0.00    +0.000 A 
ATOM     18  C   UNL     1       1.402  11.497  18.947  0.00  0.00    +0.000 A 
ATOM     19  C   UNL     1       1.242  12.893  19.018  0.00  0.00    +0.000 A 
ATOM     20  C   UNL     1       0.161  13.494  19.686  0.00  0.00    +0.000 A 
ATOM     21  C   UNL     1      -0.774  12.617  20.249  0.00  0.00    +0.000 A 
ATOM     22  C   UNL     1      -0.612  11.221  20.201  0.00  0.00    +0.000 A 
BRANCH  20  23
ATOM     23  N   UNL     1       0.041  14.872  19.833  0.00  0.00    +0.000 N 
BRANCH  23  24
ATOM     24  C   UNL     1      -0.176  15.471  21.155  0.00  0.00    +0.000 C 
ATOM     25  C   UNL     1       1.038  15.324  22.062  0.00  0.00    +0.000 C 
ENDBRANCH  23  24
BRANCH  23  26
ATOM     26  C   UNL     1      -0.137  15.737  18.662  0.00  0.00    +0.000 C 
ATOM     27  C   UNL     1       1.037  16.694  18.511  0.00  0.00    +0.000 C 
ENDBRANCH  23  26
ENDBRANCH  20  23
ENDBRANCH  16  17
ENDBRANCH  13  15
ENDBRANCH   4  13
BRANCH   1  28
ATOM     28  O   UNL     1       5.372   5.141  15.721  0.00  0.00    +0.000 OA
BRANCH  28  29
ATOM     29  C   UNL     1       6.737   5.261  15.952  0.00  0.00    +0.000 C 
ATOM     30  O   UNL     1       7.566   5.821  15.251  0.00  0.00    +0.000 OA
BRANCH  29  32
ATOM     31  C   UNL     1       7.714   5.042  18.187  0.00  0.00    +0.000 C 
ATOM     32  C   UNL     1       7.070   4.473  17.165  0.00  0.00    +0.000 C 
ENDBRANCH  29  32
ENDBRANCH  28  29
ENDBRANCH   1  28
TORSDOF 9
ENDMDL
MODEL 9
REMARK VINA RESULT:      -7.4      1.355      2.003
REMARK  Name = 
REMARK  13 active torsions:
REMARK  status: ('A' for Active; 'I' for Inactive)
REMARK    1  A    between atoms: C_2  and  C_3
REMARK    2  A    between atoms: C_3  and  O_5
REMARK    3  A    between atoms: O_5  and  C_6
REMARK    4  A    between atoms: C_9  and  C_10
REMARK    5  A    between atoms: C_10  and  C_12
REMARK    6  A    between atoms: C_13  and  C_14
REMARK    7  A    between atoms: C_17  and  N_18
REMARK    8  A    between atoms: N_18  and  C_19
REMARK    9  A    between atoms: N_18  and  C_21
REMARK   10  A    between atoms: C_19  and  C_20
REMARK   11  A    between atoms: C_21  and  C_22
REMARK   12  A    between atoms: C_29  and  C_30
REMARK   13  A    between atoms: C_29  and  C_31
REMARK                            x       y       z     vdW  Elec       q    Type
REMARK                         _______ _______ _______ _____ _____    ______ ____
ROOT
ATOM      1  C   UNL     1       4.461   5.619  16.834  0.00  0.00    +0.000 A 
ATOM      2  C   UNL     1       4.482   6.961  17.256  0.00  0.00    +0.000 A 
ATOM      3  C   UNL     1       3.641   7.386  18.279  0.00  0.00    +0.000 A 
ATOM      4  C   UNL     1       2.729   6.506  18.861  0.00  0.00    +0.000 A 
ATOM      5  C   UNL     1       2.682   5.171  18.411  0.00  0.00    +0.000 A 
ATOM      6  C   UNL     1       3.543   4.710  17.391  0.00  0.00    +0.000 A 
ATOM      7  C   UNL     1       3.425   3.313  16.961  0.00  0.00    +0.000 C 
ATOM      8  C   UNL     1       2.704   2.471  17.728  0.00  0.00    +0.000 C 
ATOM      9  C   UNL     1       2.030   2.933  18.995  0.00  0.00    +0.000 C 
ATOM     10  C   UNL     1       2.903   2.636  20.220  0.00  0.00    +0.000 C 
ATOM     11  C   UNL     1       0.660   2.261  19.169  0.00  0.00    +0.000 C 
ATOM     12  O   UNL     1       1.755   4.343  18.988  0.00  0.00    +0.000 OA
ENDROOT
BRANCH   4  13
ATOM     13  C   UNL     1       1.904   7.028  19.990  0.00  0.00    +0.000 C 
ATOM     14  O   UNL     1       1.602   6.282  20.918  0.00  0.00    +0.000 OA
BRANCH  13  15
ATOM     15  C   UNL     1       1.519   8.466  19.997  0.00  0.00    +0.000 C 
ATOM     16  C   UNL     1       0.449   8.905  20.680  0.00  0.00    +0.000 C 
BRANCH  16  17
ATOM     17  C   UNL     1       0.032  10.318  20.692  0.00  0.00    +0.000 A 
ATOM     18  C   UNL     1      -0.351  10.945  19.506  0.00  0.00    +0.000 A 
ATOM     19  C   UNL     1      -0.718  12.303  19.499  0.00  0.00    +0.000 A 
ATOM     20  C   UNL     1      -0.744  13.083  20.668  0.00  0.00    +0.000 A 
ATOM     21  C   UNL     1      -0.416  12.418  21.854  0.00  0.00    +0.000 A 
ATOM     22  C   UNL     1      -0.026  11.066  21.870  0.00  0.00    +0.000 A 
BRANCH  20  23
ATOM     23  N   UNL     1      -1.024  14.446  20.656  0.00  0.00    +0.000 N 
BRANCH  23  24
ATOM     24  C   UNL     1      -2.396  14.933  20.846  0.00  0.00    +0.000 C 
ATOM     25  C   UNL     1      -3.421  13.808  20.786  0.00  0.00    +0.000 C 
ENDBRANCH  23  24
BRANCH  23  26
ATOM     26  C   UNL     1      -0.023  15.412  20.193  0.00  0.00    +0.000 C 
ATOM     27  C   UNL     1      -0.328  15.870  18.773  0.00  0.00    +0.000 C 
ENDBRANCH  23  26
ENDBRANCH  20  23
ENDBRANCH  16  17
ENDBRANCH  13  15
ENDBRANCH   4  13
BRANCH   1  28
ATOM     28  O   UNL     1       5.304   5.232  15.766  0.00  0.00    +0.000 OA
BRANCH  28  29
ATOM     29  C   UNL     1       6.669   5.317  16.014  0.00  0.00    +0.000 C 
ATOM     30  O   UNL     1       7.521   5.856  15.324  0.00  0.00    +0.000 OA
BRANCH  29  32
ATOM     31  C   UNL     1       7.672   5.047  18.232  0.00  0.00    +0.000 C 
ATOM     32  C   UNL     1       6.966   4.518  17.230  0.00  0.00    +0.000 C 
ENDBRANCH  29  32
ENDBRANCH  28  29
ENDBRANCH   1  28
TORSDOF 9
ENDMDL
