MODEL 1
REMARK VINA RESULT:      -6.4      0.000      0.000
REMARK  Name = 
REMARK  5 active torsions:
REMARK  status: ('A' for Active; 'I' for Inactive)
REMARK    1  A    between atoms: C_1  and  C_2
REMARK    2  A    between atoms: C_2  and  C_3
REMARK    3  A    between atoms: C_2  and  C_4
REMARK    4  A    between atoms: C_4  and  C_5
REMARK    5  A    between atoms: C_11  and  C_12
REMARK                            x       y       z     vdW  Elec       q    Type
REMARK                         _______ _______ _______ _____ _____    ______ ____
ROOT
ATOM      1  C   UNL     1       2.126   4.018  18.149  0.00  0.00    +0.000 C 
ATOM      2  O   UNL     1       2.288   3.445  17.075  0.00  0.00    +0.000 OA
ATOM      3  N   UNL     1       2.679   5.255  18.417  0.00  0.00    +0.000 N 
ATOM      4  C   UNL     1       2.424   6.095  19.573  0.00  0.00    +0.000 C 
ATOM      5  C   UNL     1       2.387   7.499  18.999  0.00  0.00    +0.000 C 
ATOM      6  C   UNL     1       3.410   7.460  17.871  0.00  0.00    +0.000 C 
ATOM      7  C   UNL     1       3.394   5.998  17.379  0.00  0.00    +0.000 C 
ENDROOT
BRANCH   7   8
ATOM      8  C   UNL     1       4.786   5.454  17.177  0.00  0.00    +0.000 A 
ATOM      9  C   UNL     1       5.278   4.807  15.989  0.00  0.00    +0.000 A 
ATOM     10  C   UNL     1       6.573   4.358  16.119  0.00  0.00    +0.000 A 
ATOM     11  S   UNL     1       7.226   4.727  17.652  0.00  0.00    +0.000 S 
ATOM     12  C   UNL     1       5.775   5.483  18.146  0.00  0.00    +0.000 A 
ENDBRANCH   7   8
BRANCH   1  13
ATOM     13  C   UNL     1       1.211   3.433  19.224  0.00  0.00    +0.000 C 
BRANCH  13  15
ATOM     14  C   UNL     1       3.424   2.521  20.011  0.00  0.00    +0.000 C 
ATOM     15  C   UNL     1       1.905   2.442  20.167  0.00  0.00    +0.000 C 
ATOM     16  C   UNL     1       1.520   2.746  21.619  0.00  0.00    +0.000 C 
ENDBRANCH  13  15
ENDBRANCH   1  13
TORSDOF 3
ENDMDL
MODEL 2
REMARK VINA RESULT:      -6.4      0.570      1.005
REMARK  Name = 
REMARK  5 active torsions:
REMARK  status: ('A' for Active; 'I' for Inactive)
REMARK    1  A    between atoms: C_1  and  C_2
REMARK    2  A    between atoms: C_2  and  C_3
REMARK    3  A    between atoms: C_2  and  C_4
REMARK    4  A    between atoms: C_4  and  C_5
REMARK    5  A    between atoms: C_11  and  C_12
REMARK                            x       y       z     vdW  Elec       q    Type
REMARK                         _______ _______ _______ _____ _____    ______ ____
ROOT
ATOM      1  C   UNL     1       2.064   3.976  18.171  0.00  0.00    +0.000 C 
ATOM      2  O   UNL     1       2.229   3.417  17.090  0.00  0.00    +0.000 OA
ATOM      3  N   UNL     1       2.624   5.206  18.460  0.00  0.00    +0.000 N 
ATOM      4  C   UNL     1       2.366   6.031  19.626  0.00  0.00    +0.000 C 
ATOM      5  C   UNL     1       2.342   7.443  19.073  0.00  0.00    +0.000 C 
ATOM      6  C   UNL     1       3.372   7.413  17.951  0.00  0.00    +0.000 C 
ATOM      7  C   UNL     1       3.350   5.958  17.438  0.00  0.00    +0.000 C 
ENDROOT
BRANCH   7   8
ATOM      8  C   UNL     1       4.740   5.408  17.238  0.00  0.00    +0.000 A 
ATOM      9  C   UNL     1       5.697   5.125  18.275  0.00  0.00    +0.000 A 
ATOM     10  C   UNL     1       6.908   4.689  17.785  0.00  0.00    +0.000 A 
ATOM     11  S   UNL     1       6.908   4.587  16.082  0.00  0.00    +0.000 S 
ATOM     12  C   UNL     1       5.289   5.131  15.996  0.00  0.00    +0.000 A 
ENDBRANCH   7   8
BRANCH   1  13
ATOM     13  C   UNL     1       1.138   3.382  19.232  0.00  0.00    +0.000 C 
BRANCH  13  15
ATOM     14  C   UNL     1       3.342   2.417  19.977  0.00  0.00    +0.000 C 
ATOM     15  C   UNL     1       1.828   2.403  20.190  0.00  0.00    +0.000 C 
ATOM     16  C   UNL     1       1.508   2.780  21.640  0.00  0.00    +0.000 C 
ENDBRANCH  13  15
ENDBRANCH   1  13
TORSDOF 3
ENDMDL
MODEL 3
REMARK VINA RESULT:      -6.3      2.576      5.593
REMARK  Name = 
REMARK  5 active torsions:
REMARK  status: ('A' for Active; 'I' for Inactive)
REMARK    1  A    between atoms: C_1  and  C_2
REMARK    2  A    between atoms: C_2  and  C_3
REMARK    3  A    between atoms: C_2  and  C_4
REMARK    4  A    between atoms: C_4  and  C_5
REMARK    5  A    between atoms: C_11  and  C_12
REMARK                            x       y       z     vdW  Elec       q    Type
REMARK                         _______ _______ _______ _____ _____    ______ ____
ROOT
ATOM      1  C   UNL     1       5.688   4.360  16.054  0.00  0.00    +0.000 C 
ATOM      2  O   UNL     1       5.394   3.178  16.210  0.00  0.00    +0.000 OA
ATOM      3  N   UNL     1       6.053   5.176  17.108  0.00  0.00    +0.000 N 
ATOM      4  C   UNL     1       6.576   6.527  17.027  0.00  0.00    +0.000 C 
ATOM      5  C   UNL     1       7.637   6.570  18.109  0.00  0.00    +0.000 C 
ATOM      6  C   UNL     1       7.080   5.669  19.204  0.00  0.00    +0.000 C 
ATOM      7  C   UNL     1       6.218   4.632  18.455  0.00  0.00    +0.000 C 
ENDROOT
BRANCH   7   8
ATOM      8  C   UNL     1       4.885   4.414  19.125  0.00  0.00    +0.000 A 
ATOM      9  C   UNL     1       3.936   5.439  19.475  0.00  0.00    +0.000 A 
ATOM     10  C   UNL     1       2.832   4.946  20.136  0.00  0.00    +0.000 A 
ATOM     11  S   UNL     1       2.904   3.251  20.322  0.00  0.00    +0.000 S 
ATOM     12  C   UNL     1       4.414   3.174  19.524  0.00  0.00    +0.000 A 
ENDBRANCH   7   8
BRANCH   1  13
ATOM     13  C   UNL     1       5.766   4.975  14.657  0.00  0.00    +0.000 C 
BRANCH  13  15
ATOM     14  C   UNL     1       5.781   3.506  12.610  0.00  0.00    +0.000 C 
ATOM     15  C   UNL     1       6.642   4.188  13.674  0.00  0.00    +0.000 C 
ATOM     16  C   UNL     1       7.645   5.129  12.999  0.00  0.00    +0.000 C 
ENDBRANCH  13  15
ENDBRANCH   1  13
TORSDOF 3
ENDMDL
MODEL 4
REMARK VINA RESULT:      -6.3      2.584      5.606
REMARK  Name = 
REMARK  5 active torsions:
REMARK  status: ('A' for Active; 'I' for Inactive)
REMARK    1  A    between atoms: C_1  and  C_2
REMARK    2  A    between atoms: C_2  and  C_3
REMARK    3  A    between atoms: C_2  and  C_4
REMARK    4  A    between atoms: C_4  and  C_5
REMARK    5  A    between atoms: C_11  and  C_12
REMARK                            x       y       z     vdW  Elec       q    Type
REMARK                         _______ _______ _______ _____ _____    ______ ____
ROOT
ATOM      1  C   UNL     1       5.812   4.436  16.060  0.00  0.00    +0.000 C 
ATOM      2  O   UNL     1       5.518   3.252  16.197  0.00  0.00    +0.000 OA
ATOM      3  N   UNL     1       6.162   5.239  17.128  0.00  0.00    +0.000 N 
ATOM      4  C   UNL     1       6.684   6.592  17.071  0.00  0.00    +0.000 C 
ATOM      5  C   UNL     1       7.732   6.624  18.167  0.00  0.00    +0.000 C 
ATOM      6  C   UNL     1       7.163   5.708  19.243  0.00  0.00    +0.000 C 
ATOM      7  C   UNL     1       6.312   4.678  18.471  0.00  0.00    +0.000 C 
ENDROOT
BRANCH   7   8
ATOM      8  C   UNL     1       4.971   4.450  19.122  0.00  0.00    +0.000 A 
ATOM      9  C   UNL     1       4.417   3.175  19.493  0.00  0.00    +0.000 A 
ATOM     10  C   UNL     1       3.145   3.272  20.012  0.00  0.00    +0.000 A 
ATOM     11  S   UNL     1       2.609   4.891  20.087  0.00  0.00    +0.000 S 
ATOM     12  C   UNL     1       4.075   5.463  19.420  0.00  0.00    +0.000 A 
ENDBRANCH   7   8
BRANCH   1  13
ATOM     13  C   UNL     1       5.905   5.069  14.672  0.00  0.00    +0.000 C 
BRANCH  13  15
ATOM     14  C   UNL     1       5.754   3.545  12.672  0.00  0.00    +0.000 C 
ATOM     15  C   UNL     1       6.698   4.237  13.656  0.00  0.00    +0.000 C 
ATOM     16  C   UNL     1       7.671   5.138  12.889  0.00  0.00    +0.000 C 
ENDBRANCH  13  15
ENDBRANCH   1  13
TORSDOF 3
ENDMDL
MODEL 5
REMARK VINA RESULT:      -6.3      2.394      4.946
REMARK  Name = 
REMARK  5 active torsions:
REMARK  status: ('A' for Active; 'I' for Inactive)
REMARK    1  A    between atoms: C_1  and  C_2
REMARK    2  A    between atoms: C_2  and  C_3
REMARK    3  A    between atoms: C_2  and  C_4
REMARK    4  A    between atoms: C_4  and  C_5
REMARK    5  A    between atoms: C_11  and  C_12
REMARK                            x       y       z     vdW  Elec       q    Type
REMARK                         _______ _______ _______ _____ _____    ______ ____
ROOT
ATOM      1  C   UNL     1       5.349   4.835  18.582  0.00  0.00    +0.000 C 
ATOM      2  O   UNL     1       5.505   4.203  19.623  0.00  0.00    +0.000 OA
ATOM      3  N   UNL     1       4.230   5.610  18.349  0.00  0.00    +0.000 N 
ATOM      4  C   UNL     1       4.013   6.523  17.242  0.00  0.00    +0.000 C 
ATOM      5  C   UNL     1       3.300   7.701  17.878  0.00  0.00    +0.000 C 
ATOM      6  C   UNL     1       2.443   7.066  18.965  0.00  0.00    +0.000 C 
ATOM      7  C   UNL     1       3.222   5.805  19.391  0.00  0.00    +0.000 C 
ENDROOT
BRANCH   7   8
ATOM      8  C   UNL     1       2.324   4.600  19.517  0.00  0.00    +0.000 A 
ATOM      9  C   UNL     1       1.896   3.989  20.748  0.00  0.00    +0.000 A 
ATOM     10  C   UNL     1       1.129   2.862  20.550  0.00  0.00    +0.000 A 
ATOM     11  S   UNL     1       0.890   2.537  18.892  0.00  0.00    +0.000 S 
ATOM     12  C   UNL     1       1.816   3.899  18.436  0.00  0.00    +0.000 A 
ENDBRANCH   7   8
BRANCH   1  13
ATOM     13  C   UNL     1       6.445   4.882  17.517  0.00  0.00    +0.000 C 
BRANCH  13  15
ATOM     14  C   UNL     1       7.385   7.217  17.415  0.00  0.00    +0.000 C 
ATOM     15  C   UNL     1       7.633   5.781  17.879  0.00  0.00    +0.000 C 
ATOM     16  C   UNL     1       7.860   5.762  19.395  0.00  0.00    +0.000 C 
ENDBRANCH  13  15
ENDBRANCH   1  13
TORSDOF 3
ENDMDL
MODEL 6
REMARK VINA RESULT:      -6.2      2.296      4.756
REMARK  Name = 
REMARK  5 active torsions:
REMARK  status: ('A' for Active; 'I' for Inactive)
REMARK    1  A    between atoms: C_1  and  C_2
REMARK    2  A    between atoms: C_2  and  C_3
REMARK    3  A    between atoms: C_2  and  C_4
REMARK    4  A    between atoms: C_4  and  C_5
REMARK    5  A    between atoms: C_11  and  C_12
REMARK                            x       y       z     vdW  Elec       q    Type
REMARK                         _______ _______ _______ _____ _____    ______ ____
ROOT
ATOM      1  C   UNL     1       5.571   5.356  18.389  0.00  0.00    +0.000 C 
ATOM      2  O   UNL     1       5.848   4.720  19.402  0.00  0.00    +0.000 OA
ATOM      3  N   UNL     1       4.358   5.997  18.227  0.00  0.00    +0.000 N 
ATOM      4  C   UNL     1       3.985   6.906  17.158  0.00  0.00    +0.000 C 
ATOM      5  C   UNL     1       3.167   7.974  17.860  0.00  0.00    +0.000 C 
ATOM      6  C   UNL     1       2.441   7.213  18.961  0.00  0.00    +0.000 C 
ATOM      7  C   UNL     1       3.383   6.044  19.316  0.00  0.00    +0.000 C 
ENDROOT
BRANCH   7   8
ATOM      8  C   UNL     1       2.640   4.737  19.442  0.00  0.00    +0.000 A 
ATOM      9  C   UNL     1       1.975   4.034  18.377  0.00  0.00    +0.000 A 
ATOM     10  C   UNL     1       1.327   2.898  18.805  0.00  0.00    +0.000 A 
ATOM     11  S   UNL     1       1.527   2.642  20.480  0.00  0.00    +0.000 S 
ATOM     12  C   UNL     1       2.477   4.054  20.636  0.00  0.00    +0.000 A 
ENDBRANCH   7   8
BRANCH   1  13
ATOM     13  C   UNL     1       6.603   5.560  17.280  0.00  0.00    +0.000 C 
BRANCH  13  15
ATOM     14  C   UNL     1       5.349   3.672  16.181  0.00  0.00    +0.000 C 
ATOM     15  C   UNL     1       6.691   4.398  16.283  0.00  0.00    +0.000 C 
ATOM     16  C   UNL     1       7.098   4.923  14.903  0.00  0.00    +0.000 C 
ENDBRANCH  13  15
ENDBRANCH   1  13
TORSDOF 3
ENDMDL
MODEL 7
REMARK VINA RESULT:      -6.1      2.476      4.928
REMARK  Name = 
REMARK  5 active torsions:
REMARK  status: ('A' for Active; 'I' for Inactive)
REMARK    1  A    between atoms: C_1  and  C_2
REMARK    2  A    between atoms: C_2  and  C_3
REMARK    3  A    between atoms: C_2  and  C_4
REMARK    4  A    between atoms: C_4  and  C_5
REMARK    5  A    between atoms: C_11  and  C_12
REMARK                            x       y       z     vdW  Elec       q    Type
REMARK                         _______ _______ _______ _____ _____    ______ ____
ROOT
ATOM      1  C   UNL     1       5.355   5.009  18.636  0.00  0.00    +0.000 C 
ATOM      2  O   UNL     1       5.622   4.454  19.698  0.00  0.00    +0.000 OA
ATOM      3  N   UNL     1       4.185   5.720  18.447  0.00  0.00    +0.000 N 
ATOM      4  C   UNL     1       3.840   6.548  17.307  0.00  0.00    +0.000 C 
ATOM      5  C   UNL     1       3.124   7.735  17.924  0.00  0.00    +0.000 C 
ATOM      6  C   UNL     1       2.386   7.136  19.115  0.00  0.00    +0.000 C 
ATOM      7  C   UNL     1       3.255   5.940  19.554  0.00  0.00    +0.000 C 
ENDROOT
BRANCH   7   8
ATOM      8  C   UNL     1       2.427   4.710  19.827  0.00  0.00    +0.000 A 
ATOM      9  C   UNL     1       1.632   3.993  18.865  0.00  0.00    +0.000 A 
ATOM     10  C   UNL     1       0.933   2.944  19.420  0.00  0.00    +0.000 A 
ATOM     11  S   UNL     1       1.241   2.786  21.091  0.00  0.00    +0.000 S 
ATOM     12  C   UNL     1       2.304   4.124  21.076  0.00  0.00    +0.000 A 
ENDBRANCH   7   8
BRANCH   1  13
ATOM     13  C   UNL     1       6.359   5.031  17.484  0.00  0.00    +0.000 C 
BRANCH  13  15
ATOM     14  C   UNL     1       7.270   7.379  17.391  0.00  0.00    +0.000 C 
ATOM     15  C   UNL     1       7.583   5.922  17.737  0.00  0.00    +0.000 C 
ATOM     16  C   UNL     1       8.008   5.821  19.205  0.00  0.00    +0.000 C 
ENDBRANCH  13  15
ENDBRANCH   1  13
TORSDOF 3
ENDMDL
MODEL 8
REMARK VINA RESULT:      -6.1      1.118      1.761
REMARK  Name = 
REMARK  5 active torsions:
REMARK  status: ('A' for Active; 'I' for Inactive)
REMARK    1  A    between atoms: C_1  and  C_2
REMARK    2  A    between atoms: C_2  and  C_3
REMARK    3  A    between atoms: C_2  and  C_4
REMARK    4  A    between atoms: C_4  and  C_5
REMARK    5  A    between atoms: C_11  and  C_12
REMARK                            x       y       z     vdW  Elec       q    Type
REMARK                         _______ _______ _______ _____ _____    ______ ____
ROOT
ATOM      1  C   UNL     1       3.477   3.189  18.692  0.00  0.00    +0.000 C 
ATOM      2  O   UNL     1       3.521   2.552  17.643  0.00  0.00    +0.000 OA
ATOM      3  N   UNL     1       3.567   4.567  18.725  0.00  0.00    +0.000 N 
ATOM      4  C   UNL     1       3.363   5.430  19.874  0.00  0.00    +0.000 C 
ATOM      5  C   UNL     1       2.624   6.626  19.303  0.00  0.00    +0.000 C 
ATOM      6  C   UNL     1       3.203   6.776  17.901  0.00  0.00    +0.000 C 
ATOM      7  C   UNL     1       3.603   5.346  17.487  0.00  0.00    +0.000 C 
ENDROOT
BRANCH   7   8
ATOM      8  C   UNL     1       4.971   5.302  16.853  0.00  0.00    +0.000 A 
ATOM      9  C   UNL     1       6.161   5.930  17.362  0.00  0.00    +0.000 A 
ATOM     10  C   UNL     1       7.250   5.771  16.534  0.00  0.00    +0.000 A 
ATOM     11  S   UNL     1       6.869   4.846  15.152  0.00  0.00    +0.000 S 
ATOM     12  C   UNL     1       5.246   4.662  15.656  0.00  0.00    +0.000 A 
ENDBRANCH   7   8
BRANCH   1  13
ATOM     13  C   UNL     1       3.215   2.492  20.027  0.00  0.00    +0.000 C 
BRANCH  13  15
ATOM     14  C   UNL     1       1.312   2.840  21.641  0.00  0.00    +0.000 C 
ATOM     15  C   UNL     1       1.733   2.216  20.310  0.00  0.00    +0.000 C 
ATOM     16  C   UNL     1       0.870   2.786  19.179  0.00  0.00    +0.000 C 
ENDBRANCH  13  15
ENDBRANCH   1  13
TORSDOF 3
ENDMDL
MODEL 9
REMARK VINA RESULT:      -6.0      2.183      4.828
REMARK  Name = 
REMARK  5 active torsions:
REMARK  status: ('A' for Active; 'I' for Inactive)
REMARK    1  A    between atoms: C_1  and  C_2
REMARK    2  A    between atoms: C_2  and  C_3
REMARK    3  A    between atoms: C_2  and  C_4
REMARK    4  A    between atoms: C_4  and  C_5
REMARK    5  A    between atoms: C_11  and  C_12
REMARK                            x       y       z     vdW  Elec       q    Type
REMARK                         _______ _______ _______ _____ _____    ______ ____
ROOT
ATOM      1  C   UNL     1       5.438   5.280  18.314  0.00  0.00    +0.000 C 
ATOM      2  O   UNL     1       5.710   4.609  19.306  0.00  0.00    +0.000 OA
ATOM      3  N   UNL     1       4.239   5.954  18.184  0.00  0.00    +0.000 N 
ATOM      4  C   UNL     1       3.877   6.902  17.146  0.00  0.00    +0.000 C 
ATOM      5  C   UNL     1       3.093   7.968  17.886  0.00  0.00    +0.000 C 
ATOM      6  C   UNL     1       2.360   7.193  18.974  0.00  0.00    +0.000 C 
ATOM      7  C   UNL     1       3.277   5.993  19.284  0.00  0.00    +0.000 C 
ENDROOT
BRANCH   7   8
ATOM      8  C   UNL     1       2.505   4.701  19.382  0.00  0.00    +0.000 A 
ATOM      9  C   UNL     1       2.295   3.929  20.578  0.00  0.00    +0.000 A 
ATOM     10  C   UNL     1       1.602   2.761  20.349  0.00  0.00    +0.000 A 
ATOM     11  S   UNL     1       1.172   2.586  18.707  0.00  0.00    +0.000 S 
ATOM     12  C   UNL     1       1.916   4.070  18.299  0.00  0.00    +0.000 A 
ENDBRANCH   7   8
BRANCH   1  13
ATOM     13  C   UNL     1       6.463   5.491  17.200  0.00  0.00    +0.000 C 
BRANCH  13  15
ATOM     14  C   UNL     1       5.173   3.642  16.077  0.00  0.00    +0.000 C 
ATOM     15  C   UNL     1       6.526   4.347  16.181  0.00  0.00    +0.000 C 
ATOM     16  C   UNL     1       6.929   4.893  14.807  0.00  0.00    +0.000 C 
ENDBRANCH  13  15
ENDBRANCH   1  13
TORSDOF 3
ENDMDL
