MODEL 1
REMARK VINA RESULT:      -9.6      0.000      0.000
REMARK  Name = 
REMARK  6 active torsions:
REMARK  status: ('A' for Active; 'I' for Inactive)
REMARK    1  A    between atoms: C_1  and  C_2
REMARK    2  A    between atoms: C_3  and  C_4
REMARK    3  A    between atoms: N_6  and  C_7
REMARK    4  A    between atoms: C_16  and  C_17
REMARK    5  A    between atoms: C_19  and  C_20
REMARK    6  A    between atoms: C_21  and  C_22
REMARK                            x       y       z     vdW  Elec       q    Type
REMARK                         _______ _______ _______ _____ _____    ______ ____
ROOT
ATOM      1  C   UNL     1       1.020   2.818  18.786  0.00  0.00    +0.000 C 
ATOM      2  C   UNL     1       2.486   3.060  19.060  0.00  0.00    +0.000 C 
ATOM      3  C   UNL     1       3.190   4.221  19.070  0.00  0.00    +0.000 C 
ATOM      4  C   UNL     1       4.668   4.195  19.411  0.00  0.00    +0.000 C 
ATOM      5  N   UNL     1       5.225   2.862  19.302  0.00  0.00    +0.000 N 
ATOM      6  C   UNL     1       4.494   1.736  19.466  0.00  0.00    +0.000 C 
ATOM      7  O   UNL     1       5.016   0.646  19.664  0.00  0.00    +0.000 OA
ATOM      8  N   UNL     1       3.151   1.884  19.345  0.00  0.00    +0.000 N 
ATOM      9  H   UNL     1       6.218   2.727  19.435  0.00  0.00    +0.000 HD
ATOM     10  H   UNL     1       2.632   1.013  19.388  0.00  0.00    +0.000 HD
ENDROOT
BRANCH   4  11
ATOM     11  C   UNL     1       5.577   5.075  18.584  0.00  0.00    +0.000 A 
ATOM     12  C   UNL     1       6.050   6.344  18.864  0.00  0.00    +0.000 A 
ATOM     13  C   UNL     1       7.014   6.776  17.915  0.00  0.00    +0.000 A 
ATOM     14  C   UNL     1       7.213   5.852  16.913  0.00  0.00    +0.000 A 
ATOM     15  S   UNL     1       6.195   4.493  17.089  0.00  0.00    +0.000 S 
BRANCH  13  16
ATOM     16  C   UNL     1       7.730   8.009  17.962  0.00  0.00    +0.000 C 
ATOM     17  C   UNL     1       8.292   9.071  18.028  0.00  0.00    +0.000 C 
BRANCH  17  18
ATOM     18  C   UNL     1       8.908  10.353  18.145  0.00  0.00    +0.000 A 
ATOM     19  C   UNL     1      10.091  10.487  18.878  0.00  0.00    +0.000 A 
ATOM     20  C   UNL     1      10.696  11.738  19.011  0.00  0.00    +0.000 A 
ATOM     21  C   UNL     1      10.120  12.857  18.409  0.00  0.00    +0.000 A 
ATOM     22  C   UNL     1       8.940  12.726  17.675  0.00  0.00    +0.000 A 
ATOM     23  C   UNL     1       8.333  11.474  17.543  0.00  0.00    +0.000 A 
ENDBRANCH  17  18
ENDBRANCH  13  16
ENDBRANCH   4  11
BRANCH   3  24
ATOM     24  C   UNL     1       2.489   5.529  18.778  0.00  0.00    +0.000 C 
ATOM     25  O   UNL     1       1.893   5.662  17.711  0.00  0.00    +0.000 OA
ATOM     26  N   UNL     1       2.597   6.561  19.697  0.00  0.00    +0.000 N 
ATOM     27  H   UNL     1       3.297   6.513  20.424  0.00  0.00    +0.000 HD
BRANCH  26  28
ATOM     28  C   UNL     1       1.975   7.834  19.553  0.00  0.00    +0.000 A 
ATOM     29  C   UNL     1       2.080   8.587  18.377  0.00  0.00    +0.000 A 
ATOM     30  C   UNL     1       1.534   9.870  18.257  0.00  0.00    +0.000 A 
ATOM     31  C   UNL     1       0.865  10.374  19.368  0.00  0.00    +0.000 A 
ATOM     32  N   UNL     1       0.260  11.582  19.589  0.00  0.00    +0.000 N 
ATOM     33  N   UNL     1      -0.290  11.702  20.810  0.00  0.00    +0.000 NA
ATOM     34  C   UNL     1      -0.020  10.529  21.388  0.00  0.00    +0.000 A 
ATOM     35  C   UNL     1       0.698   9.650  20.542  0.00  0.00    +0.000 A 
ATOM     36  C   UNL     1       1.236   8.347  20.635  0.00  0.00    +0.000 A 
ATOM     37  H   UNL     1       0.195  12.366  18.948  0.00  0.00    +0.000 HD
ENDBRANCH  26  28
ENDBRANCH   3  24
TORSDOF 5
ENDMDL
MODEL 2
REMARK VINA RESULT:      -9.2      0.526      1.189
REMARK  Name = 
REMARK  6 active torsions:
REMARK  status: ('A' for Active; 'I' for Inactive)
REMARK    1  A    between atoms: C_1  and  C_2
REMARK    2  A    between atoms: C_3  and  C_4
REMARK    3  A    between atoms: N_6  and  C_7
REMARK    4  A    between atoms: C_16  and  C_17
REMARK    5  A    between atoms: C_19  and  C_20
REMARK    6  A    between atoms: C_21  and  C_22
REMARK                            x       y       z     vdW  Elec       q    Type
REMARK                         _______ _______ _______ _____ _____    ______ ____
ROOT
ATOM      1  C   UNL     1       0.820   3.210  19.012  0.00  0.00    +0.000 C 
ATOM      2  C   UNL     1       2.324   3.305  19.127  0.00  0.00    +0.000 C 
ATOM      3  C   UNL     1       3.126   4.400  19.176  0.00  0.00    +0.000 C 
ATOM      4  C   UNL     1       4.624   4.220  19.326  0.00  0.00    +0.000 C 
ATOM      5  N   UNL     1       5.043   2.870  19.007  0.00  0.00    +0.000 N 
ATOM      6  C   UNL     1       4.237   1.792  19.139  0.00  0.00    +0.000 C 
ATOM      7  O   UNL     1       4.678   0.650  19.153  0.00  0.00    +0.000 OA
ATOM      8  N   UNL     1       2.907   2.056  19.201  0.00  0.00    +0.000 N 
ATOM      9  H   UNL     1       6.029   2.644  19.001  0.00  0.00    +0.000 HD
ATOM     10  H   UNL     1       2.320   1.229  19.213  0.00  0.00    +0.000 HD
ENDROOT
BRANCH   4  11
ATOM     11  C   UNL     1       5.509   5.118  18.493  0.00  0.00    +0.000 A 
ATOM     12  C   UNL     1       5.977   6.388  18.780  0.00  0.00    +0.000 A 
ATOM     13  C   UNL     1       6.918   6.841  17.817  0.00  0.00    +0.000 A 
ATOM     14  C   UNL     1       7.104   5.931  16.800  0.00  0.00    +0.000 A 
ATOM     15  S   UNL     1       6.102   4.560  16.979  0.00  0.00    +0.000 S 
BRANCH  13  16
ATOM     16  C   UNL     1       7.624   8.079  17.866  0.00  0.00    +0.000 C 
ATOM     17  C   UNL     1       8.202   9.131  17.959  0.00  0.00    +0.000 C 
BRANCH  17  18
ATOM     18  C   UNL     1       8.871  10.379  18.134  0.00  0.00    +0.000 A 
ATOM     19  C   UNL     1      10.012  10.446  18.939  0.00  0.00    +0.000 A 
ATOM     20  C   UNL     1      10.667  11.664  19.128  0.00  0.00    +0.000 A 
ATOM     21  C   UNL     1      10.183  12.818  18.510  0.00  0.00    +0.000 A 
ATOM     22  C   UNL     1       9.045  12.754  17.705  0.00  0.00    +0.000 A 
ATOM     23  C   UNL     1       8.388  11.535  17.516  0.00  0.00    +0.000 A 
ENDBRANCH  17  18
ENDBRANCH  13  16
ENDBRANCH   4  11
BRANCH   3  24
ATOM     24  C   UNL     1       2.517   5.782  19.114  0.00  0.00    +0.000 C 
ATOM     25  O   UNL     1       2.268   6.277  18.017  0.00  0.00    +0.000 OA
ATOM     26  N   UNL     1       2.320   6.474  20.298  0.00  0.00    +0.000 N 
ATOM     27  H   UNL     1       2.768   6.156  21.146  0.00  0.00    +0.000 HD
BRANCH  26  28
ATOM     28  C   UNL     1       1.742   7.774  20.384  0.00  0.00    +0.000 A 
ATOM     29  C   UNL     1       1.132   8.243  21.554  0.00  0.00    +0.000 A 
ATOM     30  C   UNL     1       0.497   9.488  21.622  0.00  0.00    +0.000 A 
ATOM     31  C   UNL     1       0.501  10.258  20.463  0.00  0.00    +0.000 A 
ATOM     32  N   UNL     1      -0.050  11.481  20.187  0.00  0.00    +0.000 N 
ATOM     33  N   UNL     1       0.169  11.907  18.931  0.00  0.00    +0.000 NA
ATOM     34  C   UNL     1       0.881  10.917  18.388  0.00  0.00    +0.000 A 
ATOM     35  C   UNL     1       1.127   9.855  19.290  0.00  0.00    +0.000 A 
ATOM     36  C   UNL     1       1.783   8.604  19.250  0.00  0.00    +0.000 A 
ATOM     37  H   UNL     1      -0.592  12.068  20.812  0.00  0.00    +0.000 HD
ENDBRANCH  26  28
ENDBRANCH   3  24
TORSDOF 5
ENDMDL
MODEL 3
REMARK VINA RESULT:      -8.6      1.080      1.702
REMARK  Name = 
REMARK  6 active torsions:
REMARK  status: ('A' for Active; 'I' for Inactive)
REMARK    1  A    between atoms: C_1  and  C_2
REMARK    2  A    between atoms: C_3  and  C_4
REMARK    3  A    between atoms: N_6  and  C_7
REMARK    4  A    between atoms: C_16  and  C_17
REMARK    5  A    between atoms: C_19  and  C_20
REMARK    6  A    between atoms: C_21  and  C_22
REMARK                            x       y       z     vdW  Elec       q    Type
REMARK                         _______ _______ _______ _____ _____    ______ ____
ROOT
ATOM      1  C   UNL     1       0.706   2.939  19.610  0.00  0.00    +0.000 C 
ATOM      2  C   UNL     1       2.164   3.032  19.222  0.00  0.00    +0.000 C 
ATOM      3  C   UNL     1       3.032   4.070  19.340  0.00  0.00    +0.000 C 
ATOM      4  C   UNL     1       4.471   3.893  18.897  0.00  0.00    +0.000 C 
ATOM      5  N   UNL     1       4.635   2.738  18.037  0.00  0.00    +0.000 N 
ATOM      6  C   UNL     1       3.826   1.656  18.084  0.00  0.00    +0.000 C 
ATOM      7  O   UNL     1       4.141   0.587  17.577  0.00  0.00    +0.000 OA
ATOM      8  N   UNL     1       2.623   1.847  18.683  0.00  0.00    +0.000 N 
ATOM      9  H   UNL     1       5.537   2.555  17.618  0.00  0.00    +0.000 HD
ATOM     10  H   UNL     1       2.002   1.046  18.631  0.00  0.00    +0.000 HD
ENDROOT
BRANCH   4  11
ATOM     11  C   UNL     1       5.103   5.042  18.146  0.00  0.00    +0.000 A 
ATOM     12  C   UNL     1       5.830   6.110  18.640  0.00  0.00    +0.000 A 
ATOM     13  C   UNL     1       6.398   6.895  17.602  0.00  0.00    +0.000 A 
ATOM     14  C   UNL     1       6.050   6.439  16.351  0.00  0.00    +0.000 A 
ATOM     15  S   UNL     1       4.994   5.100  16.431  0.00  0.00    +0.000 S 
BRANCH  13  16
ATOM     16  C   UNL     1       7.249   8.025  17.788  0.00  0.00    +0.000 C 
ATOM     17  C   UNL     1       7.935   8.994  17.985  0.00  0.00    +0.000 C 
BRANCH  17  18
ATOM     18  C   UNL     1       8.712  10.156  18.273  0.00  0.00    +0.000 A 
ATOM     19  C   UNL     1       8.513  11.323  17.530  0.00  0.00    +0.000 A 
ATOM     20  C   UNL     1       9.276  12.461  17.794  0.00  0.00    +0.000 A 
ATOM     21  C   UNL     1      10.239  12.436  18.803  0.00  0.00    +0.000 A 
ATOM     22  C   UNL     1      10.439  11.273  19.548  0.00  0.00    +0.000 A 
ATOM     23  C   UNL     1       9.676  10.132  19.283  0.00  0.00    +0.000 A 
ENDBRANCH  17  18
ENDBRANCH  13  16
ENDBRANCH   4  11
BRANCH   3  24
ATOM     24  C   UNL     1       2.564   5.377  19.941  0.00  0.00    +0.000 C 
ATOM     25  O   UNL     1       2.368   5.441  21.152  0.00  0.00    +0.000 OA
ATOM     26  N   UNL     1       2.309   6.443  19.094  0.00  0.00    +0.000 N 
ATOM     27  H   UNL     1       2.227   6.286  18.099  0.00  0.00    +0.000 HD
BRANCH  26  28
ATOM     28  C   UNL     1       1.881   7.731  19.528  0.00  0.00    +0.000 A 
ATOM     29  C   UNL     1       1.469   7.975  20.844  0.00  0.00    +0.000 A 
ATOM     30  C   UNL     1       0.977   9.218  21.258  0.00  0.00    +0.000 A 
ATOM     31  C   UNL     1       0.920  10.222  20.296  0.00  0.00    +0.000 A 
ATOM     32  N   UNL     1       0.468  11.513  20.361  0.00  0.00    +0.000 N 
ATOM     33  N   UNL     1       0.576  12.188  19.204  0.00  0.00    +0.000 NA
ATOM     34  C   UNL     1       1.113  11.292  18.371  0.00  0.00    +0.000 A 
ATOM     35  C   UNL     1       1.355  10.041  18.989  0.00  0.00    +0.000 A 
ATOM     36  C   UNL     1       1.870   8.786  18.598  0.00  0.00    +0.000 A 
ATOM     37  H   UNL     1       0.069  11.986  21.164  0.00  0.00    +0.000 HD
ENDBRANCH  26  28
ENDBRANCH   3  24
TORSDOF 5
ENDMDL
MODEL 4
REMARK VINA RESULT:      -8.5      1.174      1.376
REMARK  Name = 
REMARK  6 active torsions:
REMARK  status: ('A' for Active; 'I' for Inactive)
REMARK    1  A    between atoms: C_1  and  C_2
REMARK    2  A    between atoms: C_3  and  C_4
REMARK    3  A    between atoms: N_6  and  C_7
REMARK    4  A    between atoms: C_16  and  C_17
REMARK    5  A    between atoms: C_19  and  C_20
REMARK    6  A    between atoms: C_21  and  C_22
REMARK                            x       y       z     vdW  Elec       q    Type
REMARK                         _______ _______ _______ _____ _____    ______ ____
ROOT
ATOM      1  C   UNL     1       0.662   3.103  19.376  0.00  0.00    +0.000 C 
ATOM      2  C   UNL     1       2.143   3.165  19.080  0.00  0.00    +0.000 C 
ATOM      3  C   UNL     1       3.026   4.180  19.264  0.00  0.00    +0.000 C 
ATOM      4  C   UNL     1       4.486   3.972  18.909  0.00  0.00    +0.000 C 
ATOM      5  N   UNL     1       4.675   2.824  18.045  0.00  0.00    +0.000 N 
ATOM      6  C   UNL     1       3.839   1.762  18.029  0.00  0.00    +0.000 C 
ATOM      7  O   UNL     1       4.159   0.691  17.528  0.00  0.00    +0.000 OA
ATOM      8  N   UNL     1       2.607   1.975  18.555  0.00  0.00    +0.000 N 
ATOM      9  H   UNL     1       5.597   2.624  17.681  0.00  0.00    +0.000 HD
ATOM     10  H   UNL     1       1.971   1.190  18.454  0.00  0.00    +0.000 HD
ENDROOT
BRANCH   4  11
ATOM     11  C   UNL     1       5.190   5.114  18.213  0.00  0.00    +0.000 A 
ATOM     12  C   UNL     1       5.997   6.098  18.754  0.00  0.00    +0.000 A 
ATOM     13  C   UNL     1       6.608   6.899  17.753  0.00  0.00    +0.000 A 
ATOM     14  C   UNL     1       6.214   6.539  16.483  0.00  0.00    +0.000 A 
ATOM     15  S   UNL     1       5.066   5.276  16.506  0.00  0.00    +0.000 S 
BRANCH  13  16
ATOM     16  C   UNL     1       7.540   7.953  17.987  0.00  0.00    +0.000 C 
ATOM     17  C   UNL     1       8.287   8.869  18.213  0.00  0.00    +0.000 C 
BRANCH  17  18
ATOM     18  C   UNL     1       9.127   9.980  18.522  0.00  0.00    +0.000 A 
ATOM     19  C   UNL     1       9.661  10.753  17.487  0.00  0.00    +0.000 A 
ATOM     20  C   UNL     1      10.495  11.834  17.776  0.00  0.00    +0.000 A 
ATOM     21  C   UNL     1      10.796  12.146  19.102  0.00  0.00    +0.000 A 
ATOM     22  C   UNL     1      10.263  11.377  20.139  0.00  0.00    +0.000 A 
ATOM     23  C   UNL     1       9.429  10.294  19.849  0.00  0.00    +0.000 A 
ENDBRANCH  17  18
ENDBRANCH  13  16
ENDBRANCH   4  11
BRANCH   3  24
ATOM     24  C   UNL     1       2.554   5.490  19.852  0.00  0.00    +0.000 C 
ATOM     25  O   UNL     1       2.520   5.620  21.073  0.00  0.00    +0.000 OA
ATOM     26  N   UNL     1       2.110   6.482  18.991  0.00  0.00    +0.000 N 
ATOM     27  H   UNL     1       1.904   6.256  18.028  0.00  0.00    +0.000 HD
BRANCH  26  28
ATOM     28  C   UNL     1       1.655   7.766  19.410  0.00  0.00    +0.000 A 
ATOM     29  C   UNL     1       1.716   8.888  18.574  0.00  0.00    +0.000 A 
ATOM     30  C   UNL     1       1.340  10.166  19.005  0.00  0.00    +0.000 A 
ATOM     31  C   UNL     1       0.890  10.278  20.317  0.00  0.00    +0.000 A 
ATOM     32  N   UNL     1       0.488  11.366  21.045  0.00  0.00    +0.000 N 
ATOM     33  N   UNL     1       0.117  11.073  22.303  0.00  0.00    +0.000 NA
ATOM     34  C   UNL     1       0.293   9.751  22.379  0.00  0.00    +0.000 A 
ATOM     35  C   UNL     1       0.773   9.189  21.171  0.00  0.00    +0.000 A 
ATOM     36  C   UNL     1       1.134   7.904  20.710  0.00  0.00    +0.000 A 
ATOM     37  H   UNL     1       0.453  12.333  20.741  0.00  0.00    +0.000 HD
ENDBRANCH  26  28
ENDBRANCH   3  24
TORSDOF 5
ENDMDL
MODEL 5
REMARK VINA RESULT:      -8.5      1.138      1.660
REMARK  Name = 
REMARK  6 active torsions:
REMARK  status: ('A' for Active; 'I' for Inactive)
REMARK    1  A    between atoms: C_1  and  C_2
REMARK    2  A    between atoms: C_3  and  C_4
REMARK    3  A    between atoms: N_6  and  C_7
REMARK    4  A    between atoms: C_16  and  C_17
REMARK    5  A    between atoms: C_19  and  C_20
REMARK    6  A    between atoms: C_21  and  C_22
REMARK                            x       y       z     vdW  Elec       q    Type
REMARK                         _______ _______ _______ _____ _____    ______ ____
ROOT
ATOM      1  C   UNL     1       0.678   3.553  19.172  0.00  0.00    +0.000 C 
ATOM      2  C   UNL     1       2.173   3.467  18.973  0.00  0.00    +0.000 C 
ATOM      3  C   UNL     1       3.131   4.413  19.148  0.00  0.00    +0.000 C 
ATOM      4  C   UNL     1       4.585   4.056  18.906  0.00  0.00    +0.000 C 
ATOM      5  N   UNL     1       4.723   2.838  18.134  0.00  0.00    +0.000 N 
ATOM      6  C   UNL     1       3.797   1.852  18.131  0.00  0.00    +0.000 C 
ATOM      7  O   UNL     1       4.049   0.725  17.724  0.00  0.00    +0.000 OA
ATOM      8  N   UNL     1       2.559   2.207  18.559  0.00  0.00    +0.000 N 
ATOM      9  H   UNL     1       5.643   2.534  17.846  0.00  0.00    +0.000 HD
ATOM     10  H   UNL     1       1.863   1.475  18.467  0.00  0.00    +0.000 HD
ENDROOT
BRANCH   4  11
ATOM     11  C   UNL     1       5.430   5.081  18.186  0.00  0.00    +0.000 A 
ATOM     12  C   UNL     1       6.016   6.232  18.683  0.00  0.00    +0.000 A 
ATOM     13  C   UNL     1       6.871   6.850  17.733  0.00  0.00    +0.000 A 
ATOM     14  C   UNL     1       6.877   6.187  16.525  0.00  0.00    +0.000 A 
ATOM     15  S   UNL     1       5.808   4.856  16.524  0.00  0.00    +0.000 S 
BRANCH  13  16
ATOM     16  C   UNL     1       7.664   8.013  17.963  0.00  0.00    +0.000 C 
ATOM     17  C   UNL     1       8.344   8.975  18.207  0.00  0.00    +0.000 C 
BRANCH  17  18
ATOM     18  C   UNL     1       9.171  10.086  18.553  0.00  0.00    +0.000 A 
ATOM     19  C   UNL     1       9.375  10.403  19.899  0.00  0.00    +0.000 A 
ATOM     20  C   UNL     1      10.170  11.495  20.250  0.00  0.00    +0.000 A 
ATOM     21  C   UNL     1      10.764  12.272  19.255  0.00  0.00    +0.000 A 
ATOM     22  C   UNL     1      10.564  11.957  17.910  0.00  0.00    +0.000 A 
ATOM     23  C   UNL     1       9.766  10.864  17.558  0.00  0.00    +0.000 A 
ENDBRANCH  17  18
ENDBRANCH  13  16
ENDBRANCH   4  11
BRANCH   3  24
ATOM     24  C   UNL     1       2.744   5.797  19.616  0.00  0.00    +0.000 C 
ATOM     25  O   UNL     1       2.706   6.032  20.822  0.00  0.00    +0.000 OA
ATOM     26  N   UNL     1       2.378   6.741  18.669  0.00  0.00    +0.000 N 
ATOM     27  H   UNL     1       2.168   6.448  17.724  0.00  0.00    +0.000 HD
BRANCH  26  28
ATOM     28  C   UNL     1       2.008   8.083  18.971  0.00  0.00    +0.000 A 
ATOM     29  C   UNL     1       1.187   8.403  20.059  0.00  0.00    +0.000 A 
ATOM     30  C   UNL     1       0.759   9.710  20.317  0.00  0.00    +0.000 A 
ATOM     31  C   UNL     1       1.196  10.698  19.439  0.00  0.00    +0.000 A 
ATOM     32  N   UNL     1       0.938  12.042  19.388  0.00  0.00    +0.000 N 
ATOM     33  N   UNL     1       1.551  12.677  18.375  0.00  0.00    +0.000 NA
ATOM     34  C   UNL     1       2.221  11.700  17.757  0.00  0.00    +0.000 A 
ATOM     35  C   UNL     1       2.044  10.437  18.370  0.00  0.00    +0.000 A 
ATOM     36  C   UNL     1       2.484   9.115  18.141  0.00  0.00    +0.000 A 
ATOM     37  H   UNL     1       0.346  12.580  20.012  0.00  0.00    +0.000 HD
ENDBRANCH  26  28
ENDBRANCH   3  24
TORSDOF 5
ENDMDL
MODEL 6
REMARK VINA RESULT:      -8.4      1.281      1.318
REMARK  Name = 
REMARK  6 active torsions:
REMARK  status: ('A' for Active; 'I' for Inactive)
REMARK    1  A    between atoms: C_1  and  C_2
REMARK    2  A    between atoms: C_3  and  C_4
REMARK    3  A    between atoms: N_6  and  C_7
REMARK    4  A    between atoms: C_16  and  C_17
REMARK    5  A    between atoms: C_19  and  C_20
REMARK    6  A    between atoms: C_21  and  C_22
REMARK                            x       y       z     vdW  Elec       q    Type
REMARK                         _______ _______ _______ _____ _____    ______ ____
ROOT
ATOM      1  C   UNL     1       0.606   3.583  18.834  0.00  0.00    +0.000 C 
ATOM      2  C   UNL     1       2.115   3.516  18.899  0.00  0.00    +0.000 C 
ATOM      3  C   UNL     1       3.025   4.509  19.065  0.00  0.00    +0.000 C 
ATOM      4  C   UNL     1       4.501   4.167  19.126  0.00  0.00    +0.000 C 
ATOM      5  N   UNL     1       4.771   2.842  18.606  0.00  0.00    +0.000 N 
ATOM      6  C   UNL     1       3.864   1.839  18.620  0.00  0.00    +0.000 C 
ATOM      7  O   UNL     1       4.187   0.669  18.457  0.00  0.00    +0.000 OA
ATOM      8  N   UNL     1       2.571   2.218  18.773  0.00  0.00    +0.000 N 
ATOM      9  H   UNL     1       5.729   2.525  18.527  0.00  0.00    +0.000 HD
ATOM     10  H   UNL     1       1.903   1.458  18.695  0.00  0.00    +0.000 HD
ENDROOT
BRANCH   4  11
ATOM     11  C   UNL     1       5.448   5.085  18.390  0.00  0.00    +0.000 A 
ATOM     12  C   UNL     1       6.041   6.256  18.826  0.00  0.00    +0.000 A 
ATOM     13  C   UNL     1       6.999   6.747  17.900  0.00  0.00    +0.000 A 
ATOM     14  C   UNL     1       7.076   5.970  16.766  0.00  0.00    +0.000 A 
ATOM     15  S   UNL     1       5.953   4.685  16.796  0.00  0.00    +0.000 S 
BRANCH  13  16
ATOM     16  C   UNL     1       7.821   7.898  18.089  0.00  0.00    +0.000 C 
ATOM     17  C   UNL     1       8.480   8.885  18.288  0.00  0.00    +0.000 C 
BRANCH  17  18
ATOM     18  C   UNL     1       9.224  10.068  18.577  0.00  0.00    +0.000 A 
ATOM     19  C   UNL     1       9.456  10.431  19.907  0.00  0.00    +0.000 A 
ATOM     20  C   UNL     1      10.171  11.593  20.202  0.00  0.00    +0.000 A 
ATOM     21  C   UNL     1      10.657  12.393  19.168  0.00  0.00    +0.000 A 
ATOM     22  C   UNL     1      10.429  12.032  17.839  0.00  0.00    +0.000 A 
ATOM     23  C   UNL     1       9.712  10.869  17.543  0.00  0.00    +0.000 A 
ENDBRANCH  17  18
ENDBRANCH  13  16
ENDBRANCH   4  11
BRANCH   3  24
ATOM     24  C   UNL     1       2.557   5.939  19.221  0.00  0.00    +0.000 C 
ATOM     25  O   UNL     1       2.257   6.351  20.339  0.00  0.00    +0.000 OA
ATOM     26  N   UNL     1       2.418   6.720  18.085  0.00  0.00    +0.000 N 
ATOM     27  H   UNL     1       2.418   6.284  17.173  0.00  0.00    +0.000 HD
BRANCH  26  28
ATOM     28  C   UNL     1       2.004   8.083  18.091  0.00  0.00    +0.000 A 
ATOM     29  C   UNL     1       2.900   9.136  17.869  0.00  0.00    +0.000 A 
ATOM     30  C   UNL     1       2.515  10.479  17.948  0.00  0.00    +0.000 A 
ATOM     31  C   UNL     1       1.181  10.731  18.255  0.00  0.00    +0.000 A 
ATOM     32  N   UNL     1       0.501  11.906  18.439  0.00  0.00    +0.000 N 
ATOM     33  N   UNL     1      -0.801  11.744  18.729  0.00  0.00    +0.000 NA
ATOM     34  C   UNL     1      -0.954  10.417  18.734  0.00  0.00    +0.000 A 
ATOM     35  C   UNL     1       0.245   9.722  18.444  0.00  0.00    +0.000 A 
ATOM     36  C   UNL     1       0.649   8.373  18.336  0.00  0.00    +0.000 A 
ATOM     37  H   UNL     1       0.873  12.848  18.386  0.00  0.00    +0.000 HD
ENDBRANCH  26  28
ENDBRANCH   3  24
TORSDOF 5
ENDMDL
MODEL 7
REMARK VINA RESULT:      -8.4      5.589      9.174
REMARK  Name = 
REMARK  6 active torsions:
REMARK  status: ('A' for Active; 'I' for Inactive)
REMARK    1  A    between atoms: C_1  and  C_2
REMARK    2  A    between atoms: C_3  and  C_4
REMARK    3  A    between atoms: N_6  and  C_7
REMARK    4  A    between atoms: C_16  and  C_17
REMARK    5  A    between atoms: C_19  and  C_20
REMARK    6  A    between atoms: C_21  and  C_22
REMARK                            x       y       z     vdW  Elec       q    Type
REMARK                         _______ _______ _______ _____ _____    ______ ____
ROOT
ATOM      1  C   UNL     1       3.240  15.503  21.856  0.00  0.00    +0.000 C 
ATOM      2  C   UNL     1       2.925  14.893  20.510  0.00  0.00    +0.000 C 
ATOM      3  C   UNL     1       1.882  14.113  20.129  0.00  0.00    +0.000 C 
ATOM      4  C   UNL     1       1.782  13.651  18.688  0.00  0.00    +0.000 C 
ATOM      5  N   UNL     1       3.042  13.791  17.986  0.00  0.00    +0.000 N 
ATOM      6  C   UNL     1       3.978  14.708  18.317  0.00  0.00    +0.000 C 
ATOM      7  O   UNL     1       4.887  15.013  17.554  0.00  0.00    +0.000 OA
ATOM      8  N   UNL     1       3.877  15.228  19.566  0.00  0.00    +0.000 N 
ATOM      9  H   UNL     1       3.122  13.450  17.037  0.00  0.00    +0.000 HD
ATOM     10  H   UNL     1       4.638  15.849  19.820  0.00  0.00    +0.000 HD
ENDROOT
BRANCH   4  11
ATOM     11  C   UNL     1       1.353  12.221  18.456  0.00  0.00    +0.000 A 
ATOM     12  C   UNL     1       2.134  11.109  18.195  0.00  0.00    +0.000 A 
ATOM     13  C   UNL     1       1.374   9.910  18.198  0.00  0.00    +0.000 A 
ATOM     14  C   UNL     1       0.033  10.141  18.410  0.00  0.00    +0.000 A 
ATOM     15  S   UNL     1      -0.313  11.807  18.547  0.00  0.00    +0.000 S 
BRANCH  13  16
ATOM     16  C   UNL     1       1.898   8.595  18.023  0.00  0.00    +0.000 C 
ATOM     17  C   UNL     1       2.373   7.493  17.920  0.00  0.00    +0.000 C 
BRANCH  17  18
ATOM     18  C   UNL     1       2.967   6.198  17.854  0.00  0.00    +0.000 A 
ATOM     19  C   UNL     1       4.337   6.077  17.601  0.00  0.00    +0.000 A 
ATOM     20  C   UNL     1       4.927   4.815  17.521  0.00  0.00    +0.000 A 
ATOM     21  C   UNL     1       4.150   3.670  17.697  0.00  0.00    +0.000 A 
ATOM     22  C   UNL     1       2.782   3.787  17.952  0.00  0.00    +0.000 A 
ATOM     23  C   UNL     1       2.190   5.051  18.030  0.00  0.00    +0.000 A 
ENDBRANCH  17  18
ENDBRANCH  13  16
ENDBRANCH   4  11
BRANCH   3  24
ATOM     24  C   UNL     1       0.815  13.741  21.134  0.00  0.00    +0.000 C 
ATOM     25  O   UNL     1       0.906  12.674  21.735  0.00  0.00    +0.000 OA
ATOM     26  N   UNL     1      -0.269  14.590  21.296  0.00  0.00    +0.000 N 
ATOM     27  H   UNL     1      -0.446  15.314  20.613  0.00  0.00    +0.000 HD
BRANCH  26  28
ATOM     28  C   UNL     1      -1.333  14.369  22.218  0.00  0.00    +0.000 A 
ATOM     29  C   UNL     1      -1.259  14.781  23.555  0.00  0.00    +0.000 A 
ATOM     30  C   UNL     1      -2.268  14.501  24.483  0.00  0.00    +0.000 A 
ATOM     31  C   UNL     1      -3.370  13.792  24.015  0.00  0.00    +0.000 A 
ATOM     32  N   UNL     1      -4.491  13.335  24.656  0.00  0.00    +0.000 N 
ATOM     33  N   UNL     1      -5.348  12.678  23.857  0.00  0.00    +0.000 NA
ATOM     34  C   UNL     1      -4.748  12.714  22.664  0.00  0.00    +0.000 A 
ATOM     35  C   UNL     1      -3.509  13.397  22.690  0.00  0.00    +0.000 A 
ATOM     36  C   UNL     1      -2.489  13.710  21.764  0.00  0.00    +0.000 A 
ATOM     37  H   UNL     1      -4.722  13.435  25.639  0.00  0.00    +0.000 HD
ENDBRANCH  26  28
ENDBRANCH   3  24
TORSDOF 5
ENDMDL
MODEL 8
REMARK VINA RESULT:      -8.2      6.441     10.296
REMARK  Name = 
REMARK  6 active torsions:
REMARK  status: ('A' for Active; 'I' for Inactive)
REMARK    1  A    between atoms: C_1  and  C_2
REMARK    2  A    between atoms: C_3  and  C_4
REMARK    3  A    between atoms: N_6  and  C_7
REMARK    4  A    between atoms: C_16  and  C_17
REMARK    5  A    between atoms: C_19  and  C_20
REMARK    6  A    between atoms: C_21  and  C_22
REMARK                            x       y       z     vdW  Elec       q    Type
REMARK                         _______ _______ _______ _____ _____    ______ ____
ROOT
ATOM      1  C   UNL     1      10.283  17.702  21.451  0.00  0.00    +0.000 C 
ATOM      2  C   UNL     1      10.012  16.880  20.212  0.00  0.00    +0.000 C 
ATOM      3  C   UNL     1       9.490  15.633  20.091  0.00  0.00    +0.000 C 
ATOM      4  C   UNL     1       9.290  15.038  18.711  0.00  0.00    +0.000 C 
ATOM      5  N   UNL     1      10.053  15.744  17.701  0.00  0.00    +0.000 N 
ATOM      6  C   UNL     1      10.403  17.045  17.809  0.00  0.00    +0.000 C 
ATOM      7  O   UNL     1      10.779  17.699  16.845  0.00  0.00    +0.000 OA
ATOM      8  N   UNL     1      10.361  17.563  19.063  0.00  0.00    +0.000 N 
ATOM      9  H   UNL     1      10.058  15.397  16.751  0.00  0.00    +0.000 HD
ATOM     10  H   UNL     1      10.709  18.514  19.131  0.00  0.00    +0.000 HD
ENDROOT
BRANCH   4  11
ATOM     11  C   UNL     1       9.647  13.581  18.534  0.00  0.00    +0.000 A 
ATOM     12  C   UNL     1       8.835  12.466  18.639  0.00  0.00    +0.000 A 
ATOM     13  C   UNL     1       9.505  11.278  18.241  0.00  0.00    +0.000 A 
ATOM     14  C   UNL     1      10.817  11.509  17.894  0.00  0.00    +0.000 A 
ATOM     15  S   UNL     1      11.254  13.146  18.103  0.00  0.00    +0.000 S 
BRANCH  13  16
ATOM     16  C   UNL     1       8.921   9.979  18.177  0.00  0.00    +0.000 C 
ATOM     17  C   UNL     1       8.380   8.905  18.108  0.00  0.00    +0.000 C 
BRANCH  17  18
ATOM     18  C   UNL     1       7.687   7.663  17.998  0.00  0.00    +0.000 A 
ATOM     19  C   UNL     1       8.107   6.567  18.757  0.00  0.00    +0.000 A 
ATOM     20  C   UNL     1       7.446   5.343  18.649  0.00  0.00    +0.000 A 
ATOM     21  C   UNL     1       6.361   5.212  17.781  0.00  0.00    +0.000 A 
ATOM     22  C   UNL     1       5.938   6.305  17.023  0.00  0.00    +0.000 A 
ATOM     23  C   UNL     1       6.601   7.531  17.131  0.00  0.00    +0.000 A 
ENDBRANCH  17  18
ENDBRANCH  13  16
ENDBRANCH   4  11
BRANCH   3  24
ATOM     24  C   UNL     1       9.083  14.865  21.329  0.00  0.00    +0.000 C 
ATOM     25  O   UNL     1       9.955  14.435  22.079  0.00  0.00    +0.000 OA
ATOM     26  N   UNL     1       7.737  14.614  21.541  0.00  0.00    +0.000 N 
ATOM     27  H   UNL     1       7.076  14.748  20.788  0.00  0.00    +0.000 HD
BRANCH  26  28
ATOM     28  C   UNL     1       7.216  13.920  22.671  0.00  0.00    +0.000 A 
ATOM     29  C   UNL     1       7.196  12.521  22.742  0.00  0.00    +0.000 A 
ATOM     30  C   UNL     1       6.619  11.833  23.815  0.00  0.00    +0.000 A 
ATOM     31  C   UNL     1       6.063  12.606  24.830  0.00  0.00    +0.000 A 
ATOM     32  N   UNL     1       5.405  12.254  25.978  0.00  0.00    +0.000 N 
ATOM     33  N   UNL     1       5.007  13.300  26.722  0.00  0.00    +0.000 NA
ATOM     34  C   UNL     1       5.425  14.356  26.019  0.00  0.00    +0.000 A 
ATOM     35  C   UNL     1       6.095  13.995  24.826  0.00  0.00    +0.000 A 
ATOM     36  C   UNL     1       6.703  14.670  23.744  0.00  0.00    +0.000 A 
ATOM     37  H   UNL     1       5.190  11.318  26.303  0.00  0.00    +0.000 HD
ENDBRANCH  26  28
ENDBRANCH   3  24
TORSDOF 5
ENDMDL
MODEL 9
REMARK VINA RESULT:      -7.9      4.500      8.595
REMARK  Name = 
REMARK  6 active torsions:
REMARK  status: ('A' for Active; 'I' for Inactive)
REMARK    1  A    between atoms: C_1  and  C_2
REMARK    2  A    between atoms: C_3  and  C_4
REMARK    3  A    between atoms: N_6  and  C_7
REMARK    4  A    between atoms: C_16  and  C_17
REMARK    5  A    between atoms: C_19  and  C_20
REMARK    6  A    between atoms: C_21  and  C_22
REMARK                            x       y       z     vdW  Elec       q    Type
REMARK                         _______ _______ _______ _____ _____    ______ ____
ROOT
ATOM      1  C   UNL     1      -2.104  13.387  20.809  0.00  0.00    +0.000 C 
ATOM      2  C   UNL     1      -1.061  14.195  20.072  0.00  0.00    +0.000 C 
ATOM      3  C   UNL     1       0.215  13.873  19.737  0.00  0.00    +0.000 C 
ATOM      4  C   UNL     1       1.055  14.867  18.959  0.00  0.00    +0.000 C 
ATOM      5  N   UNL     1       0.500  16.204  19.010  0.00  0.00    +0.000 N 
ATOM      6  C   UNL     1      -0.818  16.455  19.184  0.00  0.00    +0.000 C 
ATOM      7  O   UNL     1      -1.309  17.548  18.935  0.00  0.00    +0.000 OA
ATOM      8  N   UNL     1      -1.547  15.435  19.703  0.00  0.00    +0.000 N 
ATOM      9  H   UNL     1       1.008  16.970  18.589  0.00  0.00    +0.000 HD
ATOM     10  H   UNL     1      -2.512  15.674  19.903  0.00  0.00    +0.000 HD
ENDROOT
BRANCH   4  11
ATOM     11  C   UNL     1       2.499  15.019  19.378  0.00  0.00    +0.000 A 
ATOM     12  C   UNL     1       3.644  14.599  18.725  0.00  0.00    +0.000 A 
ATOM     13  C   UNL     1       4.824  15.072  19.359  0.00  0.00    +0.000 A 
ATOM     14  C   UNL     1       4.552  15.795  20.499  0.00  0.00    +0.000 A 
ATOM     15  S   UNL     1       2.878  15.851  20.834  0.00  0.00    +0.000 S 
BRANCH  13  16
ATOM     16  C   UNL     1       6.156  14.863  18.894  0.00  0.00    +0.000 C 
ATOM     17  C   UNL     1       7.274  14.633  18.513  0.00  0.00    +0.000 C 
BRANCH  17  18
ATOM     18  C   UNL     1       8.587  14.295  18.068  0.00  0.00    +0.000 A 
ATOM     19  C   UNL     1       8.920  12.955  17.849  0.00  0.00    +0.000 A 
ATOM     20  C   UNL     1      10.205  12.611  17.427  0.00  0.00    +0.000 A 
ATOM     21  C   UNL     1      11.160  13.606  17.221  0.00  0.00    +0.000 A 
ATOM     22  C   UNL     1      10.831  14.946  17.437  0.00  0.00    +0.000 A 
ATOM     23  C   UNL     1       9.544  15.290  17.861  0.00  0.00    +0.000 A 
ENDBRANCH  17  18
ENDBRANCH  13  16
ENDBRANCH   4  11
BRANCH   3  24
ATOM     24  C   UNL     1       0.771  12.518  20.112  0.00  0.00    +0.000 C 
ATOM     25  O   UNL     1       1.501  12.424  21.096  0.00  0.00    +0.000 OA
ATOM     26  N   UNL     1       0.492  11.436  19.293  0.00  0.00    +0.000 N 
ATOM     27  H   UNL     1       0.116  11.591  18.368  0.00  0.00    +0.000 HD
BRANCH  26  28
ATOM     28  C   UNL     1       0.938  10.105  19.538  0.00  0.00    +0.000 A 
ATOM     29  C   UNL     1       0.700   9.451  20.754  0.00  0.00    +0.000 A 
ATOM     30  C   UNL     1       1.200   8.173  21.029  0.00  0.00    +0.000 A 
ATOM     31  C   UNL     1       1.950   7.564  20.026  0.00  0.00    +0.000 A 
ATOM     32  N   UNL     1       2.597   6.359  19.987  0.00  0.00    +0.000 N 
ATOM     33  N   UNL     1       3.226   6.115  18.824  0.00  0.00    +0.000 NA
ATOM     34  C   UNL     1       2.973   7.208  18.100  0.00  0.00    +0.000 A 
ATOM     35  C   UNL     1       2.178   8.154  18.789  0.00  0.00    +0.000 A 
ATOM     36  C   UNL     1       1.645   9.435  18.524  0.00  0.00    +0.000 A 
ATOM     37  H   UNL     1       2.651   5.664  20.723  0.00  0.00    +0.000 HD
ENDBRANCH  26  28
ENDBRANCH   3  24
TORSDOF 5
ENDMDL
