MODEL 1
REMARK VINA RESULT:      -8.5      0.000      0.000
REMARK  Name = 
REMARK  8 active torsions:
REMARK  status: ('A' for Active; 'I' for Inactive)
REMARK    1  A    between atoms: C_1  and  O_2
REMARK    2  A    between atoms: O_2  and  C_3
REMARK    3  A    between atoms: C_9  and  O_10
REMARK    4  A    between atoms: O_10  and  C_11
REMARK    5  A    between atoms: C_17  and  C_19
REMARK    6  A    between atoms: N_27  and  C_28
REMARK    7  A    between atoms: C_33  and  O_34
REMARK    8  A    between atoms: O_34  and  C_35
REMARK                            x       y       z     vdW  Elec       q    Type
REMARK                         _______ _______ _______ _____ _____    ______ ____
ROOT
ATOM      1  C   UNL     1       1.945   7.059  20.341  0.00  0.00    +0.000 A 
ATOM      2  C   UNL     1       0.899   7.153  21.264  0.00  0.00    +0.000 A 
ATOM      3  C   UNL     1       0.048   8.269  21.299  0.00  0.00    +0.000 A 
ATOM      4  C   UNL     1       0.262   9.319  20.384  0.00  0.00    +0.000 A 
ATOM      5  C   UNL     1      -0.334  10.590  20.098  0.00  0.00    +0.000 A 
ATOM      6  N   UNL     1      -1.423  11.138  20.766  0.00  0.00    +0.000 N 
ATOM      7  C   UNL     1      -1.930  12.398  20.485  0.00  0.00    +0.000 C 
ATOM      8  O   UNL     1      -1.529  13.180  19.624  0.00  0.00    +0.000 OA
ATOM      9  N   UNL     1       0.304  11.195  19.101  0.00  0.00    +0.000 NA
ATOM     10  N   UNL     1       1.291  10.362  18.759  0.00  0.00    +0.000 N 
ATOM     11  C   UNL     1       2.226  10.766  17.736  0.00  0.00    +0.000 C 
ATOM     12  C   UNL     1       1.331   9.209  19.493  0.00  0.00    +0.000 A 
ATOM     13  C   UNL     1       2.202   8.107  19.455  0.00  0.00    +0.000 A 
ATOM     14  H   UNL     1      -1.852  10.556  21.462  0.00  0.00    +0.000 HD
ENDROOT
BRANCH   7  15
ATOM     15  C   UNL     1      -3.096  12.850  21.297  0.00  0.00    +0.000 A 
ATOM     16  C   UNL     1      -4.299  13.297  20.746  0.00  0.00    +0.000 A 
ATOM     17  C   UNL     1      -5.370  13.642  21.583  0.00  0.00    +0.000 A 
ATOM     18  C   UNL     1      -5.246  13.527  22.969  0.00  0.00    +0.000 A 
ATOM     19 CL   UNL     1      -6.572  13.935  23.986  0.00  0.00    +0.000 Cl
ATOM     20  C   UNL     1      -4.060  13.068  23.533  0.00  0.00    +0.000 A 
ATOM     21  C   UNL     1      -2.991  12.725  22.702  0.00  0.00    +0.000 A 
ENDBRANCH   7  15
BRANCH   1  22
ATOM     22  O   UNL     1       2.674   5.892  20.411  0.00  0.00    +0.000 OA
BRANCH  22  29
ATOM     23  C   UNL     1       6.222   4.808  16.753  0.00  0.00    +0.000 A 
ATOM     24  C   UNL     1       5.020   4.117  16.512  0.00  0.00    +0.000 A 
ATOM     25  C   UNL     1       3.915   4.204  17.347  0.00  0.00    +0.000 A 
ATOM     26  N   UNL     1       2.803   3.544  16.989  0.00  0.00    +0.000 NA
ATOM     27  C   UNL     1       1.706   3.666  17.763  0.00  0.00    +0.000 A 
ATOM     28  C   UNL     1       1.673   4.410  18.922  0.00  0.00    +0.000 A 
ATOM     29  C   UNL     1       2.836   5.070  19.314  0.00  0.00    +0.000 A 
ATOM     30  C   UNL     1       3.997   4.997  18.507  0.00  0.00    +0.000 A 
ATOM     31  C   UNL     1       5.215   5.667  18.757  0.00  0.00    +0.000 A 
ATOM     32  C   UNL     1       6.330   5.572  17.915  0.00  0.00    +0.000 A 
BRANCH  23  34
ATOM     33  C   UNL     1       6.935   4.759  14.504  0.00  0.00    +0.000 C 
ATOM     34  O   UNL     1       7.283   4.712  15.891  0.00  0.00    +0.000 OA
ENDBRANCH  23  34
BRANCH  32  35
ATOM     35  O   UNL     1       7.371   6.297  18.411  0.00  0.00    +0.000 OA
ATOM     36  C   UNL     1       7.760   7.532  17.842  0.00  0.00    +0.000 C 
ENDBRANCH  32  35
ENDBRANCH  22  29
ENDBRANCH   1  22
TORSDOF 5
ENDMDL
MODEL 2
REMARK VINA RESULT:      -8.5      3.936     11.381
REMARK  Name = 
REMARK  8 active torsions:
REMARK  status: ('A' for Active; 'I' for Inactive)
REMARK    1  A    between atoms: C_1  and  O_2
REMARK    2  A    between atoms: O_2  and  C_3
REMARK    3  A    between atoms: C_9  and  O_10
REMARK    4  A    between atoms: O_10  and  C_11
REMARK    5  A    between atoms: C_17  and  C_19
REMARK    6  A    between atoms: N_27  and  C_28
REMARK    7  A    between atoms: C_33  and  O_34
REMARK    8  A    between atoms: O_34  and  C_35
REMARK                            x       y       z     vdW  Elec       q    Type
REMARK                         _______ _______ _______ _____ _____    ______ ____
ROOT
ATOM      1  C   UNL     1      -1.178  11.619  19.596  0.00  0.00    +0.000 A 
ATOM      2  C   UNL     1      -0.673  11.256  18.344  0.00  0.00    +0.000 A 
ATOM      3  C   UNL     1       0.221  10.184  18.195  0.00  0.00    +0.000 A 
ATOM      4  C   UNL     1       0.621   9.466  19.340  0.00  0.00    +0.000 A 
ATOM      5  C   UNL     1       1.489   8.363  19.628  0.00  0.00    +0.000 A 
ATOM      6  N   UNL     1       2.233   7.657  18.690  0.00  0.00    +0.000 N 
ATOM      7  C   UNL     1       3.101   6.629  19.028  0.00  0.00    +0.000 C 
ATOM      8  O   UNL     1       3.319   6.187  20.156  0.00  0.00    +0.000 OA
ATOM      9  N   UNL     1       1.501   8.102  20.932  0.00  0.00    +0.000 NA
ATOM     10  N   UNL     1       0.686   9.009  21.479  0.00  0.00    +0.000 N 
ATOM     11  C   UNL     1       0.537   9.040  22.915  0.00  0.00    +0.000 C 
ATOM     12  C   UNL     1       0.121   9.869  20.580  0.00  0.00    +0.000 A 
ATOM     13  C   UNL     1      -0.763  10.950  20.748  0.00  0.00    +0.000 A 
ATOM     14  H   UNL     1       2.092   7.915  17.731  0.00  0.00    +0.000 HD
ENDROOT
BRANCH   7  15
ATOM     15  C   UNL     1       3.839   5.976  17.908  0.00  0.00    +0.000 A 
ATOM     16  C   UNL     1       3.820   4.601  17.664  0.00  0.00    +0.000 A 
ATOM     17  C   UNL     1       4.488   4.076  16.549  0.00  0.00    +0.000 A 
ATOM     18  C   UNL     1       5.162   4.924  15.669  0.00  0.00    +0.000 A 
ATOM     19 CL   UNL     1       5.964   4.272  14.294  0.00  0.00    +0.000 Cl
ATOM     20  C   UNL     1       5.177   6.298  15.889  0.00  0.00    +0.000 A 
ATOM     21  C   UNL     1       4.513   6.823  17.000  0.00  0.00    +0.000 A 
ENDBRANCH   7  15
BRANCH   1  22
ATOM     22  O   UNL     1      -2.067  12.672  19.577  0.00  0.00    +0.000 OA
BRANCH  22  29
ATOM     23  C   UNL     1      -5.981  13.005  23.000  0.00  0.00    +0.000 A 
ATOM     24  C   UNL     1      -6.423  12.466  21.777  0.00  0.00    +0.000 A 
ATOM     25  C   UNL     1      -5.591  12.291  20.681  0.00  0.00    +0.000 A 
ATOM     26  N   UNL     1      -6.108  11.716  19.584  0.00  0.00    +0.000 NA
ATOM     27  C   UNL     1      -5.295  11.490  18.533  0.00  0.00    +0.000 A 
ATOM     28  C   UNL     1      -3.964  11.844  18.512  0.00  0.00    +0.000 A 
ATOM     29  C   UNL     1      -3.432  12.471  19.636  0.00  0.00    +0.000 A 
ATOM     30  C   UNL     1      -4.245  12.692  20.775  0.00  0.00    +0.000 A 
ATOM     31  C   UNL     1      -3.813  13.256  21.996  0.00  0.00    +0.000 A 
ATOM     32  C   UNL     1      -4.658  13.437  23.098  0.00  0.00    +0.000 A 
BRANCH  23  34
ATOM     33  C   UNL     1      -7.618  14.336  24.057  0.00  0.00    +0.000 C 
ATOM     34  O   UNL     1      -6.831  13.142  24.066  0.00  0.00    +0.000 OA
ENDBRANCH  23  34
BRANCH  32  35
ATOM     35  O   UNL     1      -3.988  14.025  24.128  0.00  0.00    +0.000 OA
ATOM     36  C   UNL     1      -3.778  15.422  24.182  0.00  0.00    +0.000 C 
ENDBRANCH  32  35
ENDBRANCH  22  29
ENDBRANCH   1  22
TORSDOF 5
ENDMDL
MODEL 3
REMARK VINA RESULT:      -8.3      3.812     11.264
REMARK  Name = 
REMARK  8 active torsions:
REMARK  status: ('A' for Active; 'I' for Inactive)
REMARK    1  A    between atoms: C_1  and  O_2
REMARK    2  A    between atoms: O_2  and  C_3
REMARK    3  A    between atoms: C_9  and  O_10
REMARK    4  A    between atoms: O_10  and  C_11
REMARK    5  A    between atoms: C_17  and  C_19
REMARK    6  A    between atoms: N_27  and  C_28
REMARK    7  A    between atoms: C_33  and  O_34
REMARK    8  A    between atoms: O_34  and  C_35
REMARK                            x       y       z     vdW  Elec       q    Type
REMARK                         _______ _______ _______ _____ _____    ______ ____
ROOT
ATOM      1  C   UNL     1      -0.788  11.361  22.554  0.00  0.00    +0.000 A 
ATOM      2  C   UNL     1      -0.601   9.993  22.772  0.00  0.00    +0.000 A 
ATOM      3  C   UNL     1       0.099   9.192  21.855  0.00  0.00    +0.000 A 
ATOM      4  C   UNL     1       0.616   9.786  20.687  0.00  0.00    +0.000 A 
ATOM      5  C   UNL     1       1.347   9.352  19.533  0.00  0.00    +0.000 A 
ATOM      6  N   UNL     1       1.767   8.050  19.288  0.00  0.00    +0.000 N 
ATOM      7  C   UNL     1       2.427   7.672  18.128  0.00  0.00    +0.000 C 
ATOM      8  O   UNL     1       2.748   8.400  17.190  0.00  0.00    +0.000 OA
ATOM      9  N   UNL     1       1.567  10.370  18.706  0.00  0.00    +0.000 NA
ATOM     10  N   UNL     1       0.988  11.425  19.286  0.00  0.00    +0.000 N 
ATOM     11  C   UNL     1       0.986  12.692  18.593  0.00  0.00    +0.000 C 
ATOM     12  C   UNL     1       0.390  11.149  20.484  0.00  0.00    +0.000 A 
ATOM     13  C   UNL     1      -0.322  11.961  21.383  0.00  0.00    +0.000 A 
ATOM     14  H   UNL     1       1.590   7.385  20.017  0.00  0.00    +0.000 HD
ENDROOT
BRANCH   7  15
ATOM     15  C   UNL     1       2.803   6.233  18.007  0.00  0.00    +0.000 A 
ATOM     16  C   UNL     1       4.119   5.784  17.876  0.00  0.00    +0.000 A 
ATOM     17  C   UNL     1       4.391   4.410  17.835  0.00  0.00    +0.000 A 
ATOM     18  C   UNL     1       3.353   3.483  17.940  0.00  0.00    +0.000 A 
ATOM     19 CL   UNL     1       3.700   1.798  17.907  0.00  0.00    +0.000 Cl
ATOM     20  C   UNL     1       2.038   3.914  18.088  0.00  0.00    +0.000 A 
ATOM     21  C   UNL     1       1.764   5.282  18.127  0.00  0.00    +0.000 A 
ENDBRANCH   7  15
BRANCH   1  22
ATOM     22  O   UNL     1      -1.469  12.018  23.556  0.00  0.00    +0.000 OA
BRANCH  22  29
ATOM     23  C   UNL     1      -5.538  14.415  21.358  0.00  0.00    +0.000 A 
ATOM     24  C   UNL     1      -4.611  15.349  21.858  0.00  0.00    +0.000 A 
ATOM     25  C   UNL     1      -3.446  14.982  22.516  0.00  0.00    +0.000 A 
ATOM     26  N   UNL     1      -2.608  15.957  22.902  0.00  0.00    +0.000 NA
ATOM     27  C   UNL     1      -1.447  15.609  23.492  0.00  0.00    +0.000 A 
ATOM     28  C   UNL     1      -1.085  14.305  23.749  0.00  0.00    +0.000 A 
ATOM     29  C   UNL     1      -1.968  13.293  23.380  0.00  0.00    +0.000 A 
ATOM     30  C   UNL     1      -3.180  13.616  22.723  0.00  0.00    +0.000 A 
ATOM     31  C   UNL     1      -4.127  12.684  22.242  0.00  0.00    +0.000 A 
ATOM     32  C   UNL     1      -5.305  13.059  21.583  0.00  0.00    +0.000 A 
BRANCH  23  34
ATOM     33  C   UNL     1      -7.624  15.510  21.503  0.00  0.00    +0.000 C 
ATOM     34  O   UNL     1      -6.667  14.819  20.694  0.00  0.00    +0.000 OA
ENDBRANCH  23  34
BRANCH  32  35
ATOM     35  O   UNL     1      -6.043  11.962  21.254  0.00  0.00    +0.000 OA
ATOM     36  C   UNL     1      -7.332  11.739  21.791  0.00  0.00    +0.000 C 
ENDBRANCH  32  35
ENDBRANCH  22  29
ENDBRANCH   1  22
TORSDOF 5
ENDMDL
MODEL 4
REMARK VINA RESULT:      -8.2      3.881     11.291
REMARK  Name = 
REMARK  8 active torsions:
REMARK  status: ('A' for Active; 'I' for Inactive)
REMARK    1  A    between atoms: C_1  and  O_2
REMARK    2  A    between atoms: O_2  and  C_3
REMARK    3  A    between atoms: C_9  and  O_10
REMARK    4  A    between atoms: O_10  and  C_11
REMARK    5  A    between atoms: C_17  and  C_19
REMARK    6  A    between atoms: N_27  and  C_28
REMARK    7  A    between atoms: C_33  and  O_34
REMARK    8  A    between atoms: O_34  and  C_35
REMARK                            x       y       z     vdW  Elec       q    Type
REMARK                         _______ _______ _______ _____ _____    ______ ____
ROOT
ATOM      1  C   UNL     1      -1.429  11.839  22.739  0.00  0.00    +0.000 A 
ATOM      2  C   UNL     1      -1.141  10.576  23.264  0.00  0.00    +0.000 A 
ATOM      3  C   UNL     1      -0.342   9.655  22.568  0.00  0.00    +0.000 A 
ATOM      4  C   UNL     1       0.174  10.017  21.307  0.00  0.00    +0.000 A 
ATOM      5  C   UNL     1       0.985   9.403  20.298  0.00  0.00    +0.000 A 
ATOM      6  N   UNL     1       1.518   8.122  20.362  0.00  0.00    +0.000 N 
ATOM      7  C   UNL     1       2.254   7.554  19.332  0.00  0.00    +0.000 C 
ATOM      8  O   UNL     1       2.555   8.080  18.262  0.00  0.00    +0.000 OA
ATOM      9  N   UNL     1       1.156  10.227  19.267  0.00  0.00    +0.000 NA
ATOM     10  N   UNL     1       0.470  11.330  19.581  0.00  0.00    +0.000 N 
ATOM     11  C   UNL     1       0.396  12.405  18.621  0.00  0.00    +0.000 C 
ATOM     12  C   UNL     1      -0.152  11.276  20.797  0.00  0.00    +0.000 A 
ATOM     13  C   UNL     1      -0.964  12.202  21.474  0.00  0.00    +0.000 A 
ATOM     14  H   UNL     1       1.365   7.622  21.219  0.00  0.00    +0.000 HD
ENDROOT
BRANCH   7  15
ATOM     15  C   UNL     1       2.750   6.163  19.547  0.00  0.00    +0.000 A 
ATOM     16  C   UNL     1       2.086   5.215  20.329  0.00  0.00    +0.000 A 
ATOM     17  C   UNL     1       2.586   3.909  20.426  0.00  0.00    +0.000 A 
ATOM     18  C   UNL     1       3.740   3.544  19.730  0.00  0.00    +0.000 A 
ATOM     19 CL   UNL     1       4.335   1.934  19.841  0.00  0.00    +0.000 Cl
ATOM     20  C   UNL     1       4.404   4.472  18.934  0.00  0.00    +0.000 A 
ATOM     21  C   UNL     1       3.908   5.774  18.837  0.00  0.00    +0.000 A 
ENDBRANCH   7  15
BRANCH   1  22
ATOM     22  O   UNL     1      -2.202  12.640  23.552  0.00  0.00    +0.000 OA
BRANCH  22  29
ATOM     23  C   UNL     1      -6.493  13.923  20.890  0.00  0.00    +0.000 A 
ATOM     24  C   UNL     1      -5.684  15.052  21.121  0.00  0.00    +0.000 A 
ATOM     25  C   UNL     1      -4.493  14.999  21.830  0.00  0.00    +0.000 A 
ATOM     26  N   UNL     1      -3.777  16.129  21.942  0.00  0.00    +0.000 NA
ATOM     27  C   UNL     1      -2.591  16.077  22.580  0.00  0.00    +0.000 A 
ATOM     28  C   UNL     1      -2.085  14.930  23.152  0.00  0.00    +0.000 A 
ATOM     29  C   UNL     1      -2.842  13.764  23.067  0.00  0.00    +0.000 A 
ATOM     30  C   UNL     1      -4.075  13.769  22.371  0.00  0.00    +0.000 A 
ATOM     31  C   UNL     1      -4.903  12.645  22.158  0.00  0.00    +0.000 A 
ATOM     32  C   UNL     1      -6.109  12.704  21.448  0.00  0.00    +0.000 A 
BRANCH  23  34
ATOM     33  C   UNL     1      -7.474  14.369  18.792  0.00  0.00    +0.000 C 
ATOM     34  O   UNL     1      -7.653  14.015  20.166  0.00  0.00    +0.000 OA
ENDBRANCH  23  34
BRANCH  32  35
ATOM     35  O   UNL     1      -6.712  11.483  21.420  0.00  0.00    +0.000 OA
ATOM     36  C   UNL     1      -7.023  10.830  20.205  0.00  0.00    +0.000 C 
ENDBRANCH  32  35
ENDBRANCH  22  29
ENDBRANCH   1  22
TORSDOF 5
ENDMDL
MODEL 5
REMARK VINA RESULT:      -8.2      3.872     11.306
REMARK  Name = 
REMARK  8 active torsions:
REMARK  status: ('A' for Active; 'I' for Inactive)
REMARK    1  A    between atoms: C_1  and  O_2
REMARK    2  A    between atoms: O_2  and  C_3
REMARK    3  A    between atoms: C_9  and  O_10
REMARK    4  A    between atoms: O_10  and  C_11
REMARK    5  A    between atoms: C_17  and  C_19
REMARK    6  A    between atoms: N_27  and  C_28
REMARK    7  A    between atoms: C_33  and  O_34
REMARK    8  A    between atoms: O_34  and  C_35
REMARK                            x       y       z     vdW  Elec       q    Type
REMARK                         _______ _______ _______ _____ _____    ______ ____
ROOT
ATOM      1  C   UNL     1      -0.435  12.186  19.745  0.00  0.00    +0.000 A 
ATOM      2  C   UNL     1       0.252  11.910  18.559  0.00  0.00    +0.000 A 
ATOM      3  C   UNL     1       0.955  10.708  18.379  0.00  0.00    +0.000 A 
ATOM      4  C   UNL     1       0.969   9.764  19.426  0.00  0.00    +0.000 A 
ATOM      5  C   UNL     1       1.549   8.474  19.657  0.00  0.00    +0.000 A 
ATOM      6  N   UNL     1       2.339   7.772  18.755  0.00  0.00    +0.000 N 
ATOM      7  C   UNL     1       2.920   6.547  19.049  0.00  0.00    +0.000 C 
ATOM      8  O   UNL     1       2.812   5.911  20.097  0.00  0.00    +0.000 OA
ATOM      9  N   UNL     1       1.237   8.030  20.872  0.00  0.00    +0.000 NA
ATOM     10  N   UNL     1       0.498   8.999  21.421  0.00  0.00    +0.000 N 
ATOM     11  C   UNL     1       0.055   8.852  22.787  0.00  0.00    +0.000 C 
ATOM     12  C   UNL     1       0.296  10.079  20.608  0.00  0.00    +0.000 A 
ATOM     13  C   UNL     1      -0.398  11.284  20.810  0.00  0.00    +0.000 A 
ATOM     14  H   UNL     1       2.452   8.190  17.850  0.00  0.00    +0.000 HD
ENDROOT
BRANCH   7  15
ATOM     15  C   UNL     1       3.752   5.924  17.979  0.00  0.00    +0.000 A 
ATOM     16  C   UNL     1       3.749   4.557  17.692  0.00  0.00    +0.000 A 
ATOM     17  C   UNL     1       4.512   4.062  16.625  0.00  0.00    +0.000 A 
ATOM     18  C   UNL     1       5.265   4.932  15.835  0.00  0.00    +0.000 A 
ATOM     19 CL   UNL     1       6.183   4.316  14.517  0.00  0.00    +0.000 Cl
ATOM     20  C   UNL     1       5.266   6.298  16.098  0.00  0.00    +0.000 A 
ATOM     21  C   UNL     1       4.508   6.794  17.161  0.00  0.00    +0.000 A 
ENDBRANCH   7  15
BRANCH   1  22
ATOM     22  O   UNL     1      -1.100  13.393  19.761  0.00  0.00    +0.000 OA
BRANCH  22  29
ATOM     23  C   UNL     1      -6.130  12.902  21.027  0.00  0.00    +0.000 A 
ATOM     24  C   UNL     1      -5.447  13.696  21.967  0.00  0.00    +0.000 A 
ATOM     25  C   UNL     1      -4.089  13.967  21.886  0.00  0.00    +0.000 A 
ATOM     26  N   UNL     1      -3.554  14.782  22.809  0.00  0.00    +0.000 NA
ATOM     27  C   UNL     1      -2.247  15.097  22.707  0.00  0.00    +0.000 A 
ATOM     28  C   UNL     1      -1.421  14.605  21.722  0.00  0.00    +0.000 A 
ATOM     29  C   UNL     1      -1.965  13.732  20.782  0.00  0.00    +0.000 A 
ATOM     30  C   UNL     1      -3.343  13.407  20.832  0.00  0.00    +0.000 A 
ATOM     31  C   UNL     1      -4.028  12.590  19.906  0.00  0.00    +0.000 A 
ATOM     32  C   UNL     1      -5.398  12.313  19.995  0.00  0.00    +0.000 A 
BRANCH  23  34
ATOM     33  C   UNL     1      -7.912  12.227  22.418  0.00  0.00    +0.000 C 
ATOM     34  O   UNL     1      -7.478  12.676  21.131  0.00  0.00    +0.000 OA
ENDBRANCH  23  34
BRANCH  32  35
ATOM     35  O   UNL     1      -5.788  11.481  18.990  0.00  0.00    +0.000 OA
ATOM     36  C   UNL     1      -4.920  11.130  17.931  0.00  0.00    +0.000 C 
ENDBRANCH  32  35
ENDBRANCH  22  29
ENDBRANCH   1  22
TORSDOF 5
ENDMDL
MODEL 6
REMARK VINA RESULT:      -8.1      3.914     11.637
REMARK  Name = 
REMARK  8 active torsions:
REMARK  status: ('A' for Active; 'I' for Inactive)
REMARK    1  A    between atoms: C_1  and  O_2
REMARK    2  A    between atoms: O_2  and  C_3
REMARK    3  A    between atoms: C_9  and  O_10
REMARK    4  A    between atoms: O_10  and  C_11
REMARK    5  A    between atoms: C_17  and  C_19
REMARK    6  A    between atoms: N_27  and  C_28
REMARK    7  A    between atoms: C_33  and  O_34
REMARK    8  A    between atoms: O_34  and  C_35
REMARK                            x       y       z     vdW  Elec       q    Type
REMARK                         _______ _______ _______ _____ _____    ______ ____
ROOT
ATOM      1  C   UNL     1      -0.915  11.947  19.599  0.00  0.00    +0.000 A 
ATOM      2  C   UNL     1      -0.310  11.616  18.383  0.00  0.00    +0.000 A 
ATOM      3  C   UNL     1       0.496  10.474  18.249  0.00  0.00    +0.000 A 
ATOM      4  C   UNL     1       0.702   9.650  19.374  0.00  0.00    +0.000 A 
ATOM      5  C   UNL     1       1.432   8.453  19.668  0.00  0.00    +0.000 A 
ATOM      6  N   UNL     1       2.209   7.739  18.763  0.00  0.00    +0.000 N 
ATOM      7  C   UNL     1       2.939   6.613  19.113  0.00  0.00    +0.000 C 
ATOM      8  O   UNL     1       2.992   6.081  20.222  0.00  0.00    +0.000 OA
ATOM      9  N   UNL     1       1.277   8.110  20.944  0.00  0.00    +0.000 NA
ATOM     10  N   UNL     1       0.492   9.055  21.469  0.00  0.00    +0.000 N 
ATOM     11  C   UNL     1       0.190   9.010  22.880  0.00  0.00    +0.000 C 
ATOM     12  C   UNL     1       0.107  10.021  20.582  0.00  0.00    +0.000 A 
ATOM     13  C   UNL     1      -0.689  11.168  20.736  0.00  0.00    +0.000 A 
ATOM     14  H   UNL     1       2.197   8.069  17.816  0.00  0.00    +0.000 HD
ENDROOT
BRANCH   7  15
ATOM     15  C   UNL     1       3.734   5.964  18.031  0.00  0.00    +0.000 A 
ATOM     16  C   UNL     1       3.751   4.586  17.800  0.00  0.00    +0.000 A 
ATOM     17  C   UNL     1       4.473   4.064  16.719  0.00  0.00    +0.000 A 
ATOM     18  C   UNL     1       5.166   4.916  15.857  0.00  0.00    +0.000 A 
ATOM     19 CL   UNL     1       6.034   4.266  14.522  0.00  0.00    +0.000 Cl
ATOM     20  C   UNL     1       5.145   6.292  16.063  0.00  0.00    +0.000 A 
ATOM     21  C   UNL     1       4.427   6.815  17.141  0.00  0.00    +0.000 A 
ENDBRANCH   7  15
BRANCH   1  22
ATOM     22  O   UNL     1      -1.699  13.079  19.566  0.00  0.00    +0.000 OA
BRANCH  22  29
ATOM     23  C   UNL     1      -5.646  13.634  22.921  0.00  0.00    +0.000 A 
ATOM     24  C   UNL     1      -4.601  14.531  23.216  0.00  0.00    +0.000 A 
ATOM     25  C   UNL     1      -3.417  14.579  22.495  0.00  0.00    +0.000 A 
ATOM     26  N   UNL     1      -2.513  15.512  22.831  0.00  0.00    +0.000 NA
ATOM     27  C   UNL     1      -1.384  15.604  22.102  0.00  0.00    +0.000 A 
ATOM     28  C   UNL     1      -1.091  14.771  21.044  0.00  0.00    +0.000 A 
ATOM     29  C   UNL     1      -2.013  13.780  20.714  0.00  0.00    +0.000 A 
ATOM     30  C   UNL     1      -3.229  13.676  21.432  0.00  0.00    +0.000 A 
ATOM     31  C   UNL     1      -4.269  12.761  21.157  0.00  0.00    +0.000 A 
ATOM     32  C   UNL     1      -5.461  12.712  21.892  0.00  0.00    +0.000 A 
BRANCH  23  34
ATOM     33  C   UNL     1      -7.362  14.930  23.891  0.00  0.00    +0.000 C 
ATOM     34  O   UNL     1      -6.810  13.634  23.645  0.00  0.00    +0.000 OA
ENDBRANCH  23  34
BRANCH  32  35
ATOM     35  O   UNL     1      -6.272  11.720  21.428  0.00  0.00    +0.000 OA
ATOM     36  C   UNL     1      -7.465  11.999  20.723  0.00  0.00    +0.000 C 
ENDBRANCH  32  35
ENDBRANCH  22  29
ENDBRANCH   1  22
TORSDOF 5
ENDMDL
MODEL 7
REMARK VINA RESULT:      -8.1      3.876     11.458
REMARK  Name = 
REMARK  8 active torsions:
REMARK  status: ('A' for Active; 'I' for Inactive)
REMARK    1  A    between atoms: C_1  and  O_2
REMARK    2  A    between atoms: O_2  and  C_3
REMARK    3  A    between atoms: C_9  and  O_10
REMARK    4  A    between atoms: O_10  and  C_11
REMARK    5  A    between atoms: C_17  and  C_19
REMARK    6  A    between atoms: N_27  and  C_28
REMARK    7  A    between atoms: C_33  and  O_34
REMARK    8  A    between atoms: O_34  and  C_35
REMARK                            x       y       z     vdW  Elec       q    Type
REMARK                         _______ _______ _______ _____ _____    ______ ____
ROOT
ATOM      1  C   UNL     1      -0.387  12.460  19.965  0.00  0.00    +0.000 A 
ATOM      2  C   UNL     1       0.277  12.188  18.764  0.00  0.00    +0.000 A 
ATOM      3  C   UNL     1       0.930  10.964  18.547  0.00  0.00    +0.000 A 
ATOM      4  C   UNL     1       0.918   9.994  19.569  0.00  0.00    +0.000 A 
ATOM      5  C   UNL     1       1.449   8.678  19.762  0.00  0.00    +0.000 A 
ATOM      6  N   UNL     1       2.202   7.968  18.834  0.00  0.00    +0.000 N 
ATOM      7  C   UNL     1       2.738   6.714  19.091  0.00  0.00    +0.000 C 
ATOM      8  O   UNL     1       2.616   6.056  20.123  0.00  0.00    +0.000 OA
ATOM      9  N   UNL     1       1.132   8.215  20.968  0.00  0.00    +0.000 NA
ATOM     10  N   UNL     1       0.437   9.197  21.550  0.00  0.00    +0.000 N 
ATOM     11  C   UNL     1       0.003   9.033  22.917  0.00  0.00    +0.000 C 
ATOM     12  C   UNL     1       0.270  10.305  20.767  0.00  0.00    +0.000 A 
ATOM     13  C   UNL     1      -0.374  11.531  21.006  0.00  0.00    +0.000 A 
ATOM     14  H   UNL     1       2.323   8.404  17.938  0.00  0.00    +0.000 HD
ENDROOT
BRANCH   7  15
ATOM     15  C   UNL     1       3.534   6.087  17.997  0.00  0.00    +0.000 A 
ATOM     16  C   UNL     1       4.370   6.802  17.137  0.00  0.00    +0.000 A 
ATOM     17  C   UNL     1       5.135   6.125  16.177  0.00  0.00    +0.000 A 
ATOM     18  C   UNL     1       5.077   4.734  16.084  0.00  0.00    +0.000 A 
ATOM     19 CL   UNL     1       6.034   3.912  14.914  0.00  0.00    +0.000 Cl
ATOM     20  C   UNL     1       4.262   4.005  16.944  0.00  0.00    +0.000 A 
ATOM     21  C   UNL     1       3.498   4.677  17.900  0.00  0.00    +0.000 A 
ENDBRANCH   7  15
BRANCH   1  22
ATOM     22  O   UNL     1      -1.004  13.691  20.017  0.00  0.00    +0.000 OA
BRANCH  22  29
ATOM     23  C   UNL     1      -5.710  13.519  22.246  0.00  0.00    +0.000 A 
ATOM     24  C   UNL     1      -4.831  14.337  22.981  0.00  0.00    +0.000 A 
ATOM     25  C   UNL     1      -3.506  14.538  22.625  0.00  0.00    +0.000 A 
ATOM     26  N   UNL     1      -2.775  15.382  23.370  0.00  0.00    +0.000 NA
ATOM     27  C   UNL     1      -1.503  15.628  23.001  0.00  0.00    +0.000 A 
ATOM     28  C   UNL     1      -0.899  15.036  21.914  0.00  0.00    +0.000 A 
ATOM     29  C   UNL     1      -1.644  14.134  21.157  0.00  0.00    +0.000 A 
ATOM     30  C   UNL     1      -2.996  13.879  21.491  0.00  0.00    +0.000 A 
ATOM     31  C   UNL     1      -3.875  13.039  20.771  0.00  0.00    +0.000 A 
ATOM     32  C   UNL     1      -5.211  12.834  21.138  0.00  0.00    +0.000 A 
BRANCH  23  34
ATOM     33  C   UNL     1      -7.212  12.997  23.988  0.00  0.00    +0.000 C 
ATOM     34  O   UNL     1      -7.019  13.364  22.619  0.00  0.00    +0.000 OA
ENDBRANCH  23  34
BRANCH  32  35
ATOM     35  O   UNL     1      -5.816  11.959  20.286  0.00  0.00    +0.000 OA
ATOM     36  C   UNL     1      -5.504  11.923  18.907  0.00  0.00    +0.000 C 
ENDBRANCH  32  35
ENDBRANCH  22  29
ENDBRANCH   1  22
TORSDOF 5
ENDMDL
MODEL 8
REMARK VINA RESULT:      -8.1      3.996     11.693
REMARK  Name = 
REMARK  8 active torsions:
REMARK  status: ('A' for Active; 'I' for Inactive)
REMARK    1  A    between atoms: C_1  and  O_2
REMARK    2  A    between atoms: O_2  and  C_3
REMARK    3  A    between atoms: C_9  and  O_10
REMARK    4  A    between atoms: O_10  and  C_11
REMARK    5  A    between atoms: C_17  and  C_19
REMARK    6  A    between atoms: N_27  and  C_28
REMARK    7  A    between atoms: C_33  and  O_34
REMARK    8  A    between atoms: O_34  and  C_35
REMARK                            x       y       z     vdW  Elec       q    Type
REMARK                         _______ _______ _______ _____ _____    ______ ____
ROOT
ATOM      1  C   UNL     1      -1.169  11.311  19.323  0.00  0.00    +0.000 A 
ATOM      2  C   UNL     1      -0.751  10.920  18.048  0.00  0.00    +0.000 A 
ATOM      3  C   UNL     1       0.198   9.901  17.865  0.00  0.00    +0.000 A 
ATOM      4  C   UNL     1       0.743   9.267  18.999  0.00  0.00    +0.000 A 
ATOM      5  C   UNL     1       1.706   8.237  19.254  0.00  0.00    +0.000 A 
ATOM      6  N   UNL     1       2.412   7.536  18.284  0.00  0.00    +0.000 N 
ATOM      7  C   UNL     1       3.374   6.582  18.586  0.00  0.00    +0.000 C 
ATOM      8  O   UNL     1       3.718   6.210  19.707  0.00  0.00    +0.000 OA
ATOM      9  N   UNL     1       1.849   8.040  20.562  0.00  0.00    +0.000 NA
ATOM     10  N   UNL     1       1.025   8.919  21.141  0.00  0.00    +0.000 N 
ATOM     11  C   UNL     1       0.999   9.010  22.581  0.00  0.00    +0.000 C 
ATOM     12  C   UNL     1       0.326   9.697  20.260  0.00  0.00    +0.000 A 
ATOM     13  C   UNL     1      -0.610  10.725  20.461  0.00  0.00    +0.000 A 
ATOM     14  H   UNL     1       2.171   7.737  17.331  0.00  0.00    +0.000 HD
ENDROOT
BRANCH   7  15
ATOM     15  C   UNL     1       4.054   5.925  17.433  0.00  0.00    +0.000 A 
ATOM     16  C   UNL     1       4.772   6.619  16.457  0.00  0.00    +0.000 A 
ATOM     17  C   UNL     1       5.438   5.917  15.442  0.00  0.00    +0.000 A 
ATOM     18  C   UNL     1       5.400   4.522  15.409  0.00  0.00    +0.000 A 
ATOM     19 CL   UNL     1       6.235   3.670  14.170  0.00  0.00    +0.000 Cl
ATOM     20  C   UNL     1       4.703   3.815  16.384  0.00  0.00    +0.000 A 
ATOM     21  C   UNL     1       4.038   4.512  17.395  0.00  0.00    +0.000 A 
ENDBRANCH   7  15
BRANCH   1  22
ATOM     22  O   UNL     1      -2.126  12.303  19.340  0.00  0.00    +0.000 OA
BRANCH  22  29
ATOM     23  C   UNL     1      -5.296  14.141  23.043  0.00  0.00    +0.000 A 
ATOM     24  C   UNL     1      -4.129  14.922  22.942  0.00  0.00    +0.000 A 
ATOM     25  C   UNL     1      -3.103  14.640  22.053  0.00  0.00    +0.000 A 
ATOM     26  N   UNL     1      -2.061  15.486  22.005  0.00  0.00    +0.000 NA
ATOM     27  C   UNL     1      -1.085  15.253  21.106  0.00  0.00    +0.000 A 
ATOM     28  C   UNL     1      -1.083  14.174  20.249  0.00  0.00    +0.000 A 
ATOM     29  C   UNL     1      -2.146  13.276  20.318  0.00  0.00    +0.000 A 
ATOM     30  C   UNL     1      -3.210  13.508  21.224  0.00  0.00    +0.000 A 
ATOM     31  C   UNL     1      -4.371  12.713  21.347  0.00  0.00    +0.000 A 
ATOM     32  C   UNL     1      -5.402  12.997  22.251  0.00  0.00    +0.000 A 
BRANCH  23  34
ATOM     33  C   UNL     1      -7.001  15.671  23.606  0.00  0.00    +0.000 C 
ATOM     34  O   UNL     1      -6.297  14.467  23.920  0.00  0.00    +0.000 OA
ENDBRANCH  23  34
BRANCH  32  35
ATOM     35  O   UNL     1      -6.382  12.054  22.176  0.00  0.00    +0.000 OA
ATOM     36  C   UNL     1      -7.171  11.887  21.015  0.00  0.00    +0.000 C 
ENDBRANCH  32  35
ENDBRANCH  22  29
ENDBRANCH   1  22
TORSDOF 5
ENDMDL
MODEL 9
REMARK VINA RESULT:      -8.0      4.002     11.465
REMARK  Name = 
REMARK  8 active torsions:
REMARK  status: ('A' for Active; 'I' for Inactive)
REMARK    1  A    between atoms: C_1  and  O_2
REMARK    2  A    between atoms: O_2  and  C_3
REMARK    3  A    between atoms: C_9  and  O_10
REMARK    4  A    between atoms: O_10  and  C_11
REMARK    5  A    between atoms: C_17  and  C_19
REMARK    6  A    between atoms: N_27  and  C_28
REMARK    7  A    between atoms: C_33  and  O_34
REMARK    8  A    between atoms: O_34  and  C_35
REMARK                            x       y       z     vdW  Elec       q    Type
REMARK                         _______ _______ _______ _____ _____    ______ ____
ROOT
ATOM      1  C   UNL     1      -0.984  11.460  19.347  0.00  0.00    +0.000 A 
ATOM      2  C   UNL     1      -0.540  11.091  18.073  0.00  0.00    +0.000 A 
ATOM      3  C   UNL     1       0.367  10.036  17.888  0.00  0.00    +0.000 A 
ATOM      4  C   UNL     1       0.843   9.340  19.017  0.00  0.00    +0.000 A 
ATOM      5  C   UNL     1       1.749   8.259  19.269  0.00  0.00    +0.000 A 
ATOM      6  N   UNL     1       2.455   7.557  18.299  0.00  0.00    +0.000 N 
ATOM      7  C   UNL     1       3.362   6.551  18.601  0.00  0.00    +0.000 C 
ATOM      8  O   UNL     1       3.650   6.127  19.720  0.00  0.00    +0.000 OA
ATOM      9  N   UNL     1       1.837   8.014  20.573  0.00  0.00    +0.000 NA
ATOM     10  N   UNL     1       1.035   8.911  21.154  0.00  0.00    +0.000 N 
ATOM     11  C   UNL     1       0.964   8.957  22.595  0.00  0.00    +0.000 C 
ATOM     12  C   UNL     1       0.403   9.749  20.278  0.00  0.00    +0.000 A 
ATOM     13  C   UNL     1      -0.491  10.813  20.482  0.00  0.00    +0.000 A 
ATOM     14  H   UNL     1       2.257   7.799  17.346  0.00  0.00    +0.000 HD
ENDROOT
BRANCH   7  15
ATOM     15  C   UNL     1       4.050   5.899  17.449  0.00  0.00    +0.000 A 
ATOM     16  C   UNL     1       4.768   6.600  16.477  0.00  0.00    +0.000 A 
ATOM     17  C   UNL     1       5.441   5.903  15.464  0.00  0.00    +0.000 A 
ATOM     18  C   UNL     1       5.412   4.508  15.429  0.00  0.00    +0.000 A 
ATOM     19 CL   UNL     1       6.258   3.663  14.191  0.00  0.00    +0.000 Cl
ATOM     20  C   UNL     1       4.716   3.795  16.399  0.00  0.00    +0.000 A 
ATOM     21  C   UNL     1       4.043   4.486  17.409  0.00  0.00    +0.000 A 
ENDBRANCH   7  15
BRANCH   1  22
ATOM     22  O   UNL     1      -1.894  12.494  19.365  0.00  0.00    +0.000 OA
BRANCH  22  29
ATOM     23  C   UNL     1      -6.248  13.425  22.070  0.00  0.00    +0.000 A 
ATOM     24  C   UNL     1      -6.514  12.623  20.944  0.00  0.00    +0.000 A 
ATOM     25  C   UNL     1      -5.536  12.244  20.035  0.00  0.00    +0.000 A 
ATOM     26  N   UNL     1      -5.894  11.432  19.028  0.00  0.00    +0.000 NA
ATOM     27  C   UNL     1      -4.941  11.013  18.172  0.00  0.00    +0.000 A 
ATOM     28  C   UNL     1      -3.621  11.398  18.256  0.00  0.00    +0.000 A 
ATOM     29  C   UNL     1      -3.253  12.267  19.280  0.00  0.00    +0.000 A 
ATOM     30  C   UNL     1      -4.218  12.699  20.223  0.00  0.00    +0.000 A 
ATOM     31  C   UNL     1      -3.962  13.525  21.340  0.00  0.00    +0.000 A 
ATOM     32  C   UNL     1      -4.953  13.910  22.252  0.00  0.00    +0.000 A 
BRANCH  23  34
ATOM     33  C   UNL     1      -7.387  12.857  24.057  0.00  0.00    +0.000 C 
ATOM     34  O   UNL     1      -7.239  13.758  22.956  0.00  0.00    +0.000 OA
ENDBRANCH  23  34
BRANCH  32  35
ATOM     35  O   UNL     1      -4.434  14.726  23.211  0.00  0.00    +0.000 OA
ATOM     36  C   UNL     1      -5.095  15.904  23.628  0.00  0.00    +0.000 C 
ENDBRANCH  32  35
ENDBRANCH  22  29
ENDBRANCH   1  22
TORSDOF 5
ENDMDL
