MODEL 1
REMARK VINA RESULT:      -7.8      0.000      0.000
REMARK  Name = 
REMARK  6 active torsions:
REMARK  status: ('A' for Active; 'I' for Inactive)
REMARK    1  A    between atoms: C_1  and  C_2
REMARK    2  A    between atoms: C_2  and  C_3
REMARK    3  A    between atoms: C_3  and  O_4
REMARK    4  A    between atoms: O_4  and  C_5
REMARK    5  A    between atoms: N_12  and  C_13
REMARK    6  A    between atoms: C_13  and  C_14
REMARK                            x       y       z     vdW  Elec       q    Type
REMARK                         _______ _______ _______ _____ _____    ______ ____
ROOT
ATOM      1  C   UNL     1       2.338   3.536  21.415  0.00  0.00    +0.000 C 
ATOM      2  C   UNL     1       0.923   3.153  20.962  0.00  0.00    +0.000 C 
ATOM      3  C   UNL     1       0.705   3.091  19.451  0.00  0.00    +0.000 C 
ATOM      4  C   UNL     1       1.559   2.019  18.783  0.00  0.00    +0.000 C 
ATOM      5  N   UNL     1       2.927   2.484  18.580  0.00  0.00    +0.000 N 
ATOM      6  C   UNL     1       3.219   3.035  17.334  0.00  0.00    +0.000 C 
ATOM      7  O   UNL     1       2.371   3.175  16.456  0.00  0.00    +0.000 OA
ATOM      8  N   UNL     1       4.517   3.446  17.148  0.00  0.00    +0.000 N 
ATOM      9  C   UNL     1       3.879   2.302  19.670  0.00  0.00    +0.000 C 
ATOM     10  C   UNL     1       3.362   2.438  21.104  0.00  0.00    +0.000 C 
ATOM     11  H   UNL     1       5.197   2.919  17.675  0.00  0.00    +0.000 HD
ENDROOT
BRANCH   1  12
ATOM     12  O   UNL     1       2.792   4.799  20.922  0.00  0.00    +0.000 OA
BRANCH  12  13
ATOM     13  C   UNL     1       1.777   5.795  20.740  0.00  0.00    +0.000 C 
BRANCH  13  15
ATOM     14  C   UNL     1       2.292   6.463  18.357  0.00  0.00    +0.000 C 
ATOM     15  C   UNL     1       2.204   6.924  19.800  0.00  0.00    +0.000 C 
ENDBRANCH  13  15
ENDBRANCH  12  13
ENDBRANCH   1  12
BRANCH   8  16
ATOM     16  C   UNL     1       4.977   3.885  15.847  0.00  0.00    +0.000 C 
BRANCH  16  17
ATOM     17  C   UNL     1       6.024   5.019  15.816  0.00  0.00    +0.000 C 
ATOM     18  C   UNL     1       7.438   4.584  16.238  0.00  0.00    +0.000 C 
ATOM     19  C   UNL     1       7.708   4.674  17.736  0.00  0.00    +0.000 C 
ATOM     20  C   UNL     1       7.326   6.035  18.288  0.00  0.00    +0.000 C 
ATOM     21  F   UNL     1       8.140   6.981  17.746  0.00  0.00    +0.000 F 
ATOM     22  F   UNL     1       7.549   6.068  19.623  0.00  0.00    +0.000 F 
ATOM     23  C   UNL     1       5.885   6.393  17.998  0.00  0.00    +0.000 C 
ATOM     24  C   UNL     1       5.583   6.322  16.503  0.00  0.00    +0.000 C 
ENDBRANCH  16  17
ENDBRANCH   8  16
TORSDOF 5
ENDMDL
MODEL 2
REMARK VINA RESULT:      -7.6      2.603      5.586
REMARK  Name = 
REMARK  6 active torsions:
REMARK  status: ('A' for Active; 'I' for Inactive)
REMARK    1  A    between atoms: C_1  and  C_2
REMARK    2  A    between atoms: C_2  and  C_3
REMARK    3  A    between atoms: C_3  and  O_4
REMARK    4  A    between atoms: O_4  and  C_5
REMARK    5  A    between atoms: N_12  and  C_13
REMARK    6  A    between atoms: C_13  and  C_14
REMARK                            x       y       z     vdW  Elec       q    Type
REMARK                         _______ _______ _______ _____ _____    ______ ____
ROOT
ATOM      1  C   UNL     1       5.484   6.804  16.229  0.00  0.00    +0.000 C 
ATOM      2  C   UNL     1       6.582   7.088  17.261  0.00  0.00    +0.000 C 
ATOM      3  C   UNL     1       6.648   6.121  18.442  0.00  0.00    +0.000 C 
ATOM      4  C   UNL     1       6.972   4.695  18.011  0.00  0.00    +0.000 C 
ATOM      5  N   UNL     1       5.786   4.014  17.503  0.00  0.00    +0.000 N 
ATOM      6  C   UNL     1       5.077   3.234  18.413  0.00  0.00    +0.000 C 
ATOM      7  O   UNL     1       5.391   3.148  19.598  0.00  0.00    +0.000 OA
ATOM      8  N   UNL     1       3.977   2.579  17.915  0.00  0.00    +0.000 N 
ATOM      9  C   UNL     1       5.462   4.172  16.089  0.00  0.00    +0.000 C 
ATOM     10  C   UNL     1       5.757   5.522  15.432  0.00  0.00    +0.000 C 
ATOM     11  H   UNL     1       4.048   2.333  16.939  0.00  0.00    +0.000 HD
ENDROOT
BRANCH   1  12
ATOM     12  O   UNL     1       4.160   6.786  16.767  0.00  0.00    +0.000 OA
BRANCH  12  13
ATOM     13  C   UNL     1       3.706   8.021  17.338  0.00  0.00    +0.000 C 
BRANCH  13  15
ATOM     14  C   UNL     1       1.696   9.340  18.122  0.00  0.00    +0.000 C 
ATOM     15  C   UNL     1       2.256   7.962  17.822  0.00  0.00    +0.000 C 
ENDBRANCH  13  15
ENDBRANCH  12  13
ENDBRANCH   1  12
BRANCH   8  16
ATOM     16  C   UNL     1       3.258   1.615  18.723  0.00  0.00    +0.000 C 
BRANCH  16  17
ATOM     17  C   UNL     1       1.910   2.067  19.324  0.00  0.00    +0.000 C 
ATOM     18  C   UNL     1       1.179   3.139  18.497  0.00  0.00    +0.000 C 
ATOM     19  C   UNL     1       1.562   4.575  18.842  0.00  0.00    +0.000 C 
ATOM     20  C   UNL     1       1.478   4.829  20.335  0.00  0.00    +0.000 C 
ATOM     21  F   UNL     1       0.180   4.727  20.732  0.00  0.00    +0.000 F 
ATOM     22  F   UNL     1       1.854   6.101  20.607  0.00  0.00    +0.000 F 
ATOM     23  C   UNL     1       2.320   3.860  21.136  0.00  0.00    +0.000 C 
ATOM     24  C   UNL     1       1.955   2.412  20.821  0.00  0.00    +0.000 C 
ENDBRANCH  16  17
ENDBRANCH   8  16
TORSDOF 5
ENDMDL
MODEL 3
REMARK VINA RESULT:      -7.2      2.801      6.400
REMARK  Name = 
REMARK  6 active torsions:
REMARK  status: ('A' for Active; 'I' for Inactive)
REMARK    1  A    between atoms: C_1  and  C_2
REMARK    2  A    between atoms: C_2  and  C_3
REMARK    3  A    between atoms: C_3  and  O_4
REMARK    4  A    between atoms: O_4  and  C_5
REMARK    5  A    between atoms: N_12  and  C_13
REMARK    6  A    between atoms: C_13  and  C_14
REMARK                            x       y       z     vdW  Elec       q    Type
REMARK                         _______ _______ _______ _____ _____    ______ ____
ROOT
ATOM      1  C   UNL     1       7.473   5.842  16.195  0.00  0.00    +0.000 C 
ATOM      2  C   UNL     1       7.259   7.155  16.960  0.00  0.00    +0.000 C 
ATOM      3  C   UNL     1       5.878   7.339  17.585  0.00  0.00    +0.000 C 
ATOM      4  C   UNL     1       5.576   6.293  18.652  0.00  0.00    +0.000 C 
ATOM      5  N   UNL     1       5.150   5.033  18.051  0.00  0.00    +0.000 N 
ATOM      6  C   UNL     1       3.777   4.834  17.928  0.00  0.00    +0.000 C 
ATOM      7  O   UNL     1       2.952   5.683  18.259  0.00  0.00    +0.000 OA
ATOM      8  N   UNL     1       3.389   3.634  17.384  0.00  0.00    +0.000 N 
ATOM      9  C   UNL     1       6.182   4.077  17.666  0.00  0.00    +0.000 C 
ATOM     10  C   UNL     1       7.506   4.627  17.131  0.00  0.00    +0.000 C 
ATOM     11  H   UNL     1       4.028   2.874  17.562  0.00  0.00    +0.000 HD
ENDROOT
BRANCH   1  12
ATOM     12  O   UNL     1       6.550   5.626  15.126  0.00  0.00    +0.000 OA
BRANCH  12  13
ATOM     13  C   UNL     1       7.023   4.795  14.057  0.00  0.00    +0.000 C 
BRANCH  13  15
ATOM     14  C   UNL     1       6.327   3.278  12.158  0.00  0.00    +0.000 C 
ATOM     15  C   UNL     1       5.951   3.848  13.512  0.00  0.00    +0.000 C 
ENDBRANCH  13  15
ENDBRANCH  12  13
ENDBRANCH   1  12
BRANCH   8  16
ATOM     16  C   UNL     1       1.993   3.249  17.354  0.00  0.00    +0.000 C 
BRANCH  16  17
ATOM     17  C   UNL     1       1.471   2.404  18.536  0.00  0.00    +0.000 C 
ATOM     18  C   UNL     1       0.397   3.105  19.385  0.00  0.00    +0.000 C 
ATOM     19  C   UNL     1       0.946   3.958  20.524  0.00  0.00    +0.000 C 
ATOM     20  C   UNL     1       1.944   3.184  21.365  0.00  0.00    +0.000 C 
ATOM     21  F   UNL     1       1.301   2.164  21.995  0.00  0.00    +0.000 F 
ATOM     22  F   UNL     1       2.433   3.981  22.345  0.00  0.00    +0.000 F 
ATOM     23  C   UNL     1       3.082   2.622  20.542  0.00  0.00    +0.000 C 
ATOM     24  C   UNL     1       2.566   1.754  19.398  0.00  0.00    +0.000 C 
ENDBRANCH  16  17
ENDBRANCH   8  16
TORSDOF 5
ENDMDL
MODEL 4
REMARK VINA RESULT:      -7.2      2.924      6.350
REMARK  Name = 
REMARK  6 active torsions:
REMARK  status: ('A' for Active; 'I' for Inactive)
REMARK    1  A    between atoms: C_1  and  C_2
REMARK    2  A    between atoms: C_2  and  C_3
REMARK    3  A    between atoms: C_3  and  O_4
REMARK    4  A    between atoms: O_4  and  C_5
REMARK    5  A    between atoms: N_12  and  C_13
REMARK    6  A    between atoms: C_13  and  C_14
REMARK                            x       y       z     vdW  Elec       q    Type
REMARK                         _______ _______ _______ _____ _____    ______ ____
ROOT
ATOM      1  C   UNL     1       6.076   5.422  15.047  0.00  0.00    +0.000 C 
ATOM      2  C   UNL     1       5.439   6.784  15.354  0.00  0.00    +0.000 C 
ATOM      3  C   UNL     1       4.700   6.883  16.688  0.00  0.00    +0.000 C 
ATOM      4  C   UNL     1       5.625   6.684  17.883  0.00  0.00    +0.000 C 
ATOM      5  N   UNL     1       5.886   5.268  18.119  0.00  0.00    +0.000 N 
ATOM      6  C   UNL     1       5.072   4.631  19.053  0.00  0.00    +0.000 C 
ATOM      7  O   UNL     1       4.147   5.204  19.624  0.00  0.00    +0.000 OA
ATOM      8  N   UNL     1       5.345   3.305  19.283  0.00  0.00    +0.000 N 
ATOM      9  C   UNL     1       6.989   4.648  17.394  0.00  0.00    +0.000 C 
ATOM     10  C   UNL     1       7.267   5.121  15.965  0.00  0.00    +0.000 C 
ATOM     11  H   UNL     1       6.314   3.053  19.156  0.00  0.00    +0.000 HD
ENDROOT
BRANCH   1  12
ATOM     12  O   UNL     1       5.156   4.328  15.044  0.00  0.00    +0.000 OA
BRANCH  12  13
ATOM     13  C   UNL     1       5.540   3.197  14.250  0.00  0.00    +0.000 C 
BRANCH  13  15
ATOM     14  C   UNL     1       4.833   3.424  11.834  0.00  0.00    +0.000 C 
ATOM     15  C   UNL     1       5.966   3.576  12.831  0.00  0.00    +0.000 C 
ENDBRANCH  13  15
ENDBRANCH  12  13
ENDBRANCH   1  12
BRANCH   8  16
ATOM     16  C   UNL     1       4.674   2.583  20.345  0.00  0.00    +0.000 C 
BRANCH  16  17
ATOM     17  C   UNL     1       3.337   1.897  19.994  0.00  0.00    +0.000 C 
ATOM     18  C   UNL     1       3.160   1.588  18.497  0.00  0.00    +0.000 C 
ATOM     19  C   UNL     1       2.539   2.720  17.685  0.00  0.00    +0.000 C 
ATOM     20  C   UNL     1       1.266   3.233  18.331  0.00  0.00    +0.000 C 
ATOM     21  F   UNL     1       0.325   2.250  18.303  0.00  0.00    +0.000 F 
ATOM     22  F   UNL     1       0.760   4.256  17.601  0.00  0.00    +0.000 F 
ATOM     23  C   UNL     1       1.480   3.677  19.761  0.00  0.00    +0.000 C 
ATOM     24  C   UNL     1       2.092   2.562  20.605  0.00  0.00    +0.000 C 
ENDBRANCH  16  17
ENDBRANCH   8  16
TORSDOF 5
ENDMDL
MODEL 5
REMARK VINA RESULT:      -6.8      0.936      1.208
REMARK  Name = 
REMARK  6 active torsions:
REMARK  status: ('A' for Active; 'I' for Inactive)
REMARK    1  A    between atoms: C_1  and  C_2
REMARK    2  A    between atoms: C_2  and  C_3
REMARK    3  A    between atoms: C_3  and  O_4
REMARK    4  A    between atoms: O_4  and  C_5
REMARK    5  A    between atoms: N_12  and  C_13
REMARK    6  A    between atoms: C_13  and  C_14
REMARK                            x       y       z     vdW  Elec       q    Type
REMARK                         _______ _______ _______ _____ _____    ______ ____
ROOT
ATOM      1  C   UNL     1       2.267   3.967  21.281  0.00  0.00    +0.000 C 
ATOM      2  C   UNL     1       0.851   3.750  20.732  0.00  0.00    +0.000 C 
ATOM      3  C   UNL     1       0.753   3.517  19.226  0.00  0.00    +0.000 C 
ATOM      4  C   UNL     1       1.467   2.245  18.784  0.00  0.00    +0.000 C 
ATOM      5  N   UNL     1       2.906   2.459  18.671  0.00  0.00    +0.000 N 
ATOM      6  C   UNL     1       3.390   2.784  17.406  0.00  0.00    +0.000 C 
ATOM      7  O   UNL     1       2.654   2.934  16.433  0.00  0.00    +0.000 OA
ATOM      8  N   UNL     1       4.749   2.959  17.308  0.00  0.00    +0.000 N 
ATOM      9  C   UNL     1       3.719   2.282  19.869  0.00  0.00    +0.000 C 
ATOM     10  C   UNL     1       3.115   2.691  21.214  0.00  0.00    +0.000 C 
ATOM     11  H   UNL     1       5.285   2.409  17.963  0.00  0.00    +0.000 HD
ENDROOT
BRANCH   1  12
ATOM     12  O   UNL     1       2.966   5.064  20.690  0.00  0.00    +0.000 OA
BRANCH  12  13
ATOM     13  C   UNL     1       2.149   6.023  20.004  0.00  0.00    +0.000 C 
BRANCH  13  15
ATOM     14  C   UNL     1       2.147   7.796  18.202  0.00  0.00    +0.000 C 
ATOM     15  C   UNL     1       2.756   6.492  18.681  0.00  0.00    +0.000 C 
ENDBRANCH  13  15
ENDBRANCH  12  13
ENDBRANCH   1  12
BRANCH   8  16
ATOM     16  C   UNL     1       5.384   3.140  16.019  0.00  0.00    +0.000 C 
BRANCH  16  17
ATOM     17  C   UNL     1       6.496   4.206  15.925  0.00  0.00    +0.000 C 
ATOM     18  C   UNL     1       7.156   4.548  17.272  0.00  0.00    +0.000 C 
ATOM     19  C   UNL     1       6.463   5.659  18.053  0.00  0.00    +0.000 C 
ATOM     20  C   UNL     1       6.230   6.883  17.188  0.00  0.00    +0.000 C 
ATOM     21  F   UNL     1       7.431   7.421  16.842  0.00  0.00    +0.000 F 
ATOM     22  F   UNL     1       5.585   7.836  17.904  0.00  0.00    +0.000 F 
ATOM     23  C   UNL     1       5.447   6.565  15.933  0.00  0.00    +0.000 C 
ATOM     24  C   UNL     1       6.121   5.462  15.122  0.00  0.00    +0.000 C 
ENDBRANCH  16  17
ENDBRANCH   8  16
TORSDOF 5
ENDMDL
MODEL 6
REMARK VINA RESULT:      -6.7      4.859      7.127
REMARK  Name = 
REMARK  6 active torsions:
REMARK  status: ('A' for Active; 'I' for Inactive)
REMARK    1  A    between atoms: C_1  and  C_2
REMARK    2  A    between atoms: C_2  and  C_3
REMARK    3  A    between atoms: C_3  and  O_4
REMARK    4  A    between atoms: O_4  and  C_5
REMARK    5  A    between atoms: N_12  and  C_13
REMARK    6  A    between atoms: C_13  and  C_14
REMARK                            x       y       z     vdW  Elec       q    Type
REMARK                         _______ _______ _______ _____ _____    ______ ____
ROOT
ATOM      1  C   UNL     1      -1.100  11.255  19.051  0.00  0.00    +0.000 C 
ATOM      2  C   UNL     1      -1.287  11.429  20.564  0.00  0.00    +0.000 C 
ATOM      3  C   UNL     1      -0.636  10.360  21.440  0.00  0.00    +0.000 C 
ATOM      4  C   UNL     1       0.882  10.340  21.303  0.00  0.00    +0.000 C 
ATOM      5  N   UNL     1       1.296   9.626  20.100  0.00  0.00    +0.000 N 
ATOM      6  C   UNL     1       1.616   8.279  20.255  0.00  0.00    +0.000 C 
ATOM      7  O   UNL     1       1.516   7.693  21.330  0.00  0.00    +0.000 OA
ATOM      8  N   UNL     1       2.027   7.624  19.119  0.00  0.00    +0.000 N 
ATOM      9  C   UNL     1       1.377  10.378  18.853  0.00  0.00    +0.000 C 
ATOM     10  C   UNL     1       0.352  11.490  18.618  0.00  0.00    +0.000 C 
ATOM     11  H   UNL     1       2.497   8.214  18.449  0.00  0.00    +0.000 HD
ENDROOT
BRANCH   1  12
ATOM     12  O   UNL     1      -1.581  10.011  18.537  0.00  0.00    +0.000 OA
BRANCH  12  13
ATOM     13  C   UNL     1      -2.775  10.087  17.747  0.00  0.00    +0.000 C 
BRANCH  13  15
ATOM     14  C   UNL     1      -3.250  10.837  15.380  0.00  0.00    +0.000 C 
ATOM     15  C   UNL     1      -2.528   9.834  16.258  0.00  0.00    +0.000 C 
ENDBRANCH  13  15
ENDBRANCH  12  13
ENDBRANCH   1  12
BRANCH   8  16
ATOM     16  C   UNL     1       2.538   6.271  19.186  0.00  0.00    +0.000 C 
BRANCH  16  17
ATOM     17  C   UNL     1       1.510   5.124  19.074  0.00  0.00    +0.000 C 
ATOM     18  C   UNL     1       1.515   4.155  20.269  0.00  0.00    +0.000 C 
ATOM     19  C   UNL     1       2.495   2.993  20.138  0.00  0.00    +0.000 C 
ATOM     20  C   UNL     1       2.337   2.282  18.808  0.00  0.00    +0.000 C 
ATOM     21  F   UNL     1       1.113   1.690  18.760  0.00  0.00    +0.000 F 
ATOM     22  F   UNL     1       3.242   1.278  18.714  0.00  0.00    +0.000 F 
ATOM     23  C   UNL     1       2.483   3.219  17.629  0.00  0.00    +0.000 C 
ATOM     24  C   UNL     1       1.508   4.389  17.724  0.00  0.00    +0.000 C 
ENDBRANCH  16  17
ENDBRANCH   8  16
TORSDOF 5
ENDMDL
MODEL 7
REMARK VINA RESULT:      -6.4      4.301      6.099
REMARK  Name = 
REMARK  6 active torsions:
REMARK  status: ('A' for Active; 'I' for Inactive)
REMARK    1  A    between atoms: C_1  and  C_2
REMARK    2  A    between atoms: C_2  and  C_3
REMARK    3  A    between atoms: C_3  and  O_4
REMARK    4  A    between atoms: O_4  and  C_5
REMARK    5  A    between atoms: N_12  and  C_13
REMARK    6  A    between atoms: C_13  and  C_14
REMARK                            x       y       z     vdW  Elec       q    Type
REMARK                         _______ _______ _______ _____ _____    ______ ____
ROOT
ATOM      1  C   UNL     1      -0.888  11.044  18.964  0.00  0.00    +0.000 C 
ATOM      2  C   UNL     1      -1.029  10.890  20.484  0.00  0.00    +0.000 C 
ATOM      3  C   UNL     1      -0.341   9.670  21.093  0.00  0.00    +0.000 C 
ATOM      4  C   UNL     1       1.172   9.704  20.912  0.00  0.00    +0.000 C 
ATOM      5  N   UNL     1       1.554   9.267  19.573  0.00  0.00    +0.000 N 
ATOM      6  C   UNL     1       1.891   7.923  19.429  0.00  0.00    +0.000 C 
ATOM      7  O   UNL     1       1.830   7.121  20.358  0.00  0.00    +0.000 OA
ATOM      8  N   UNL     1       2.272   7.531  18.169  0.00  0.00    +0.000 N 
ATOM      9  C   UNL     1       1.589  10.268  18.513  0.00  0.00    +0.000 C 
ATOM     10  C   UNL     1       0.547  11.388  18.548  0.00  0.00    +0.000 C 
ATOM     11  H   UNL     1       2.716   8.257  17.626  0.00  0.00    +0.000 HD
ENDROOT
BRANCH   1  12
ATOM     12  O   UNL     1      -1.374   9.930  18.211  0.00  0.00    +0.000 OA
BRANCH  12  13
ATOM     13  C   UNL     1      -2.745  10.010  17.799  0.00  0.00    +0.000 C 
BRANCH  13  15
ATOM     14  C   UNL     1      -2.901  10.937  15.452  0.00  0.00    +0.000 C 
ATOM     15  C   UNL     1      -2.946   9.691  16.316  0.00  0.00    +0.000 C 
ENDBRANCH  13  15
ENDBRANCH  12  13
ENDBRANCH   1  12
BRANCH   8  16
ATOM     16  C   UNL     1       2.798   6.202  17.932  0.00  0.00    +0.000 C 
BRANCH  16  17
ATOM     17  C   UNL     1       4.330   6.031  17.985  0.00  0.00    +0.000 C 
ATOM     18  C   UNL     1       5.084   6.742  16.848  0.00  0.00    +0.000 C 
ATOM     19  C   UNL     1       5.256   5.908  15.583  0.00  0.00    +0.000 C 
ATOM     20  C   UNL     1       5.827   4.537  15.896  0.00  0.00    +0.000 C 
ATOM     21  F   UNL     1       7.093   4.680  16.374  0.00  0.00    +0.000 F 
ATOM     22  F   UNL     1       5.937   3.814  14.756  0.00  0.00    +0.000 F 
ATOM     23  C   UNL     1       4.995   3.781  16.908  0.00  0.00    +0.000 C 
ATOM     24  C   UNL     1       4.812   4.585  18.191  0.00  0.00    +0.000 C 
ENDBRANCH  16  17
ENDBRANCH   8  16
TORSDOF 5
ENDMDL
MODEL 8
REMARK VINA RESULT:      -6.4      0.821      1.032
REMARK  Name = 
REMARK  6 active torsions:
REMARK  status: ('A' for Active; 'I' for Inactive)
REMARK    1  A    between atoms: C_1  and  C_2
REMARK    2  A    between atoms: C_2  and  C_3
REMARK    3  A    between atoms: C_3  and  O_4
REMARK    4  A    between atoms: O_4  and  C_5
REMARK    5  A    between atoms: N_12  and  C_13
REMARK    6  A    between atoms: C_13  and  C_14
REMARK                            x       y       z     vdW  Elec       q    Type
REMARK                         _______ _______ _______ _____ _____    ______ ____
ROOT
ATOM      1  C   UNL     1       2.085   3.980  21.177  0.00  0.00    +0.000 C 
ATOM      2  C   UNL     1       0.815   3.202  20.807  0.00  0.00    +0.000 C 
ATOM      3  C   UNL     1       0.664   2.844  19.330  0.00  0.00    +0.000 C 
ATOM      4  C   UNL     1       1.767   1.913  18.840  0.00  0.00    +0.000 C 
ATOM      5  N   UNL     1       2.992   2.650  18.549  0.00  0.00    +0.000 N 
ATOM      6  C   UNL     1       3.183   3.045  17.227  0.00  0.00    +0.000 C 
ATOM      7  O   UNL     1       2.353   2.834  16.346  0.00  0.00    +0.000 OA
ATOM      8  N   UNL     1       4.352   3.717  16.963  0.00  0.00    +0.000 N 
ATOM      9  C   UNL     1       3.926   2.880  19.646  0.00  0.00    +0.000 C 
ATOM     10  C   UNL     1       3.348   3.122  21.042  0.00  0.00    +0.000 C 
ATOM     11  H   UNL     1       5.121   3.460  17.564  0.00  0.00    +0.000 HD
ENDROOT
BRANCH   1  12
ATOM     12  O   UNL     1       2.242   5.216  20.478  0.00  0.00    +0.000 OA
BRANCH  12  13
ATOM     13  C   UNL     1       2.126   6.401  21.279  0.00  0.00    +0.000 C 
BRANCH  13  15
ATOM     14  C   UNL     1       1.214   8.752  21.462  0.00  0.00    +0.000 C 
ATOM     15  C   UNL     1       1.317   7.508  20.600  0.00  0.00    +0.000 C 
ENDBRANCH  13  15
ENDBRANCH  12  13
ENDBRANCH   1  12
BRANCH   8  16
ATOM     16  C   UNL     1       4.735   4.035  15.603  0.00  0.00    +0.000 C 
BRANCH  16  17
ATOM     17  C   UNL     1       5.752   5.178  15.407  0.00  0.00    +0.000 C 
ATOM     18  C   UNL     1       7.204   4.794  15.742  0.00  0.00    +0.000 C 
ATOM     19  C   UNL     1       7.592   4.997  17.204  0.00  0.00    +0.000 C 
ATOM     20  C   UNL     1       7.228   6.388  17.687  0.00  0.00    +0.000 C 
ATOM     21  F   UNL     1       7.976   7.304  17.015  0.00  0.00    +0.000 F 
ATOM     22  F   UNL     1       7.556   6.521  18.994  0.00  0.00    +0.000 F 
ATOM     23  C   UNL     1       5.761   6.704  17.490  0.00  0.00    +0.000 C 
ATOM     24  C   UNL     1       5.342   6.521  16.034  0.00  0.00    +0.000 C 
ENDBRANCH  16  17
ENDBRANCH   8  16
TORSDOF 5
ENDMDL
MODEL 9
REMARK VINA RESULT:      -6.4      4.234      6.862
REMARK  Name = 
REMARK  6 active torsions:
REMARK  status: ('A' for Active; 'I' for Inactive)
REMARK    1  A    between atoms: C_1  and  C_2
REMARK    2  A    between atoms: C_2  and  C_3
REMARK    3  A    between atoms: C_3  and  O_4
REMARK    4  A    between atoms: O_4  and  C_5
REMARK    5  A    between atoms: N_12  and  C_13
REMARK    6  A    between atoms: C_13  and  C_14
REMARK                            x       y       z     vdW  Elec       q    Type
REMARK                         _______ _______ _______ _____ _____    ______ ____
ROOT
ATOM      1  C   UNL     1       4.249   3.282  17.878  0.00  0.00    +0.000 C 
ATOM      2  C   UNL     1       4.713   4.139  16.693  0.00  0.00    +0.000 C 
ATOM      3  C   UNL     1       4.148   5.557  16.639  0.00  0.00    +0.000 C 
ATOM      4  C   UNL     1       4.578   6.401  17.834  0.00  0.00    +0.000 C 
ATOM      5  N   UNL     1       3.764   6.107  19.009  0.00  0.00    +0.000 N 
ATOM      6  C   UNL     1       2.666   6.936  19.229  0.00  0.00    +0.000 C 
ATOM      7  O   UNL     1       2.355   7.842  18.460  0.00  0.00    +0.000 OA
ATOM      8  N   UNL     1       1.923   6.663  20.352  0.00  0.00    +0.000 N 
ATOM      9  C   UNL     1       4.181   5.006  19.870  0.00  0.00    +0.000 C 
ATOM     10  C   UNL     1       4.820   3.782  19.211  0.00  0.00    +0.000 C 
ATOM     11  H   UNL     1       2.452   6.260  21.111  0.00  0.00    +0.000 HD
ENDROOT
BRANCH   1  12
ATOM     12  O   UNL     1       2.832   3.121  17.969  0.00  0.00    +0.000 OA
BRANCH  12  13
ATOM     13  C   UNL     1       2.373   2.259  19.020  0.00  0.00    +0.000 C 
BRANCH  13  15
ATOM     14  C   UNL     1       1.290   2.866  21.222  0.00  0.00    +0.000 C 
ATOM     15  C   UNL     1       1.115   2.780  19.718  0.00  0.00    +0.000 C 
ENDBRANCH  13  15
ENDBRANCH  12  13
ENDBRANCH   1  12
BRANCH   8  16
ATOM     16  C   UNL     1       0.858   7.551  20.771  0.00  0.00    +0.000 C 
BRANCH  16  17
ATOM     17  C   UNL     1       1.258   8.982  21.187  0.00  0.00    +0.000 C 
ATOM     18  C   UNL     1       1.058   9.284  22.682  0.00  0.00    +0.000 C 
ATOM     19  C   UNL     1      -0.329   9.804  23.044  0.00  0.00    +0.000 C 
ATOM     20  C   UNL     1      -0.737  10.963  22.153  0.00  0.00    +0.000 C 
ATOM     21  F   UNL     1       0.086  12.020  22.392  0.00  0.00    +0.000 F 
ATOM     22  F   UNL     1      -1.984  11.378  22.481  0.00  0.00    +0.000 F 
ATOM     23  C   UNL     1      -0.681  10.611  20.683  0.00  0.00    +0.000 C 
ATOM     24  C   UNL     1       0.699  10.096  20.286  0.00  0.00    +0.000 C 
ENDBRANCH  16  17
ENDBRANCH   8  16
TORSDOF 5
ENDMDL
