MODEL 1
REMARK VINA RESULT:      -7.0      0.000      0.000
REMARK  Name = 
REMARK  9 active torsions:
REMARK  status: ('A' for Active; 'I' for Inactive)
REMARK    1  A    between atoms: C_1  and  C_2
REMARK    2  A    between atoms: C_2  and  O_3
REMARK    3  A    between atoms: O_3  and  N_4
REMARK    4  A    between atoms: C_5  and  C_6
REMARK    5  A    between atoms: C_6  and  C_7
REMARK    6  A    between atoms: C_7  and  O_8
REMARK    7  A    between atoms: O_8  and  C_9
REMARK    8  A    between atoms: C_12  and  O_13
REMARK    9  A    between atoms: O_13  and  C_14
REMARK                            x       y       z     vdW  Elec       q    Type
REMARK                         _______ _______ _______ _____ _____    ______ ____
ROOT
ATOM      1  C   UNL     1       5.612   5.583  16.212  0.00  0.00    +0.000 A 
ATOM      2  C   UNL     1       4.825   4.464  16.509  0.00  0.00    +0.000 A 
ATOM      3  C   UNL     1       3.695   4.578  17.311  0.00  0.00    +0.000 A 
ATOM      4  C   UNL     1       3.332   5.811  17.829  0.00  0.00    +0.000 A 
ATOM      5  C   UNL     1       4.082   6.947  17.503  0.00  0.00    +0.000 A 
ATOM      6  C   UNL     1       5.235   6.829  16.717  0.00  0.00    +0.000 A 
ENDROOT
BRANCH   1   7
ATOM      7  O   UNL     1       6.749   5.546  15.435  0.00  0.00    +0.000 OA
BRANCH   7   8
ATOM      8  C   UNL     1       6.846   4.367  14.628  0.00  0.00    +0.000 C 
BRANCH   8   9
ATOM      9  C   UNL     1       7.338   4.680  13.231  0.00  0.00    +0.000 C 
BRANCH   9  11
ATOM     10  N   UNL     1       5.371   3.452  12.445  0.00  0.00    +0.000 NA
ATOM     11  C   UNL     1       6.547   3.919  12.196  0.00  0.00    +0.000 C 
BRANCH  10  12
ATOM     12  O   UNL     1       4.876   2.793  11.308  0.00  0.00    +0.000 OA
BRANCH  12  14
ATOM     13  C   UNL     1       3.299   3.829   9.833  0.00  0.00    +0.000 C 
ATOM     14  C   UNL     1       3.493   3.127  11.162  0.00  0.00    +0.000 C 
ENDBRANCH  12  14
ENDBRANCH  10  12
ENDBRANCH   9  11
ENDBRANCH   8   9
ENDBRANCH   7   8
ENDBRANCH   1   7
BRANCH   4  15
ATOM     15  O   UNL     1       2.191   5.796  18.594  0.00  0.00    +0.000 OA
BRANCH  15  16
ATOM     16  C   UNL     1       1.921   4.734  19.420  0.00  0.00    +0.000 A 
ATOM     17  C   UNL     1       2.450   4.830  20.709  0.00  0.00    +0.000 A 
ATOM     18  C   UNL     1       2.269   3.789  21.617  0.00  0.00    +0.000 A 
ATOM     19  C   UNL     1       1.553   2.655  21.239  0.00  0.00    +0.000 A 
ATOM     20  C   UNL     1       0.983   2.578  19.969  0.00  0.00    +0.000 A 
ATOM     21  C   UNL     1       1.140   3.632  19.071  0.00  0.00    +0.000 A 
ENDBRANCH  15  16
ENDBRANCH   4  15
TORSDOF 8
ENDMDL
MODEL 2
REMARK VINA RESULT:      -7.0      4.451      6.746
REMARK  Name = 
REMARK  9 active torsions:
REMARK  status: ('A' for Active; 'I' for Inactive)
REMARK    1  A    between atoms: C_1  and  C_2
REMARK    2  A    between atoms: C_2  and  O_3
REMARK    3  A    between atoms: O_3  and  N_4
REMARK    4  A    between atoms: C_5  and  C_6
REMARK    5  A    between atoms: C_6  and  C_7
REMARK    6  A    between atoms: C_7  and  O_8
REMARK    7  A    between atoms: O_8  and  C_9
REMARK    8  A    between atoms: C_12  and  O_13
REMARK    9  A    between atoms: O_13  and  C_14
REMARK                            x       y       z     vdW  Elec       q    Type
REMARK                         _______ _______ _______ _____ _____    ______ ____
ROOT
ATOM      1  C   UNL     1       6.361   6.428  17.062  0.00  0.00    +0.000 A 
ATOM      2  C   UNL     1       5.424   5.826  16.213  0.00  0.00    +0.000 A 
ATOM      3  C   UNL     1       4.688   4.723  16.629  0.00  0.00    +0.000 A 
ATOM      4  C   UNL     1       4.875   4.203  17.901  0.00  0.00    +0.000 A 
ATOM      5  C   UNL     1       5.774   4.821  18.777  0.00  0.00    +0.000 A 
ATOM      6  C   UNL     1       6.535   5.916  18.349  0.00  0.00    +0.000 A 
ENDROOT
BRANCH   1   7
ATOM      7  O   UNL     1       7.134   7.514  16.716  0.00  0.00    +0.000 OA
BRANCH   7   8
ATOM      8  C   UNL     1       7.963   7.984  17.786  0.00  0.00    +0.000 C 
BRANCH   8   9
ATOM      9  C   UNL     1       7.967   9.495  17.873  0.00  0.00    +0.000 C 
BRANCH   9  11
ATOM     10  N   UNL     1       9.838  10.941  18.508  0.00  0.00    +0.000 NA
ATOM     11  C   UNL     1       9.038   9.979  18.819  0.00  0.00    +0.000 C 
BRANCH  10  12
ATOM     12  O   UNL     1      10.725  11.177  19.571  0.00  0.00    +0.000 OA
BRANCH  12  14
ATOM     13  C   UNL     1      10.101  13.117  20.829  0.00  0.00    +0.000 C 
ATOM     14  C   UNL     1       9.966  11.613  20.702  0.00  0.00    +0.000 C 
ENDBRANCH  12  14
ENDBRANCH  10  12
ENDBRANCH   9  11
ENDBRANCH   8   9
ENDBRANCH   7   8
ENDBRANCH   1   7
BRANCH   4  15
ATOM     15  O   UNL     1       4.080   3.122  18.198  0.00  0.00    +0.000 OA
BRANCH  15  16
ATOM     16  C   UNL     1       3.120   3.213  19.174  0.00  0.00    +0.000 A 
ATOM     17  C   UNL     1       3.450   2.615  20.393  0.00  0.00    +0.000 A 
ATOM     18  C   UNL     1       2.531   2.613  21.442  0.00  0.00    +0.000 A 
ATOM     19  C   UNL     1       1.286   3.216  21.274  0.00  0.00    +0.000 A 
ATOM     20  C   UNL     1       0.974   3.856  20.075  0.00  0.00    +0.000 A 
ATOM     21  C   UNL     1       1.903   3.882  19.038  0.00  0.00    +0.000 A 
ENDBRANCH  15  16
ENDBRANCH   4  15
TORSDOF 8
ENDMDL
MODEL 3
REMARK VINA RESULT:      -7.0      0.209      1.067
REMARK  Name = 
REMARK  9 active torsions:
REMARK  status: ('A' for Active; 'I' for Inactive)
REMARK    1  A    between atoms: C_1  and  C_2
REMARK    2  A    between atoms: C_2  and  O_3
REMARK    3  A    between atoms: O_3  and  N_4
REMARK    4  A    between atoms: C_5  and  C_6
REMARK    5  A    between atoms: C_6  and  C_7
REMARK    6  A    between atoms: C_7  and  O_8
REMARK    7  A    between atoms: O_8  and  C_9
REMARK    8  A    between atoms: C_12  and  O_13
REMARK    9  A    between atoms: O_13  and  C_14
REMARK                            x       y       z     vdW  Elec       q    Type
REMARK                         _______ _______ _______ _____ _____    ______ ____
ROOT
ATOM      1  C   UNL     1       5.550   5.584  16.096  0.00  0.00    +0.000 A 
ATOM      2  C   UNL     1       4.767   4.462  16.389  0.00  0.00    +0.000 A 
ATOM      3  C   UNL     1       3.660   4.560  17.224  0.00  0.00    +0.000 A 
ATOM      4  C   UNL     1       3.317   5.783  17.780  0.00  0.00    +0.000 A 
ATOM      5  C   UNL     1       4.062   6.923  17.460  0.00  0.00    +0.000 A 
ATOM      6  C   UNL     1       5.193   6.819  16.640  0.00  0.00    +0.000 A 
ENDROOT
BRANCH   1   7
ATOM      7  O   UNL     1       6.665   5.561  15.287  0.00  0.00    +0.000 OA
BRANCH   7   8
ATOM      8  C   UNL     1       6.788   4.354  14.526  0.00  0.00    +0.000 C 
BRANCH   8   9
ATOM      9  C   UNL     1       7.132   4.635  13.078  0.00  0.00    +0.000 C 
BRANCH   9  11
ATOM     10  N   UNL     1       5.129   3.444  12.325  0.00  0.00    +0.000 NA
ATOM     11  C   UNL     1       6.380   3.708  12.155  0.00  0.00    +0.000 C 
BRANCH  10  12
ATOM     12  O   UNL     1       4.696   2.558  11.325  0.00  0.00    +0.000 OA
BRANCH  12  14
ATOM     13  C   UNL     1       3.334   4.072  10.064  0.00  0.00    +0.000 C 
ATOM     14  C   UNL     1       3.341   2.879  10.999  0.00  0.00    +0.000 C 
ENDBRANCH  12  14
ENDBRANCH  10  12
ENDBRANCH   9  11
ENDBRANCH   8   9
ENDBRANCH   7   8
ENDBRANCH   1   7
BRANCH   4  15
ATOM     15  O   UNL     1       2.197   5.754  18.576  0.00  0.00    +0.000 OA
BRANCH  15  16
ATOM     16  C   UNL     1       1.999   4.725  19.461  0.00  0.00    +0.000 A 
ATOM     17  C   UNL     1       1.108   3.736  19.036  0.00  0.00    +0.000 A 
ATOM     18  C   UNL     1       0.803   2.664  19.874  0.00  0.00    +0.000 A 
ATOM     19  C   UNL     1       1.395   2.577  21.132  0.00  0.00    +0.000 A 
ATOM     20  C   UNL     1       2.321   3.536  21.539  0.00  0.00    +0.000 A 
ATOM     21  C   UNL     1       2.647   4.591  20.690  0.00  0.00    +0.000 A 
ENDBRANCH  15  16
ENDBRANCH   4  15
TORSDOF 8
ENDMDL
MODEL 4
REMARK VINA RESULT:      -6.9      1.464      1.793
REMARK  Name = 
REMARK  9 active torsions:
REMARK  status: ('A' for Active; 'I' for Inactive)
REMARK    1  A    between atoms: C_1  and  C_2
REMARK    2  A    between atoms: C_2  and  O_3
REMARK    3  A    between atoms: O_3  and  N_4
REMARK    4  A    between atoms: C_5  and  C_6
REMARK    5  A    between atoms: C_6  and  C_7
REMARK    6  A    between atoms: C_7  and  O_8
REMARK    7  A    between atoms: O_8  and  C_9
REMARK    8  A    between atoms: C_12  and  O_13
REMARK    9  A    between atoms: O_13  and  C_14
REMARK                            x       y       z     vdW  Elec       q    Type
REMARK                         _______ _______ _______ _____ _____    ______ ____
ROOT
ATOM      1  C   UNL     1       6.868   4.851  16.124  0.00  0.00    +0.000 A 
ATOM      2  C   UNL     1       7.419   5.045  17.396  0.00  0.00    +0.000 A 
ATOM      3  C   UNL     1       6.604   5.208  18.511  0.00  0.00    +0.000 A 
ATOM      4  C   UNL     1       5.225   5.178  18.373  0.00  0.00    +0.000 A 
ATOM      5  C   UNL     1       4.659   4.938  17.116  0.00  0.00    +0.000 A 
ATOM      6  C   UNL     1       5.479   4.801  15.988  0.00  0.00    +0.000 A 
ENDROOT
BRANCH   1   7
ATOM      7  O   UNL     1       7.609   4.694  14.974  0.00  0.00    +0.000 OA
BRANCH   7   8
ATOM      8  C   UNL     1       6.838   4.844  13.777  0.00  0.00    +0.000 C 
BRANCH   8   9
ATOM      9  C   UNL     1       6.715   3.539  13.019  0.00  0.00    +0.000 C 
BRANCH   9  11
ATOM     10  N   UNL     1       5.101   2.461  11.526  0.00  0.00    +0.000 NA
ATOM     11  C   UNL     1       5.416   3.478  12.254  0.00  0.00    +0.000 C 
BRANCH  10  12
ATOM     12  O   UNL     1       3.846   2.677  10.934  0.00  0.00    +0.000 OA
BRANCH  12  14
ATOM     13  C   UNL     1       2.820   4.292   9.494  0.00  0.00    +0.000 C 
ATOM     14  C   UNL     1       3.688   4.082  10.718  0.00  0.00    +0.000 C 
ENDBRANCH  12  14
ENDBRANCH  10  12
ENDBRANCH   9  11
ENDBRANCH   8   9
ENDBRANCH   7   8
ENDBRANCH   1   7
BRANCH   4  15
ATOM     15  O   UNL     1       4.530   5.337  19.548  0.00  0.00    +0.000 OA
BRANCH  15  16
ATOM     16  C   UNL     1       3.448   4.542  19.829  0.00  0.00    +0.000 A 
ATOM     17  C   UNL     1       2.230   5.213  19.953  0.00  0.00    +0.000 A 
ATOM     18  C   UNL     1       1.072   4.507  20.277  0.00  0.00    +0.000 A 
ATOM     19  C   UNL     1       1.132   3.127  20.468  0.00  0.00    +0.000 A 
ATOM     20  C   UNL     1       2.338   2.448  20.297  0.00  0.00    +0.000 A 
ATOM     21  C   UNL     1       3.488   3.151  19.946  0.00  0.00    +0.000 A 
ENDBRANCH  15  16
ENDBRANCH   4  15
TORSDOF 8
ENDMDL
MODEL 5
REMARK VINA RESULT:      -6.8      4.208      6.351
REMARK  Name = 
REMARK  9 active torsions:
REMARK  status: ('A' for Active; 'I' for Inactive)
REMARK    1  A    between atoms: C_1  and  C_2
REMARK    2  A    between atoms: C_2  and  O_3
REMARK    3  A    between atoms: O_3  and  N_4
REMARK    4  A    between atoms: C_5  and  C_6
REMARK    5  A    between atoms: C_6  and  C_7
REMARK    6  A    between atoms: C_7  and  O_8
REMARK    7  A    between atoms: O_8  and  C_9
REMARK    8  A    between atoms: C_12  and  O_13
REMARK    9  A    between atoms: O_13  and  C_14
REMARK                            x       y       z     vdW  Elec       q    Type
REMARK                         _______ _______ _______ _____ _____    ______ ____
ROOT
ATOM      1  C   UNL     1       6.568   5.798  16.972  0.00  0.00    +0.000 A 
ATOM      2  C   UNL     1       5.664   5.899  18.037  0.00  0.00    +0.000 A 
ATOM      3  C   UNL     1       4.607   5.006  18.164  0.00  0.00    +0.000 A 
ATOM      4  C   UNL     1       4.435   3.996  17.230  0.00  0.00    +0.000 A 
ATOM      5  C   UNL     1       5.356   3.853  16.187  0.00  0.00    +0.000 A 
ATOM      6  C   UNL     1       6.406   4.769  16.043  0.00  0.00    +0.000 A 
ENDROOT
BRANCH   1   7
ATOM      7  O   UNL     1       7.631   6.651  16.775  0.00  0.00    +0.000 OA
BRANCH   7   8
ATOM      8  C   UNL     1       7.399   7.972  17.279  0.00  0.00    +0.000 C 
BRANCH   8   9
ATOM      9  C   UNL     1       8.421   8.362  18.326  0.00  0.00    +0.000 C 
BRANCH   9  11
ATOM     10  N   UNL     1       9.443  10.420  19.173  0.00  0.00    +0.000 NA
ATOM     11  C   UNL     1       8.643   9.855  18.334  0.00  0.00    +0.000 C 
BRANCH  10  12
ATOM     12  O   UNL     1       9.453  11.806  18.953  0.00  0.00    +0.000 OA
BRANCH  12  14
ATOM     13  C   UNL     1      11.760  11.694  18.322  0.00  0.00    +0.000 C 
ATOM     14  C   UNL     1      10.363  12.085  17.885  0.00  0.00    +0.000 C 
ENDBRANCH  12  14
ENDBRANCH  10  12
ENDBRANCH   9  11
ENDBRANCH   8   9
ENDBRANCH   7   8
ENDBRANCH   1   7
BRANCH   4  15
ATOM     15  O   UNL     1       3.363   3.171  17.472  0.00  0.00    +0.000 OA
BRANCH  15  16
ATOM     16  C   UNL     1       2.698   3.228  18.670  0.00  0.00    +0.000 A 
ATOM     17  C   UNL     1       3.353   2.626  19.747  0.00  0.00    +0.000 A 
ATOM     18  C   UNL     1       2.748   2.592  21.002  0.00  0.00    +0.000 A 
ATOM     19  C   UNL     1       1.492   3.167  21.183  0.00  0.00    +0.000 A 
ATOM     20  C   UNL     1       0.857   3.811  20.122  0.00  0.00    +0.000 A 
ATOM     21  C   UNL     1       1.475   3.870  18.875  0.00  0.00    +0.000 A 
ENDBRANCH  15  16
ENDBRANCH   4  15
TORSDOF 8
ENDMDL
MODEL 6
REMARK VINA RESULT:      -6.8      4.261      6.477
REMARK  Name = 
REMARK  9 active torsions:
REMARK  status: ('A' for Active; 'I' for Inactive)
REMARK    1  A    between atoms: C_1  and  C_2
REMARK    2  A    between atoms: C_2  and  O_3
REMARK    3  A    between atoms: O_3  and  N_4
REMARK    4  A    between atoms: C_5  and  C_6
REMARK    5  A    between atoms: C_6  and  C_7
REMARK    6  A    between atoms: C_7  and  O_8
REMARK    7  A    between atoms: O_8  and  C_9
REMARK    8  A    between atoms: C_12  and  O_13
REMARK    9  A    between atoms: O_13  and  C_14
REMARK                            x       y       z     vdW  Elec       q    Type
REMARK                         _______ _______ _______ _____ _____    ______ ____
ROOT
ATOM      1  C   UNL     1       6.320   6.134  16.797  0.00  0.00    +0.000 A 
ATOM      2  C   UNL     1       5.270   6.370  17.692  0.00  0.00    +0.000 A 
ATOM      3  C   UNL     1       4.243   5.447  17.850  0.00  0.00    +0.000 A 
ATOM      4  C   UNL     1       4.248   4.270  17.116  0.00  0.00    +0.000 A 
ATOM      5  C   UNL     1       5.315   3.997  16.253  0.00  0.00    +0.000 A 
ATOM      6  C   UNL     1       6.336   4.940  16.073  0.00  0.00    +0.000 A 
ENDROOT
BRANCH   1   7
ATOM      7  O   UNL     1       7.363   7.005  16.579  0.00  0.00    +0.000 OA
BRANCH   7   8
ATOM      8  C   UNL     1       7.880   7.583  17.784  0.00  0.00    +0.000 C 
BRANCH   8   9
ATOM      9  C   UNL     1       7.739   9.090  17.790  0.00  0.00    +0.000 C 
BRANCH   9  11
ATOM     10  N   UNL     1       9.048  10.450  19.350  0.00  0.00    +0.000 NA
ATOM     11  C   UNL     1       9.009   9.750  18.268  0.00  0.00    +0.000 C 
BRANCH  10  12
ATOM     12  O   UNL     1      10.349  10.940  19.547  0.00  0.00    +0.000 OA
BRANCH  12  14
ATOM     13  C   UNL     1      12.034  12.381  18.642  0.00  0.00    +0.000 C 
ATOM     14  C   UNL     1      10.762  11.610  18.353  0.00  0.00    +0.000 C 
ENDBRANCH  12  14
ENDBRANCH  10  12
ENDBRANCH   9  11
ENDBRANCH   8   9
ENDBRANCH   7   8
ENDBRANCH   1   7
BRANCH   4  15
ATOM     15  O   UNL     1       3.188   3.434  17.371  0.00  0.00    +0.000 OA
BRANCH  15  16
ATOM     16  C   UNL     1       2.707   3.289  18.647  0.00  0.00    +0.000 A 
ATOM     17  C   UNL     1       1.426   3.802  18.864  0.00  0.00    +0.000 A 
ATOM     18  C   UNL     1       0.856   3.745  20.135  0.00  0.00    +0.000 A 
ATOM     19  C   UNL     1       1.564   3.166  21.187  0.00  0.00    +0.000 A 
ATOM     20  C   UNL     1       2.822   2.610  20.962  0.00  0.00    +0.000 A 
ATOM     21  C   UNL     1       3.379   2.642  19.685  0.00  0.00    +0.000 A 
ENDBRANCH  15  16
ENDBRANCH   4  15
TORSDOF 8
ENDMDL
MODEL 7
REMARK VINA RESULT:      -6.8      4.871      6.952
REMARK  Name = 
REMARK  9 active torsions:
REMARK  status: ('A' for Active; 'I' for Inactive)
REMARK    1  A    between atoms: C_1  and  C_2
REMARK    2  A    between atoms: C_2  and  O_3
REMARK    3  A    between atoms: O_3  and  N_4
REMARK    4  A    between atoms: C_5  and  C_6
REMARK    5  A    between atoms: C_6  and  C_7
REMARK    6  A    between atoms: C_7  and  O_8
REMARK    7  A    between atoms: O_8  and  C_9
REMARK    8  A    between atoms: C_12  and  O_13
REMARK    9  A    between atoms: O_13  and  C_14
REMARK                            x       y       z     vdW  Elec       q    Type
REMARK                         _______ _______ _______ _____ _____    ______ ____
ROOT
ATOM      1  C   UNL     1       7.250   6.589  18.031  0.00  0.00    +0.000 A 
ATOM      2  C   UNL     1       7.059   5.284  18.499  0.00  0.00    +0.000 A 
ATOM      3  C   UNL     1       5.989   4.514  18.055  0.00  0.00    +0.000 A 
ATOM      4  C   UNL     1       5.093   5.037  17.135  0.00  0.00    +0.000 A 
ATOM      5  C   UNL     1       5.296   6.323  16.623  0.00  0.00    +0.000 A 
ATOM      6  C   UNL     1       6.358   7.108  17.090  0.00  0.00    +0.000 A 
ENDROOT
BRANCH   1   7
ATOM      7  O   UNL     1       8.277   7.413  18.432  0.00  0.00    +0.000 OA
BRANCH   7   8
ATOM      8  C   UNL     1       8.142   8.759  17.961  0.00  0.00    +0.000 C 
BRANCH   8   9
ATOM      9  C   UNL     1       8.939   9.733  18.803  0.00  0.00    +0.000 C 
BRANCH   9  11
ATOM     10  N   UNL     1       9.296  12.120  18.393  0.00  0.00    +0.000 NA
ATOM     11  C   UNL     1       9.407  10.905  17.976  0.00  0.00    +0.000 C 
BRANCH  10  12
ATOM     12  O   UNL     1       9.809  12.998  17.425  0.00  0.00    +0.000 OA
BRANCH  12  14
ATOM     13  C   UNL     1      12.180  13.299  17.578  0.00  0.00    +0.000 C 
ATOM     14  C   UNL     1      10.824  13.798  18.037  0.00  0.00    +0.000 C 
ENDBRANCH  12  14
ENDBRANCH  10  12
ENDBRANCH   9  11
ENDBRANCH   8   9
ENDBRANCH   7   8
ENDBRANCH   1   7
BRANCH   4  15
ATOM     15  O   UNL     1       4.088   4.176  16.765  0.00  0.00    +0.000 OA
BRANCH  15  16
ATOM     16  C   UNL     1       3.098   3.838  17.654  0.00  0.00    +0.000 A 
ATOM     17  C   UNL     1       2.812   2.474  17.739  0.00  0.00    +0.000 A 
ATOM     18  C   UNL     1       1.797   2.024  18.582  0.00  0.00    +0.000 A 
ATOM     19  C   UNL     1       1.074   2.938  19.346  0.00  0.00    +0.000 A 
ATOM     20  C   UNL     1       1.390   4.295  19.299  0.00  0.00    +0.000 A 
ATOM     21  C   UNL     1       2.424   4.740  18.478  0.00  0.00    +0.000 A 
ENDBRANCH  15  16
ENDBRANCH   4  15
TORSDOF 8
ENDMDL
MODEL 8
REMARK VINA RESULT:      -6.7      4.250      6.495
REMARK  Name = 
REMARK  9 active torsions:
REMARK  status: ('A' for Active; 'I' for Inactive)
REMARK    1  A    between atoms: C_1  and  C_2
REMARK    2  A    between atoms: C_2  and  O_3
REMARK    3  A    between atoms: O_3  and  N_4
REMARK    4  A    between atoms: C_5  and  C_6
REMARK    5  A    between atoms: C_6  and  C_7
REMARK    6  A    between atoms: C_7  and  O_8
REMARK    7  A    between atoms: O_8  and  C_9
REMARK    8  A    between atoms: C_12  and  O_13
REMARK    9  A    between atoms: O_13  and  C_14
REMARK                            x       y       z     vdW  Elec       q    Type
REMARK                         _______ _______ _______ _____ _____    ______ ____
ROOT
ATOM      1  C   UNL     1       6.145   6.451  17.053  0.00  0.00    +0.000 A 
ATOM      2  C   UNL     1       5.892   5.083  17.207  0.00  0.00    +0.000 A 
ATOM      3  C   UNL     1       4.607   4.618  17.460  0.00  0.00    +0.000 A 
ATOM      4  C   UNL     1       3.553   5.512  17.565  0.00  0.00    +0.000 A 
ATOM      5  C   UNL     1       3.781   6.878  17.368  0.00  0.00    +0.000 A 
ATOM      6  C   UNL     1       5.080   7.350  17.139  0.00  0.00    +0.000 A 
ENDROOT
BRANCH   1   7
ATOM      7  O   UNL     1       7.391   6.986  16.811  0.00  0.00    +0.000 OA
BRANCH   7   8
ATOM      8  C   UNL     1       7.986   7.585  17.969  0.00  0.00    +0.000 C 
BRANCH   8   9
ATOM      9  C   UNL     1       8.114   9.086  17.822  0.00  0.00    +0.000 C 
BRANCH   9  11
ATOM     10  N   UNL     1       9.528  10.807  18.839  0.00  0.00    +0.000 NA
ATOM     11  C   UNL     1       8.927   9.671  18.950  0.00  0.00    +0.000 C 
BRANCH  10  12
ATOM     12  O   UNL     1      10.203  11.101  20.034  0.00  0.00    +0.000 OA
BRANCH  12  14
ATOM     13  C   UNL     1      11.698  11.745  18.278  0.00  0.00    +0.000 C 
ATOM     14  C   UNL     1      11.309  11.955  19.727  0.00  0.00    +0.000 C 
ENDBRANCH  12  14
ENDBRANCH  10  12
ENDBRANCH   9  11
ENDBRANCH   8   9
ENDBRANCH   7   8
ENDBRANCH   1   7
BRANCH   4  15
ATOM     15  O   UNL     1       2.331   4.930  17.804  0.00  0.00    +0.000 OA
BRANCH  15  16
ATOM     16  C   UNL     1       2.098   4.261  18.979  0.00  0.00    +0.000 A 
ATOM     17  C   UNL     1       1.539   2.988  18.841  0.00  0.00    +0.000 A 
ATOM     18  C   UNL     1       1.223   2.237  19.972  0.00  0.00    +0.000 A 
ATOM     19  C   UNL     1       1.475   2.755  21.241  0.00  0.00    +0.000 A 
ATOM     20  C   UNL     1       2.078   4.004  21.381  0.00  0.00    +0.000 A 
ATOM     21  C   UNL     1       2.419   4.742  20.249  0.00  0.00    +0.000 A 
ENDBRANCH  15  16
ENDBRANCH   4  15
TORSDOF 8
ENDMDL
MODEL 9
REMARK VINA RESULT:      -6.7      4.773      6.840
REMARK  Name = 
REMARK  9 active torsions:
REMARK  status: ('A' for Active; 'I' for Inactive)
REMARK    1  A    between atoms: C_1  and  C_2
REMARK    2  A    between atoms: C_2  and  O_3
REMARK    3  A    between atoms: O_3  and  N_4
REMARK    4  A    between atoms: C_5  and  C_6
REMARK    5  A    between atoms: C_6  and  C_7
REMARK    6  A    between atoms: C_7  and  O_8
REMARK    7  A    between atoms: O_8  and  C_9
REMARK    8  A    between atoms: C_12  and  O_13
REMARK    9  A    between atoms: O_13  and  C_14
REMARK                            x       y       z     vdW  Elec       q    Type
REMARK                         _______ _______ _______ _____ _____    ______ ____
ROOT
ATOM      1  C   UNL     1       6.664   6.861  17.361  0.00  0.00    +0.000 A 
ATOM      2  C   UNL     1       7.302   5.772  17.968  0.00  0.00    +0.000 A 
ATOM      3  C   UNL     1       6.582   4.648  18.357  0.00  0.00    +0.000 A 
ATOM      4  C   UNL     1       5.213   4.592  18.146  0.00  0.00    +0.000 A 
ATOM      5  C   UNL     1       4.569   5.652  17.498  0.00  0.00    +0.000 A 
ATOM      6  C   UNL     1       5.288   6.796  17.130  0.00  0.00    +0.000 A 
ENDROOT
BRANCH   1   7
ATOM      7  O   UNL     1       7.307   8.010  16.959  0.00  0.00    +0.000 OA
BRANCH   7   8
ATOM      8  C   UNL     1       8.207   8.530  17.945  0.00  0.00    +0.000 C 
BRANCH   8   9
ATOM      9  C   UNL     1       8.143  10.041  18.024  0.00  0.00    +0.000 C 
BRANCH   9  11
ATOM     10  N   UNL     1       9.841  11.804  18.076  0.00  0.00    +0.000 NA
ATOM     11  C   UNL     1       9.478  10.617  18.427  0.00  0.00    +0.000 C 
BRANCH  10  12
ATOM     12  O   UNL     1      11.120  12.075  18.588  0.00  0.00    +0.000 OA
BRANCH  12  14
ATOM     13  C   UNL     1      11.426  13.386  16.608  0.00  0.00    +0.000 C 
ATOM     14  C   UNL     1      11.528  13.363  18.119  0.00  0.00    +0.000 C 
ENDBRANCH  12  14
ENDBRANCH  10  12
ENDBRANCH   9  11
ENDBRANCH   8   9
ENDBRANCH   7   8
ENDBRANCH   1   7
BRANCH   4  15
ATOM     15  O   UNL     1       4.618   3.425  18.561  0.00  0.00    +0.000 OA
BRANCH  15  16
ATOM     16  C   UNL     1       3.340   3.435  19.059  0.00  0.00    +0.000 A 
ATOM     17  C   UNL     1       2.396   2.747  18.295  0.00  0.00    +0.000 A 
ATOM     18  C   UNL     1       1.059   2.726  18.688  0.00  0.00    +0.000 A 
ATOM     19  C   UNL     1       0.668   3.388  19.851  0.00  0.00    +0.000 A 
ATOM     20  C   UNL     1       1.617   4.034  20.642  0.00  0.00    +0.000 A 
ATOM     21  C   UNL     1       2.957   4.030  20.263  0.00  0.00    +0.000 A 
ENDBRANCH  15  16
ENDBRANCH   4  15
TORSDOF 8
ENDMDL
