MODEL 1
REMARK VINA RESULT:      -8.3      0.000      0.000
REMARK  Name = 
REMARK  2 active torsions:
REMARK  status: ('A' for Active; 'I' for Inactive)
REMARK    1  A    between atoms: C_2  and  C_12
REMARK    2  A    between atoms: N_3  and  C_4
REMARK                            x       y       z     vdW  Elec       q    Type
REMARK                         _______ _______ _______ _____ _____    ______ ____
ROOT
ATOM      1  C   UNL     1       2.102   8.218  18.656  0.00  0.00    +0.000 A 
ATOM      2  C   UNL     1       2.305   9.246  17.736  0.00  0.00    +0.000 A 
ATOM      3  C   UNL     1       1.738  10.495  17.964  0.00  0.00    +0.000 A 
ATOM      4  C   UNL     1       0.971  10.746  19.129  0.00  0.00    +0.000 A 
ATOM      5  C   UNL     1       0.384  11.991  19.456  0.00  0.00    +0.000 A 
ATOM      6 CL   UNL     1       0.602  13.355  18.392  0.00  0.00    +0.000 Cl
ATOM      7  C   UNL     1      -0.354  12.160  20.636  0.00  0.00    +0.000 A 
ATOM      8  C   UNL     1      -0.446  11.058  21.484  0.00  0.00    +0.000 A 
ATOM      9  N   UNL     1       0.092   9.851  21.186  0.00  0.00    +0.000 NA
ATOM     10  C   UNL     1       0.781   9.698  20.049  0.00  0.00    +0.000 A 
ATOM     11  C   UNL     1       1.340   8.451  19.801  0.00  0.00    +0.000 A 
ATOM     12  C   UNL     1      -1.193  11.118  22.792  0.00  0.00    +0.000 C 
ATOM     13  C   UNL     1      -1.434  12.541  23.286  0.00  0.00    +0.000 C 
ATOM     14  C   UNL     1      -1.983  13.391  22.152  0.00  0.00    +0.000 C 
ATOM     15  C   UNL     1      -0.961  13.488  21.021  0.00  0.00    +0.000 C 
ENDROOT
BRANCH   1  17
ATOM     16  O   UNL     1       3.895   6.973  17.881  0.00  0.00    +0.000 OA
ATOM     17  C   UNL     1       2.793   6.928  18.418  0.00  0.00    +0.000 C 
ATOM     18  N   UNL     1       2.094   5.786  18.770  0.00  0.00    +0.000 N 
ATOM     19  H   UNL     1       1.117   5.893  19.014  0.00  0.00    +0.000 HD
BRANCH  18  20
ATOM     20  C   UNL     1       2.568   4.463  18.617  0.00  0.00    +0.000 A 
ATOM     21  C   UNL     1       2.274   3.673  17.498  0.00  0.00    +0.000 A 
ATOM     22  C   UNL     1       2.721   2.352  17.416  0.00  0.00    +0.000 A 
ATOM     23  C   UNL     1       3.470   1.816  18.453  0.00  0.00    +0.000 A 
ATOM     24  F   UNL     1       3.871   0.540  18.367  0.00  0.00    +0.000 F 
ATOM     25  C   UNL     1       3.795   2.595  19.561  0.00  0.00    +0.000 A 
ATOM     26 CL   UNL     1       4.716   1.930  20.856  0.00  0.00    +0.000 Cl
ATOM     27  C   UNL     1       3.358   3.923  19.639  0.00  0.00    +0.000 A 
ENDBRANCH  18  20
ENDBRANCH   1  17
TORSDOF 2
ENDMDL
MODEL 2
REMARK VINA RESULT:      -8.2      4.123      9.112
REMARK  Name = 
REMARK  2 active torsions:
REMARK  status: ('A' for Active; 'I' for Inactive)
REMARK    1  A    between atoms: C_2  and  C_12
REMARK    2  A    between atoms: N_3  and  C_4
REMARK                            x       y       z     vdW  Elec       q    Type
REMARK                         _______ _______ _______ _____ _____    ______ ____
ROOT
ATOM      1  C   UNL     1       1.087   9.431  19.697  0.00  0.00    +0.000 A 
ATOM      2  C   UNL     1       1.773   9.487  18.485  0.00  0.00    +0.000 A 
ATOM      3  C   UNL     1       2.504   8.384  18.056  0.00  0.00    +0.000 A 
ATOM      4  C   UNL     1       2.547   7.195  18.825  0.00  0.00    +0.000 A 
ATOM      5  C   UNL     1       3.238   6.017  18.452  0.00  0.00    +0.000 A 
ATOM      6 CL   UNL     1       4.102   5.966  16.938  0.00  0.00    +0.000 Cl
ATOM      7  C   UNL     1       3.224   4.876  19.267  0.00  0.00    +0.000 A 
ATOM      8  C   UNL     1       2.466   4.946  20.435  0.00  0.00    +0.000 A 
ATOM      9  N   UNL     1       1.810   6.066  20.822  0.00  0.00    +0.000 NA
ATOM     10  C   UNL     1       1.844   7.154  20.044  0.00  0.00    +0.000 A 
ATOM     11  C   UNL     1       1.132   8.268  20.467  0.00  0.00    +0.000 A 
ATOM     12  C   UNL     1       2.354   3.780  21.383  0.00  0.00    +0.000 C 
ATOM     13  C   UNL     1       2.747   2.448  20.753  0.00  0.00    +0.000 C 
ATOM     14  C   UNL     1       4.069   2.599  20.018  0.00  0.00    +0.000 C 
ATOM     15  C   UNL     1       3.926   3.599  18.873  0.00  0.00    +0.000 C 
ENDROOT
BRANCH   1  17
ATOM     16  O   UNL     1      -0.312  11.200  19.171  0.00  0.00    +0.000 OA
ATOM     17  C   UNL     1       0.252  10.596  20.077  0.00  0.00    +0.000 C 
ATOM     18  N   UNL     1       0.242  10.929  21.421  0.00  0.00    +0.000 N 
ATOM     19  H   UNL     1       0.913  10.466  22.022  0.00  0.00    +0.000 HD
BRANCH  18  20
ATOM     20  C   UNL     1      -0.479  12.006  21.986  0.00  0.00    +0.000 A 
ATOM     21  C   UNL     1      -0.049  13.337  21.903  0.00  0.00    +0.000 A 
ATOM     22  C   UNL     1      -0.767  14.362  22.523  0.00  0.00    +0.000 A 
ATOM     23  C   UNL     1      -1.924  14.060  23.227  0.00  0.00    +0.000 A 
ATOM     24  F   UNL     1      -2.587  15.053  23.835  0.00  0.00    +0.000 F 
ATOM     25  C   UNL     1      -2.380  12.746  23.297  0.00  0.00    +0.000 A 
ATOM     26 CL   UNL     1      -3.810  12.365  24.178  0.00  0.00    +0.000 Cl
ATOM     27  C   UNL     1      -1.668  11.720  22.666  0.00  0.00    +0.000 A 
ENDBRANCH  18  20
ENDBRANCH   1  17
TORSDOF 2
ENDMDL
MODEL 3
REMARK VINA RESULT:      -8.1      3.968      8.992
REMARK  Name = 
REMARK  2 active torsions:
REMARK  status: ('A' for Active; 'I' for Inactive)
REMARK    1  A    between atoms: C_2  and  C_12
REMARK    2  A    between atoms: N_3  and  C_4
REMARK                            x       y       z     vdW  Elec       q    Type
REMARK                         _______ _______ _______ _____ _____    ______ ____
ROOT
ATOM      1  C   UNL     1       1.381   9.472  19.269  0.00  0.00    +0.000 A 
ATOM      2  C   UNL     1       2.098   9.373  18.077  0.00  0.00    +0.000 A 
ATOM      3  C   UNL     1       2.756   8.187  17.767  0.00  0.00    +0.000 A 
ATOM      4  C   UNL     1       2.693   7.070  18.636  0.00  0.00    +0.000 A 
ATOM      5  C   UNL     1       3.304   5.818  18.386  0.00  0.00    +0.000 A 
ATOM      6 CL   UNL     1       4.198   5.572  16.910  0.00  0.00    +0.000 Cl
ATOM      7  C   UNL     1       3.186   4.757  19.296  0.00  0.00    +0.000 A 
ATOM      8  C   UNL     1       2.408   4.983  20.429  0.00  0.00    +0.000 A 
ATOM      9  N   UNL     1       1.827   6.176  20.699  0.00  0.00    +0.000 NA
ATOM     10  C   UNL     1       1.960   7.186  19.832  0.00  0.00    +0.000 A 
ATOM     11  C   UNL     1       1.322   8.381  20.136  0.00  0.00    +0.000 A 
ATOM     12  C   UNL     1       2.187   3.915  21.470  0.00  0.00    +0.000 C 
ATOM     13  C   UNL     1       2.495   2.508  20.969  0.00  0.00    +0.000 C 
ATOM     14  C   UNL     1       3.843   2.499  20.264  0.00  0.00    +0.000 C 
ATOM     15  C   UNL     1       3.802   3.403  19.034  0.00  0.00    +0.000 C 
ENDROOT
BRANCH   1  17
ATOM     16  O   UNL     1       0.977  11.724  18.906  0.00  0.00    +0.000 OA
ATOM     17  C   UNL     1       0.626  10.723  19.522  0.00  0.00    +0.000 C 
ATOM     18  N   UNL     1      -0.368  10.653  20.483  0.00  0.00    +0.000 N 
ATOM     19  H   UNL     1      -0.410   9.816  21.052  0.00  0.00    +0.000 HD
BRANCH  18  20
ATOM     20  C   UNL     1      -1.193  11.731  20.878  0.00  0.00    +0.000 A 
ATOM     21  C   UNL     1      -2.271  12.188  20.108  0.00  0.00    +0.000 A 
ATOM     22  C   UNL     1      -3.025  13.291  20.515  0.00  0.00    +0.000 A 
ATOM     23  C   UNL     1      -2.708  13.940  21.699  0.00  0.00    +0.000 A 
ATOM     24  F   UNL     1      -3.429  15.010  22.062  0.00  0.00    +0.000 F 
ATOM     25  C   UNL     1      -1.657  13.482  22.491  0.00  0.00    +0.000 A 
ATOM     26 CL   UNL     1      -1.253  14.291  23.957  0.00  0.00    +0.000 Cl
ATOM     27  C   UNL     1      -0.908  12.370  22.091  0.00  0.00    +0.000 A 
ENDBRANCH  18  20
ENDBRANCH   1  17
TORSDOF 2
ENDMDL
MODEL 4
REMARK VINA RESULT:      -8.1      2.748      2.980
REMARK  Name = 
REMARK  2 active torsions:
REMARK  status: ('A' for Active; 'I' for Inactive)
REMARK    1  A    between atoms: C_2  and  C_12
REMARK    2  A    between atoms: N_3  and  C_4
REMARK                            x       y       z     vdW  Elec       q    Type
REMARK                         _______ _______ _______ _____ _____    ______ ____
ROOT
ATOM      1  C   UNL     1       1.878   8.171  18.937  0.00  0.00    +0.000 A 
ATOM      2  C   UNL     1       1.501   8.868  17.790  0.00  0.00    +0.000 A 
ATOM      3  C   UNL     1       0.593   9.917  17.888  0.00  0.00    +0.000 A 
ATOM      4  C   UNL     1       0.057  10.301  19.142  0.00  0.00    +0.000 A 
ATOM      5  C   UNL     1      -0.846  11.372  19.340  0.00  0.00    +0.000 A 
ATOM      6 CL   UNL     1      -1.358  12.332  17.978  0.00  0.00    +0.000 Cl
ATOM      7  C   UNL     1      -1.323  11.695  20.619  0.00  0.00    +0.000 A 
ATOM      8  C   UNL     1      -0.835  10.939  21.682  0.00  0.00    +0.000 A 
ATOM      9  N   UNL     1       0.017   9.898  21.518  0.00  0.00    +0.000 NA
ATOM     10  C   UNL     1       0.453   9.590  20.291  0.00  0.00    +0.000 A 
ATOM     11  C   UNL     1       1.348   8.535  20.175  0.00  0.00    +0.000 A 
ATOM     12  C   UNL     1      -1.255  11.201  23.106  0.00  0.00    +0.000 C 
ATOM     13  C   UNL     1      -1.870  12.582  23.311  0.00  0.00    +0.000 C 
ATOM     14  C   UNL     1      -2.915  12.842  22.237  0.00  0.00    +0.000 C 
ATOM     15  C   UNL     1      -2.262  12.854  20.856  0.00  0.00    +0.000 C 
ENDROOT
BRANCH   1  17
ATOM     16  O   UNL     1       2.893   6.205  19.621  0.00  0.00    +0.000 OA
ATOM     17  C   UNL     1       2.911   7.116  18.800  0.00  0.00    +0.000 C 
ATOM     18  N   UNL     1       3.841   7.299  17.792  0.00  0.00    +0.000 N 
ATOM     19  H   UNL     1       3.854   8.197  17.324  0.00  0.00    +0.000 HD
BRANCH  18  20
ATOM     20  C   UNL     1       4.909   6.418  17.502  0.00  0.00    +0.000 A 
ATOM     21  C   UNL     1       5.999   6.233  18.363  0.00  0.00    +0.000 A 
ATOM     22  C   UNL     1       7.057   5.391  18.009  0.00  0.00    +0.000 A 
ATOM     23  C   UNL     1       7.026   4.727  16.792  0.00  0.00    +0.000 A 
ATOM     24  F   UNL     1       8.061   3.942  16.459  0.00  0.00    +0.000 F 
ATOM     25  C   UNL     1       5.938   4.879  15.936  0.00  0.00    +0.000 A 
ATOM     26 CL   UNL     1       5.901   4.063  14.419  0.00  0.00    +0.000 Cl
ATOM     27  C   UNL     1       4.872   5.711  16.294  0.00  0.00    +0.000 A 
ENDBRANCH  18  20
ENDBRANCH   1  17
TORSDOF 2
ENDMDL
MODEL 5
REMARK VINA RESULT:      -8.0      4.523      9.427
REMARK  Name = 
REMARK  2 active torsions:
REMARK  status: ('A' for Active; 'I' for Inactive)
REMARK    1  A    between atoms: C_2  and  C_12
REMARK    2  A    between atoms: N_3  and  C_4
REMARK                            x       y       z     vdW  Elec       q    Type
REMARK                         _______ _______ _______ _____ _____    ______ ____
ROOT
ATOM      1  C   UNL     1       0.642   9.573  21.491  0.00  0.00    +0.000 A 
ATOM      2  C   UNL     1       1.038  10.176  20.299  0.00  0.00    +0.000 A 
ATOM      3  C   UNL     1       1.644   9.411  19.308  0.00  0.00    +0.000 A 
ATOM      4  C   UNL     1       1.849   8.020  19.485  0.00  0.00    +0.000 A 
ATOM      5  C   UNL     1       2.428   7.160  18.522  0.00  0.00    +0.000 A 
ATOM      6 CL   UNL     1       2.929   7.803  16.981  0.00  0.00    +0.000 Cl
ATOM      7  C   UNL     1       2.587   5.789  18.773  0.00  0.00    +0.000 A 
ATOM      8  C   UNL     1       2.112   5.313  19.993  0.00  0.00    +0.000 A 
ATOM      9  N   UNL     1       1.570   6.118  20.938  0.00  0.00    +0.000 NA
ATOM     10  C   UNL     1       1.438   7.427  20.694  0.00  0.00    +0.000 A 
ATOM     11  C   UNL     1       0.848   8.207  21.680  0.00  0.00    +0.000 A 
ATOM     12  C   UNL     1       2.205   3.857  20.371  0.00  0.00    +0.000 C 
ATOM     13  C   UNL     1       2.435   2.935  19.178  0.00  0.00    +0.000 C 
ATOM     14  C   UNL     1       3.560   3.485  18.315  0.00  0.00    +0.000 C 
ATOM     15  C   UNL     1       3.172   4.849  17.746  0.00  0.00    +0.000 C 
ENDROOT
BRANCH   1  17
ATOM     16  O   UNL     1      -0.076  10.016  23.648  0.00  0.00    +0.000 OA
ATOM     17  C   UNL     1      -0.076  10.407  22.486  0.00  0.00    +0.000 C 
ATOM     18  N   UNL     1      -0.735  11.519  21.990  0.00  0.00    +0.000 N 
ATOM     19  H   UNL     1      -0.817  11.604  20.984  0.00  0.00    +0.000 HD
BRANCH  18  20
ATOM     20  C   UNL     1      -1.483  12.434  22.766  0.00  0.00    +0.000 A 
ATOM     21  C   UNL     1      -1.014  13.711  23.099  0.00  0.00    +0.000 A 
ATOM     22  C   UNL     1      -1.766  14.561  23.913  0.00  0.00    +0.000 A 
ATOM     23  C   UNL     1      -2.996  14.137  24.395  0.00  0.00    +0.000 A 
ATOM     24  F   UNL     1      -3.694  14.958  25.194  0.00  0.00    +0.000 F 
ATOM     25  C   UNL     1      -3.490  12.881  24.052  0.00  0.00    +0.000 A 
ATOM     26 CL   UNL     1      -5.012  12.347  24.656  0.00  0.00    +0.000 Cl
ATOM     27  C   UNL     1      -2.743  12.034  23.226  0.00  0.00    +0.000 A 
ENDBRANCH  18  20
ENDBRANCH   1  17
TORSDOF 2
ENDMDL
MODEL 6
REMARK VINA RESULT:      -8.0      3.815      9.324
REMARK  Name = 
REMARK  2 active torsions:
REMARK  status: ('A' for Active; 'I' for Inactive)
REMARK    1  A    between atoms: C_2  and  C_12
REMARK    2  A    between atoms: N_3  and  C_4
REMARK                            x       y       z     vdW  Elec       q    Type
REMARK                         _______ _______ _______ _____ _____    ______ ____
ROOT
ATOM      1  C   UNL     1       1.713   7.548  20.409  0.00  0.00    +0.000 A 
ATOM      2  C   UNL     1       1.474   6.243  20.839  0.00  0.00    +0.000 A 
ATOM      3  C   UNL     1       2.015   5.175  20.131  0.00  0.00    +0.000 A 
ATOM      4  C   UNL     1       2.823   5.394  18.988  0.00  0.00    +0.000 A 
ATOM      5  C   UNL     1       3.439   4.372  18.227  0.00  0.00    +0.000 A 
ATOM      6 CL   UNL     1       3.234   2.705  18.695  0.00  0.00    +0.000 Cl
ATOM      7  C   UNL     1       4.233   4.673  17.110  0.00  0.00    +0.000 A 
ATOM      8  C   UNL     1       4.418   6.022  16.816  0.00  0.00    +0.000 A 
ATOM      9  N   UNL     1       3.826   7.019  17.518  0.00  0.00    +0.000 NA
ATOM     10  C   UNL     1       3.058   6.718  18.571  0.00  0.00    +0.000 A 
ATOM     11  C   UNL     1       2.498   7.774  19.278  0.00  0.00    +0.000 A 
ATOM     12  C   UNL     1       5.266   6.476  15.655  0.00  0.00    +0.000 C 
ATOM     13  C   UNL     1       6.218   5.399  15.145  0.00  0.00    +0.000 C 
ATOM     14  C   UNL     1       5.462   4.092  14.962  0.00  0.00    +0.000 C 
ATOM     15  C   UNL     1       4.925   3.600  16.304  0.00  0.00    +0.000 C 
ENDROOT
BRANCH   1  17
ATOM     16  O   UNL     1       1.681   8.807  22.353  0.00  0.00    +0.000 OA
ATOM     17  C   UNL     1       1.188   8.659  21.239  0.00  0.00    +0.000 C 
ATOM     18  N   UNL     1       0.143   9.386  20.697  0.00  0.00    +0.000 N 
ATOM     19  H   UNL     1      -0.294   9.023  19.858  0.00  0.00    +0.000 HD
BRANCH  18  20
ATOM     20  C   UNL     1      -0.503  10.475  21.328  0.00  0.00    +0.000 A 
ATOM     21  C   UNL     1      -0.932  10.438  22.661  0.00  0.00    +0.000 A 
ATOM     22  C   UNL     1      -1.613  11.519  23.225  0.00  0.00    +0.000 A 
ATOM     23  C   UNL     1      -1.866  12.646  22.457  0.00  0.00    +0.000 A 
ATOM     24  F   UNL     1      -2.541  13.664  23.008  0.00  0.00    +0.000 F 
ATOM     25  C   UNL     1      -1.424  12.710  21.138  0.00  0.00    +0.000 A 
ATOM     26 CL   UNL     1      -1.744  14.104  20.177  0.00  0.00    +0.000 Cl
ATOM     27  C   UNL     1      -0.730  11.633  20.576  0.00  0.00    +0.000 A 
ENDBRANCH  18  20
ENDBRANCH   1  17
TORSDOF 2
ENDMDL
MODEL 7
REMARK VINA RESULT:      -8.0      4.161      9.417
REMARK  Name = 
REMARK  2 active torsions:
REMARK  status: ('A' for Active; 'I' for Inactive)
REMARK    1  A    between atoms: C_2  and  C_12
REMARK    2  A    between atoms: N_3  and  C_4
REMARK                            x       y       z     vdW  Elec       q    Type
REMARK                         _______ _______ _______ _____ _____    ______ ____
ROOT
ATOM      1  C   UNL     1       1.068   9.007  19.948  0.00  0.00    +0.000 A 
ATOM      2  C   UNL     1       0.956   7.968  20.871  0.00  0.00    +0.000 A 
ATOM      3  C   UNL     1       1.653   6.782  20.661  0.00  0.00    +0.000 A 
ATOM      4  C   UNL     1       2.492   6.621  19.530  0.00  0.00    +0.000 A 
ATOM      5  C   UNL     1       3.259   5.465  19.253  0.00  0.00    +0.000 A 
ATOM      6 CL   UNL     1       3.220   4.117  20.359  0.00  0.00    +0.000 Cl
ATOM      7  C   UNL     1       4.074   5.387  18.114  0.00  0.00    +0.000 A 
ATOM      8  C   UNL     1       4.120   6.514  17.296  0.00  0.00    +0.000 A 
ATOM      9  N   UNL     1       3.382   7.626  17.530  0.00  0.00    +0.000 NA
ATOM     10  C   UNL     1       2.597   7.682  18.612  0.00  0.00    +0.000 A 
ATOM     11  C   UNL     1       1.883   8.854  18.826  0.00  0.00    +0.000 A 
ATOM     12  C   UNL     1       4.974   6.564  16.054  0.00  0.00    +0.000 C 
ATOM     13  C   UNL     1       6.068   5.502  16.030  0.00  0.00    +0.000 C 
ATOM     14  C   UNL     1       5.476   4.148  16.392  0.00  0.00    +0.000 C 
ATOM     15  C   UNL     1       4.926   4.177  17.817  0.00  0.00    +0.000 C 
ENDROOT
BRANCH   1  17
ATOM     16  O   UNL     1       0.158  11.039  19.312  0.00  0.00    +0.000 OA
ATOM     17  C   UNL     1       0.377  10.283  20.253  0.00  0.00    +0.000 C 
ATOM     18  N   UNL     1       0.102  10.526  21.587  0.00  0.00    +0.000 N 
ATOM     19  H   UNL     1       0.521   9.908  22.271  0.00  0.00    +0.000 HD
BRANCH  18  20
ATOM     20  C   UNL     1      -0.539  11.683  22.087  0.00  0.00    +0.000 A 
ATOM     21  C   UNL     1      -0.018  12.973  21.924  0.00  0.00    +0.000 A 
ATOM     22  C   UNL     1      -0.661  14.081  22.482  0.00  0.00    +0.000 A 
ATOM     23  C   UNL     1      -1.833  13.903  23.203  0.00  0.00    +0.000 A 
ATOM     24  F   UNL     1      -2.423  14.974  23.751  0.00  0.00    +0.000 F 
ATOM     25  C   UNL     1      -2.379  12.630  23.352  0.00  0.00    +0.000 A 
ATOM     26 CL   UNL     1      -3.828  12.403  24.255  0.00  0.00    +0.000 Cl
ATOM     27  C   UNL     1      -1.743  11.521  22.783  0.00  0.00    +0.000 A 
ENDBRANCH  18  20
ENDBRANCH   1  17
TORSDOF 2
ENDMDL
MODEL 8
REMARK VINA RESULT:      -8.0      3.944      9.406
REMARK  Name = 
REMARK  2 active torsions:
REMARK  status: ('A' for Active; 'I' for Inactive)
REMARK    1  A    between atoms: C_2  and  C_12
REMARK    2  A    between atoms: N_3  and  C_4
REMARK                            x       y       z     vdW  Elec       q    Type
REMARK                         _______ _______ _______ _____ _____    ______ ____
ROOT
ATOM      1  C   UNL     1       1.860   7.541  19.916  0.00  0.00    +0.000 A 
ATOM      2  C   UNL     1       1.765   6.297  20.538  0.00  0.00    +0.000 A 
ATOM      3  C   UNL     1       2.425   5.202  19.991  0.00  0.00    +0.000 A 
ATOM      4  C   UNL     1       3.210   5.336  18.819  0.00  0.00    +0.000 A 
ATOM      5  C   UNL     1       3.940   4.286  18.212  0.00  0.00    +0.000 A 
ATOM      6 CL   UNL     1       3.918   2.695  18.925  0.00  0.00    +0.000 Cl
ATOM      7  C   UNL     1       4.702   4.503  17.055  0.00  0.00    +0.000 A 
ATOM      8  C   UNL     1       4.738   5.805  16.561  0.00  0.00    +0.000 A 
ATOM      9  N   UNL     1       4.036   6.824  17.113  0.00  0.00    +0.000 NA
ATOM     10  C   UNL     1       3.300   6.600  18.208  0.00  0.00    +0.000 A 
ATOM     11  C   UNL     1       2.622   7.681  18.756  0.00  0.00    +0.000 A 
ATOM     12  C   UNL     1       5.538   6.171  15.337  0.00  0.00    +0.000 C 
ATOM     13  C   UNL     1       6.606   5.142  14.982  0.00  0.00    +0.000 C 
ATOM     14  C   UNL     1       6.001   3.747  15.004  0.00  0.00    +0.000 C 
ATOM     15  C   UNL     1       5.513   3.405  16.410  0.00  0.00    +0.000 C 
ENDROOT
BRANCH   1  17
ATOM     16  O   UNL     1       0.978   8.601  21.778  0.00  0.00    +0.000 OA
ATOM     17  C   UNL     1       1.211   8.699  20.578  0.00  0.00    +0.000 C 
ATOM     18  N   UNL     1       0.871   9.760  19.757  0.00  0.00    +0.000 N 
ATOM     19  H   UNL     1       0.940   9.618  18.756  0.00  0.00    +0.000 HD
BRANCH  18  20
ATOM     20  C   UNL     1       0.239  10.950  20.186  0.00  0.00    +0.000 A 
ATOM     21  C   UNL     1       0.891  11.926  20.951  0.00  0.00    +0.000 A 
ATOM     22  C   UNL     1       0.209  13.061  21.396  0.00  0.00    +0.000 A 
ATOM     23  C   UNL     1      -1.130  13.227  21.074  0.00  0.00    +0.000 A 
ATOM     24  F   UNL     1      -1.774  14.311  21.529  0.00  0.00    +0.000 F 
ATOM     25  C   UNL     1      -1.787  12.280  20.292  0.00  0.00    +0.000 A 
ATOM     26 CL   UNL     1      -3.452  12.477  19.897  0.00  0.00    +0.000 Cl
ATOM     27  C   UNL     1      -1.102  11.149  19.834  0.00  0.00    +0.000 A 
ENDBRANCH  18  20
ENDBRANCH   1  17
TORSDOF 2
ENDMDL
MODEL 9
REMARK VINA RESULT:      -7.9      4.011      9.307
REMARK  Name = 
REMARK  2 active torsions:
REMARK  status: ('A' for Active; 'I' for Inactive)
REMARK    1  A    between atoms: C_2  and  C_12
REMARK    2  A    between atoms: N_3  and  C_4
REMARK                            x       y       z     vdW  Elec       q    Type
REMARK                         _______ _______ _______ _____ _____    ______ ____
ROOT
ATOM      1  C   UNL     1       1.728   7.643  20.329  0.00  0.00    +0.000 A 
ATOM      2  C   UNL     1       1.489   6.353  20.799  0.00  0.00    +0.000 A 
ATOM      3  C   UNL     1       2.037   5.263  20.129  0.00  0.00    +0.000 A 
ATOM      4  C   UNL     1       2.851   5.447  18.984  0.00  0.00    +0.000 A 
ATOM      5  C   UNL     1       3.473   4.403  18.260  0.00  0.00    +0.000 A 
ATOM      6 CL   UNL     1       3.268   2.751  18.780  0.00  0.00    +0.000 Cl
ATOM      7  C   UNL     1       4.273   4.670  17.139  0.00  0.00    +0.000 A 
ATOM      8  C   UNL     1       4.457   6.009  16.803  0.00  0.00    +0.000 A 
ATOM      9  N   UNL     1       3.860   7.026  17.469  0.00  0.00    +0.000 NA
ATOM     10  C   UNL     1       3.086   6.758  18.527  0.00  0.00    +0.000 A 
ATOM     11  C   UNL     1       2.519   7.834  19.197  0.00  0.00    +0.000 A 
ATOM     12  C   UNL     1       5.312   6.427  15.633  0.00  0.00    +0.000 C 
ATOM     13  C   UNL     1       6.269   5.336  15.163  0.00  0.00    +0.000 C 
ATOM     14  C   UNL     1       5.516   4.022  15.018  0.00  0.00    +0.000 C 
ATOM     15  C   UNL     1       4.972   3.573  16.372  0.00  0.00    +0.000 C 
ENDROOT
BRANCH   1  17
ATOM     16  O   UNL     1       1.025   8.594  22.321  0.00  0.00    +0.000 OA
ATOM     17  C   UNL     1       1.197   8.779  21.121  0.00  0.00    +0.000 C 
ATOM     18  N   UNL     1       0.884   9.925  20.410  0.00  0.00    +0.000 N 
ATOM     19  H   UNL     1       0.887   9.864  19.399  0.00  0.00    +0.000 HD
BRANCH  18  20
ATOM     20  C   UNL     1       0.358  11.112  20.972  0.00  0.00    +0.000 A 
ATOM     21  C   UNL     1       0.963  12.365  20.808  0.00  0.00    +0.000 A 
ATOM     22  C   UNL     1       0.435  13.501  21.427  0.00  0.00    +0.000 A 
ATOM     23  C   UNL     1      -0.705  13.389  22.210  0.00  0.00    +0.000 A 
ATOM     24  F   UNL     1      -1.183  14.486  22.814  0.00  0.00    +0.000 F 
ATOM     25  C   UNL     1      -1.334  12.156  22.361  0.00  0.00    +0.000 A 
ATOM     26 CL   UNL     1      -2.743  12.010  23.341  0.00  0.00    +0.000 Cl
ATOM     27  C   UNL     1      -0.814  11.019  21.732  0.00  0.00    +0.000 A 
ENDBRANCH  18  20
ENDBRANCH   1  17
TORSDOF 2
ENDMDL
