MODEL 1
REMARK VINA RESULT:      -8.9      0.000      0.000
REMARK  Name = 
REMARK  3 active torsions:
REMARK  status: ('A' for Active; 'I' for Inactive)
REMARK    1  A    between atoms: O_1  and  C_2
REMARK    2  A    between atoms: C_7  and  C_8
REMARK    3  A    between atoms: C_15  and  C_16
REMARK                            x       y       z     vdW  Elec       q    Type
REMARK                         _______ _______ _______ _____ _____    ______ ____
ROOT
ATOM      1  C   UNL     1       7.418   4.515  17.919  0.00  0.00    +0.000 A 
ATOM      2  N   UNL     1       7.792   5.115  19.098  0.00  0.00    +0.000 N 
ATOM      3  N   UNL     1       6.756   5.507  19.861  0.00  0.00    +0.000 NA
ATOM      4  C   UNL     1       5.694   5.149  19.131  0.00  0.00    +0.000 A 
ATOM      5  C   UNL     1       6.044   4.572  17.895  0.00  0.00    +0.000 A 
ATOM      6  C   UNL     1       5.020   4.086  16.921  0.00  0.00    +0.000 C 
ATOM      7  O   UNL     1       3.747   3.888  17.599  0.00  0.00    +0.000 OA
ATOM      8  C   UNL     1       3.299   4.959  18.474  0.00  0.00    +0.000 C 
ATOM      9  C   UNL     1       4.299   5.237  19.619  0.00  0.00    +0.000 C 
ATOM     10  H   UNL     1       8.725   5.268  19.456  0.00  0.00    +0.000 HD
ENDROOT
BRANCH   6  11
ATOM     11  C   UNL     1       4.847   5.006  15.672  0.00  0.00    +0.000 C 
ATOM     12  C   UNL     1       5.872   6.158  15.587  0.00  0.00    +0.000 C 
ATOM     13  C   UNL     1       7.281   5.693  15.223  0.00  0.00    +0.000 C 
ATOM     14  C   UNL     1       7.291   4.913  13.914  0.00  0.00    +0.000 C 
ATOM     15  C   UNL     1       6.275   3.775  13.916  0.00  0.00    +0.000 C 
ATOM     16  C   UNL     1       4.877   4.232  14.336  0.00  0.00    +0.000 C 
ENDBRANCH   6  11
BRANCH   8  17
ATOM     17  C   UNL     1       1.840   4.590  18.902  0.00  0.00    +0.000 C 
ATOM     18  C   UNL     1       1.380   3.162  18.549  0.00  0.00    +0.000 C 
ATOM     19  C   UNL     1       1.866   2.081  19.507  0.00  0.00    +0.000 C 
ATOM     20  C   UNL     1       1.658   2.423  20.981  0.00  0.00    +0.000 C 
ATOM     21  C   UNL     1       1.952   3.869  21.370  0.00  0.00    +0.000 C 
ATOM     22  C   UNL     1       1.454   4.894  20.356  0.00  0.00    +0.000 C 
ENDBRANCH   8  17
BRANCH   1  23
ATOM     23  O   UNL     1       8.285   4.008  17.050  0.00  0.00    +0.000 OA
ATOM     24  H   UNL     1       8.239   3.038  17.057  0.00  0.00    +0.000 HD
ENDBRANCH   1  23
TORSDOF 3
ENDMDL
MODEL 2
REMARK VINA RESULT:      -8.4      3.414      4.931
REMARK  Name = 
REMARK  3 active torsions:
REMARK  status: ('A' for Active; 'I' for Inactive)
REMARK    1  A    between atoms: O_1  and  C_2
REMARK    2  A    between atoms: C_7  and  C_8
REMARK    3  A    between atoms: C_15  and  C_16
REMARK                            x       y       z     vdW  Elec       q    Type
REMARK                         _______ _______ _______ _____ _____    ______ ____
ROOT
ATOM      1  C   UNL     1       1.763   3.419  18.594  0.00  0.00    +0.000 A 
ATOM      2  N   UNL     1       1.029   3.070  19.703  0.00  0.00    +0.000 N 
ATOM      3  N   UNL     1       0.802   4.092  20.547  0.00  0.00    +0.000 NA
ATOM      4  C   UNL     1       1.422   5.116  19.951  0.00  0.00    +0.000 A 
ATOM      5  C   UNL     1       2.077   4.747  18.760  0.00  0.00    +0.000 A 
ATOM      6  C   UNL     1       2.825   5.732  17.922  0.00  0.00    +0.000 C 
ATOM      7  O   UNL     1       2.403   7.086  18.253  0.00  0.00    +0.000 OA
ATOM      8  C   UNL     1       2.326   7.420  19.665  0.00  0.00    +0.000 C 
ATOM      9  C   UNL     1       1.332   6.515  20.428  0.00  0.00    +0.000 C 
ATOM     10  H   UNL     1       0.635   2.169  19.936  0.00  0.00    +0.000 HD
ENDROOT
BRANCH   6  11
ATOM     11  C   UNL     1       4.376   5.595  18.017  0.00  0.00    +0.000 C 
ATOM     12  C   UNL     1       4.926   4.246  17.504  0.00  0.00    +0.000 C 
ATOM     13  C   UNL     1       4.867   4.103  15.984  0.00  0.00    +0.000 C 
ATOM     14  C   UNL     1       5.601   5.243  15.287  0.00  0.00    +0.000 C 
ATOM     15  C   UNL     1       5.129   6.611  15.772  0.00  0.00    +0.000 C 
ATOM     16  C   UNL     1       5.135   6.732  17.297  0.00  0.00    +0.000 C 
ENDBRANCH   6  11
BRANCH   8  17
ATOM     17  C   UNL     1       2.057   8.959  19.735  0.00  0.00    +0.000 C 
ATOM     18  C   UNL     1       1.636   9.626  18.411  0.00  0.00    +0.000 C 
ATOM     19  C   UNL     1       0.166   9.450  18.048  0.00  0.00    +0.000 C 
ATOM     20  C   UNL     1      -0.793   9.755  19.196  0.00  0.00    +0.000 C 
ATOM     21  C   UNL     1      -0.360   9.252  20.570  0.00  0.00    +0.000 C 
ATOM     22  C   UNL     1       1.126   9.443  20.856  0.00  0.00    +0.000 C 
ENDBRANCH   8  17
BRANCH   1  23
ATOM     23  O   UNL     1       2.051   2.572  17.612  0.00  0.00    +0.000 OA
ATOM     24  H   UNL     1       1.409   2.665  16.889  0.00  0.00    +0.000 HD
ENDBRANCH   1  23
TORSDOF 3
ENDMDL
MODEL 3
REMARK VINA RESULT:      -8.3      3.185      5.552
REMARK  Name = 
REMARK  3 active torsions:
REMARK  status: ('A' for Active; 'I' for Inactive)
REMARK    1  A    between atoms: O_1  and  C_2
REMARK    2  A    between atoms: C_7  and  C_8
REMARK    3  A    between atoms: C_15  and  C_16
REMARK                            x       y       z     vdW  Elec       q    Type
REMARK                         _______ _______ _______ _____ _____    ______ ____
ROOT
ATOM      1  C   UNL     1       4.722   4.595  17.295  0.00  0.00    +0.000 A 
ATOM      2  N   UNL     1       5.205   5.231  16.175  0.00  0.00    +0.000 N 
ATOM      3  N   UNL     1       4.786   6.502  16.049  0.00  0.00    +0.000 NA
ATOM      4  C   UNL     1       4.006   6.669  17.122  0.00  0.00    +0.000 A 
ATOM      5  C   UNL     1       3.891   5.504  17.906  0.00  0.00    +0.000 A 
ATOM      6  C   UNL     1       3.078   5.462  19.159  0.00  0.00    +0.000 C 
ATOM      7  O   UNL     1       2.842   6.815  19.642  0.00  0.00    +0.000 OA
ATOM      8  C   UNL     1       2.402   7.792  18.661  0.00  0.00    +0.000 C 
ATOM      9  C   UNL     1       3.421   7.971  17.513  0.00  0.00    +0.000 C 
ATOM     10  H   UNL     1       5.836   4.870  15.473  0.00  0.00    +0.000 HD
ENDROOT
BRANCH   6  11
ATOM     11  C   UNL     1       1.735   4.681  19.017  0.00  0.00    +0.000 C 
ATOM     12  C   UNL     1       1.888   3.256  18.441  0.00  0.00    +0.000 C 
ATOM     13  C   UNL     1       2.519   2.268  19.422  0.00  0.00    +0.000 C 
ATOM     14  C   UNL     1       1.737   2.203  20.729  0.00  0.00    +0.000 C 
ATOM     15  C   UNL     1       1.519   3.584  21.338  0.00  0.00    +0.000 C 
ATOM     16  C   UNL     1       0.940   4.586  20.338  0.00  0.00    +0.000 C 
ENDBRANCH   6  11
BRANCH   8  17
ATOM     17  C   UNL     1       2.030   9.081  19.466  0.00  0.00    +0.000 C 
ATOM     18  C   UNL     1       1.395  10.221  18.647  0.00  0.00    +0.000 C 
ATOM     19  C   UNL     1      -0.092  10.049  18.360  0.00  0.00    +0.000 C 
ATOM     20  C   UNL     1      -0.917   9.671  19.588  0.00  0.00    +0.000 C 
ATOM     21  C   UNL     1      -0.275   8.652  20.526  0.00  0.00    +0.000 C 
ATOM     22  C   UNL     1       1.217   8.876  20.752  0.00  0.00    +0.000 C 
ENDBRANCH   8  17
BRANCH   1  23
ATOM     23  O   UNL     1       5.058   3.355  17.633  0.00  0.00    +0.000 OA
ATOM     24  H   UNL     1       5.620   3.364  18.426  0.00  0.00    +0.000 HD
ENDBRANCH   1  23
TORSDOF 3
ENDMDL
MODEL 4
REMARK VINA RESULT:      -8.1      2.329      4.160
REMARK  Name = 
REMARK  3 active torsions:
REMARK  status: ('A' for Active; 'I' for Inactive)
REMARK    1  A    between atoms: O_1  and  C_2
REMARK    2  A    between atoms: C_7  and  C_8
REMARK    3  A    between atoms: C_15  and  C_16
REMARK                            x       y       z     vdW  Elec       q    Type
REMARK                         _______ _______ _______ _____ _____    ______ ____
ROOT
ATOM      1  C   UNL     1       5.330   5.774  15.274  0.00  0.00    +0.000 A 
ATOM      2  N   UNL     1       6.304   4.924  14.804  0.00  0.00    +0.000 N 
ATOM      3  N   UNL     1       6.361   3.750  15.456  0.00  0.00    +0.000 NA
ATOM      4  C   UNL     1       5.395   3.868  16.373  0.00  0.00    +0.000 A 
ATOM      5  C   UNL     1       4.753   5.122  16.339  0.00  0.00    +0.000 A 
ATOM      6  C   UNL     1       3.635   5.472  17.265  0.00  0.00    +0.000 C 
ATOM      7  O   UNL     1       3.059   4.259  17.827  0.00  0.00    +0.000 OA
ATOM      8  C   UNL     1       3.990   3.269  18.341  0.00  0.00    +0.000 C 
ATOM      9  C   UNL     1       4.962   2.759  17.253  0.00  0.00    +0.000 C 
ATOM     10  H   UNL     1       6.944   5.069  14.035  0.00  0.00    +0.000 HD
ENDROOT
BRANCH   6  11
ATOM     11  C   UNL     1       4.038   6.470  18.395  0.00  0.00    +0.000 C 
ATOM     12  C   UNL     1       3.927   7.958  17.996  0.00  0.00    +0.000 C 
ATOM     13  C   UNL     1       2.485   8.451  17.884  0.00  0.00    +0.000 C 
ATOM     14  C   UNL     1       1.713   8.217  19.177  0.00  0.00    +0.000 C 
ATOM     15  C   UNL     1       1.808   6.769  19.649  0.00  0.00    +0.000 C 
ATOM     16  C   UNL     1       3.249   6.260  19.706  0.00  0.00    +0.000 C 
ENDBRANCH   6  11
BRANCH   8  17
ATOM     17  C   UNL     1       3.122   2.184  19.059  0.00  0.00    +0.000 C 
ATOM     18  C   UNL     1       3.275   2.110  20.590  0.00  0.00    +0.000 C 
ATOM     19  C   UNL     1       2.485   3.161  21.361  0.00  0.00    +0.000 C 
ATOM     20  C   UNL     1       1.030   3.288  20.917  0.00  0.00    +0.000 C 
ATOM     21  C   UNL     1       0.791   3.216  19.412  0.00  0.00    +0.000 C 
ATOM     22  C   UNL     1       1.629   2.156  18.704  0.00  0.00    +0.000 C 
ENDBRANCH   8  17
BRANCH   1  23
ATOM     23  O   UNL     1       5.072   6.959  14.734  0.00  0.00    +0.000 OA
ATOM     24  H   UNL     1       5.817   7.566  14.884  0.00  0.00    +0.000 HD
ENDBRANCH   1  23
TORSDOF 3
ENDMDL
MODEL 5
REMARK VINA RESULT:      -8.0      2.610      5.977
REMARK  Name = 
REMARK  3 active torsions:
REMARK  status: ('A' for Active; 'I' for Inactive)
REMARK    1  A    between atoms: O_1  and  C_2
REMARK    2  A    between atoms: C_7  and  C_8
REMARK    3  A    between atoms: C_15  and  C_16
REMARK                            x       y       z     vdW  Elec       q    Type
REMARK                         _______ _______ _______ _____ _____    ______ ____
ROOT
ATOM      1  C   UNL     1       2.927   3.098  21.080  0.00  0.00    +0.000 A 
ATOM      2  N   UNL     1       3.378   1.875  20.645  0.00  0.00    +0.000 N 
ATOM      3  N   UNL     1       4.093   1.931  19.508  0.00  0.00    +0.000 NA
ATOM      4  C   UNL     1       4.083   3.236  19.213  0.00  0.00    +0.000 A 
ATOM      5  C   UNL     1       3.335   4.003  20.127  0.00  0.00    +0.000 A 
ATOM      6  C   UNL     1       3.196   5.485  20.001  0.00  0.00    +0.000 C 
ATOM      7  O   UNL     1       4.248   6.010  19.143  0.00  0.00    +0.000 OA
ATOM      8  C   UNL     1       4.482   5.309  17.892  0.00  0.00    +0.000 C 
ATOM      9  C   UNL     1       4.874   3.831  18.112  0.00  0.00    +0.000 C 
ATOM     10  H   UNL     1       3.257   0.971  21.081  0.00  0.00    +0.000 HD
ENDROOT
BRANCH   6  11
ATOM     11  C   UNL     1       1.791   5.949  19.504  0.00  0.00    +0.000 C 
ATOM     12  C   UNL     1       0.955   6.690  20.570  0.00  0.00    +0.000 C 
ATOM     13  C   UNL     1       1.466   8.098  20.874  0.00  0.00    +0.000 C 
ATOM     14  C   UNL     1       1.542   8.949  19.612  0.00  0.00    +0.000 C 
ATOM     15  C   UNL     1       2.330   8.260  18.501  0.00  0.00    +0.000 C 
ATOM     16  C   UNL     1       1.852   6.831  18.237  0.00  0.00    +0.000 C 
ENDBRANCH   6  11
BRANCH   8  17
ATOM     17  C   UNL     1       5.499   6.184  17.086  0.00  0.00    +0.000 C 
ATOM     18  C   UNL     1       6.986   5.828  17.277  0.00  0.00    +0.000 C 
ATOM     19  C   UNL     1       7.465   4.633  16.461  0.00  0.00    +0.000 C 
ATOM     20  C   UNL     1       7.052   4.684  14.992  0.00  0.00    +0.000 C 
ATOM     21  C   UNL     1       5.633   5.177  14.722  0.00  0.00    +0.000 C 
ATOM     22  C   UNL     1       5.216   6.361  15.588  0.00  0.00    +0.000 C 
ENDBRANCH   8  17
BRANCH   1  23
ATOM     23  O   UNL     1       2.249   3.268  22.209  0.00  0.00    +0.000 OA
ATOM     24  H   UNL     1       1.351   3.587  22.017  0.00  0.00    +0.000 HD
ENDBRANCH   1  23
TORSDOF 3
ENDMDL
MODEL 6
REMARK VINA RESULT:      -8.0      1.841      5.966
REMARK  Name = 
REMARK  3 active torsions:
REMARK  status: ('A' for Active; 'I' for Inactive)
REMARK    1  A    between atoms: O_1  and  C_2
REMARK    2  A    between atoms: C_7  and  C_8
REMARK    3  A    between atoms: C_15  and  C_16
REMARK                            x       y       z     vdW  Elec       q    Type
REMARK                         _______ _______ _______ _____ _____    ______ ____
ROOT
ATOM      1  C   UNL     1       6.469   4.872  18.712  0.00  0.00    +0.000 A 
ATOM      2  N   UNL     1       7.833   4.716  18.655  0.00  0.00    +0.000 N 
ATOM      3  N   UNL     1       8.298   4.445  17.423  0.00  0.00    +0.000 NA
ATOM      4  C   UNL     1       7.185   4.423  16.681  0.00  0.00    +0.000 A 
ATOM      5  C   UNL     1       6.015   4.634  17.436  0.00  0.00    +0.000 A 
ATOM      6  C   UNL     1       4.657   4.661  16.814  0.00  0.00    +0.000 C 
ATOM      7  O   UNL     1       4.774   4.891  15.381  0.00  0.00    +0.000 OA
ATOM      8  C   UNL     1       5.756   4.092  14.668  0.00  0.00    +0.000 C 
ATOM      9  C   UNL     1       7.189   4.309  15.205  0.00  0.00    +0.000 C 
ATOM     10  H   UNL     1       8.506   4.801  19.405  0.00  0.00    +0.000 HD
ENDROOT
BRANCH   6  11
ATOM     11  C   UNL     1       3.801   3.389  17.104  0.00  0.00    +0.000 C 
ATOM     12  C   UNL     1       3.856   2.910  18.571  0.00  0.00    +0.000 C 
ATOM     13  C   UNL     1       3.091   3.815  19.536  0.00  0.00    +0.000 C 
ATOM     14  C   UNL     1       1.636   3.978  19.113  0.00  0.00    +0.000 C 
ATOM     15  C   UNL     1       1.506   4.419  17.659  0.00  0.00    +0.000 C 
ATOM     16  C   UNL     1       2.319   3.546  16.701  0.00  0.00    +0.000 C 
ENDBRANCH   6  11
BRANCH   8  17
ATOM     17  C   UNL     1       5.534   4.383  13.147  0.00  0.00    +0.000 C 
ATOM     18  C   UNL     1       6.801   4.722  12.339  0.00  0.00    +0.000 C 
ATOM     19  C   UNL     1       7.633   3.516  11.921  0.00  0.00    +0.000 C 
ATOM     20  C   UNL     1       6.815   2.389  11.294  0.00  0.00    +0.000 C 
ATOM     21  C   UNL     1       5.471   2.101  11.959  0.00  0.00    +0.000 C 
ATOM     22  C   UNL     1       4.703   3.355  12.366  0.00  0.00    +0.000 C 
ENDBRANCH   8  17
BRANCH   1  23
ATOM     23  O   UNL     1       5.816   5.196  19.823  0.00  0.00    +0.000 OA
ATOM     24  H   UNL     1       6.048   4.582  20.540  0.00  0.00    +0.000 HD
ENDBRANCH   1  23
TORSDOF 3
ENDMDL
MODEL 7
REMARK VINA RESULT:      -7.9      2.612      5.879
REMARK  Name = 
REMARK  3 active torsions:
REMARK  status: ('A' for Active; 'I' for Inactive)
REMARK    1  A    between atoms: O_1  and  C_2
REMARK    2  A    between atoms: C_7  and  C_8
REMARK    3  A    between atoms: C_15  and  C_16
REMARK                            x       y       z     vdW  Elec       q    Type
REMARK                         _______ _______ _______ _____ _____    ______ ____
ROOT
ATOM      1  C   UNL     1       2.802   2.932  20.871  0.00  0.00    +0.000 A 
ATOM      2  N   UNL     1       2.996   1.609  20.553  0.00  0.00    +0.000 N 
ATOM      3  N   UNL     1       3.504   1.413  19.324  0.00  0.00    +0.000 NA
ATOM      4  C   UNL     1       3.626   2.658  18.849  0.00  0.00    +0.000 A 
ATOM      5  C   UNL     1       3.162   3.638  19.747  0.00  0.00    +0.000 A 
ATOM      6  C   UNL     1       3.211   5.098  19.432  0.00  0.00    +0.000 C 
ATOM      7  O   UNL     1       4.162   5.340  18.357  0.00  0.00    +0.000 OA
ATOM      8  C   UNL     1       4.076   4.467  17.198  0.00  0.00    +0.000 C 
ATOM      9  C   UNL     1       4.289   2.982  17.566  0.00  0.00    +0.000 C 
ATOM     10  H   UNL     1       2.827   0.794  21.129  0.00  0.00    +0.000 HD
ENDROOT
BRANCH   6  11
ATOM     11  C   UNL     1       1.821   5.720  19.094  0.00  0.00    +0.000 C 
ATOM     12  C   UNL     1       1.060   6.274  20.318  0.00  0.00    +0.000 C 
ATOM     13  C   UNL     1       1.658   7.565  20.874  0.00  0.00    +0.000 C 
ATOM     14  C   UNL     1       1.744   8.646  19.803  0.00  0.00    +0.000 C 
ATOM     15  C   UNL     1       2.458   8.156  18.547  0.00  0.00    +0.000 C 
ATOM     16  C   UNL     1       1.893   6.833  18.025  0.00  0.00    +0.000 C 
ENDBRANCH   6  11
BRANCH   8  17
ATOM     17  C   UNL     1       5.050   5.064  16.129  0.00  0.00    +0.000 C 
ATOM     18  C   UNL     1       5.181   6.599  16.126  0.00  0.00    +0.000 C 
ATOM     19  C   UNL     1       6.111   7.161  17.194  0.00  0.00    +0.000 C 
ATOM     20  C   UNL     1       7.461   6.452  17.273  0.00  0.00    +0.000 C 
ATOM     21  C   UNL     1       7.417   4.933  17.129  0.00  0.00    +0.000 C 
ATOM     22  C   UNL     1       6.452   4.443  16.055  0.00  0.00    +0.000 C 
ENDBRANCH   8  17
BRANCH   1  23
ATOM     23  O   UNL     1       2.361   3.342  22.055  0.00  0.00    +0.000 OA
ATOM     24  H   UNL     1       2.739   4.211  22.272  0.00  0.00    +0.000 HD
ENDBRANCH   1  23
TORSDOF 3
ENDMDL
MODEL 8
REMARK VINA RESULT:      -7.9     10.802     12.450
REMARK  Name = 
REMARK  3 active torsions:
REMARK  status: ('A' for Active; 'I' for Inactive)
REMARK    1  A    between atoms: O_1  and  C_2
REMARK    2  A    between atoms: C_7  and  C_8
REMARK    3  A    between atoms: C_15  and  C_16
REMARK                            x       y       z     vdW  Elec       q    Type
REMARK                         _______ _______ _______ _____ _____    ______ ____
ROOT
ATOM      1  C   UNL     1      10.941  14.855  16.746  0.00  0.00    +0.000 A 
ATOM      2  N   UNL     1      10.942  16.086  16.132  0.00  0.00    +0.000 N 
ATOM      3  N   UNL     1      10.683  17.109  16.965  0.00  0.00    +0.000 NA
ATOM      4  C   UNL     1      10.505  16.499  18.142  0.00  0.00    +0.000 A 
ATOM      5  C   UNL     1      10.606  15.097  18.058  0.00  0.00    +0.000 A 
ATOM      6  C   UNL     1      10.454  14.212  19.252  0.00  0.00    +0.000 C 
ATOM      7  O   UNL     1      10.643  14.987  20.470  0.00  0.00    +0.000 OA
ATOM      8  C   UNL     1       9.938  16.254  20.555  0.00  0.00    +0.000 C 
ATOM      9  C   UNL     1      10.339  17.225  19.422  0.00  0.00    +0.000 C 
ATOM     10  H   UNL     1      11.132  16.303  15.163  0.00  0.00    +0.000 HD
ENDROOT
BRANCH   6  11
ATOM     11  C   UNL     1       9.102  13.433  19.294  0.00  0.00    +0.000 C 
ATOM     12  C   UNL     1       8.915  12.426  18.138  0.00  0.00    +0.000 C 
ATOM     13  C   UNL     1       9.796  11.183  18.265  0.00  0.00    +0.000 C 
ATOM     14  C   UNL     1       9.570  10.472  19.594  0.00  0.00    +0.000 C 
ATOM     15  C   UNL     1       9.707  11.419  20.783  0.00  0.00    +0.000 C 
ATOM     16  C   UNL     1       8.868  12.688  20.627  0.00  0.00    +0.000 C 
ENDBRANCH   6  11
BRANCH   8  17
ATOM     17  C   UNL     1      10.146  16.771  22.017  0.00  0.00    +0.000 C 
ATOM     18  C   UNL     1       9.150  17.846  22.495  0.00  0.00    +0.000 C 
ATOM     19  C   UNL     1       7.798  17.305  22.946  0.00  0.00    +0.000 C 
ATOM     20  C   UNL     1       7.895  16.120  23.904  0.00  0.00    +0.000 C 
ATOM     21  C   UNL     1       8.971  15.090  23.571  0.00  0.00    +0.000 C 
ATOM     22  C   UNL     1      10.290  15.702  23.109  0.00  0.00    +0.000 C 
ENDBRANCH   8  17
BRANCH   1  23
ATOM     23  O   UNL     1      11.227  13.723  16.114  0.00  0.00    +0.000 OA
ATOM     24  H   UNL     1      12.135  13.751  15.768  0.00  0.00    +0.000 HD
ENDBRANCH   1  23
TORSDOF 3
ENDMDL
MODEL 9
REMARK VINA RESULT:      -7.8      9.911     12.246
REMARK  Name = 
REMARK  3 active torsions:
REMARK  status: ('A' for Active; 'I' for Inactive)
REMARK    1  A    between atoms: O_1  and  C_2
REMARK    2  A    between atoms: C_7  and  C_8
REMARK    3  A    between atoms: C_15  and  C_16
REMARK                            x       y       z     vdW  Elec       q    Type
REMARK                         _______ _______ _______ _____ _____    ______ ____
ROOT
ATOM      1  C   UNL     1       5.887  16.190  20.089  0.00  0.00    +0.000 A 
ATOM      2  N   UNL     1       5.880  17.360  19.367  0.00  0.00    +0.000 N 
ATOM      3  N   UNL     1       6.966  17.527  18.592  0.00  0.00    +0.000 NA
ATOM      4  C   UNL     1       7.685  16.427  18.843  0.00  0.00    +0.000 A 
ATOM      5  C   UNL     1       7.087  15.584  19.800  0.00  0.00    +0.000 A 
ATOM      6  C   UNL     1       7.708  14.294  20.226  0.00  0.00    +0.000 C 
ATOM      7  O   UNL     1       8.688  13.866  19.239  0.00  0.00    +0.000 OA
ATOM      8  C   UNL     1       9.627  14.871  18.771  0.00  0.00    +0.000 C 
ATOM      9  C   UNL     1       8.918  16.072  18.106  0.00  0.00    +0.000 C 
ATOM     10  H   UNL     1       5.164  18.073  19.335  0.00  0.00    +0.000 HD
ENDROOT
BRANCH   6  11
ATOM     11  C   UNL     1       8.339  14.336  21.653  0.00  0.00    +0.000 C 
ATOM     12  C   UNL     1       7.317  14.202  22.803  0.00  0.00    +0.000 C 
ATOM     13  C   UNL     1       6.745  12.792  22.946  0.00  0.00    +0.000 C 
ATOM     14  C   UNL     1       7.848  11.758  23.130  0.00  0.00    +0.000 C 
ATOM     15  C   UNL     1       8.915  11.855  22.043  0.00  0.00    +0.000 C 
ATOM     16  C   UNL     1       9.445  13.279  21.863  0.00  0.00    +0.000 C 
ENDBRANCH   6  11
BRANCH   8  17
ATOM     17  C   UNL     1      10.677  14.111  17.893  0.00  0.00    +0.000 C 
ATOM     18  C   UNL     1      12.109  14.059  18.458  0.00  0.00    +0.000 C 
ATOM     19  C   UNL     1      12.333  12.998  19.529  0.00  0.00    +0.000 C 
ATOM     20  C   UNL     1      11.792  11.619  19.155  0.00  0.00    +0.000 C 
ATOM     21  C   UNL     1      10.438  11.611  18.451  0.00  0.00    +0.000 C 
ATOM     22  C   UNL     1      10.279  12.711  17.406  0.00  0.00    +0.000 C 
ENDBRANCH   8  17
BRANCH   1  23
ATOM     23  O   UNL     1       4.885  15.809  20.873  0.00  0.00    +0.000 OA
ATOM     24  H   UNL     1       4.934  14.854  21.042  0.00  0.00    +0.000 HD
ENDBRANCH   1  23
TORSDOF 3
ENDMDL
