MODEL 1
REMARK VINA RESULT:      -8.5      0.000      0.000
REMARK  Name = 
REMARK  9 active torsions:
REMARK  status: ('A' for Active; 'I' for Inactive)
REMARK    1  A    between atoms: C_1  and  C_2
REMARK    2  A    between atoms: C_2  and  N_3
REMARK    3  A    between atoms: C_4  and  C_6
REMARK    4  A    between atoms: C_8  and  N_9
REMARK    5  A    between atoms: N_17  and  C_18
REMARK    6  A    between atoms: C_18  and  C_19
REMARK    7  A    between atoms: C_19  and  C_20
REMARK    8  A    between atoms: C_30  and  O_31
REMARK    9  A    between atoms: C_32  and  O_33
REMARK                            x       y       z     vdW  Elec       q    Type
REMARK                         _______ _______ _______ _____ _____    ______ ____
ROOT
ATOM      1  N   UNL     1       0.857  10.198  20.392  0.00  0.00    +0.000 N 
ATOM      2  C   UNL     1       0.789   9.592  21.618  0.00  0.00    +0.000 A 
ATOM      3  N   UNL     1       1.247   8.352  21.579  0.00  0.00    +0.000 NA
ATOM      4  C   UNL     1       1.639   8.159  20.267  0.00  0.00    +0.000 A 
ATOM      5  C   UNL     1       2.227   7.094  19.570  0.00  0.00    +0.000 A 
ATOM      6  N   UNL     1       2.533   5.888  20.211  0.00  0.00    +0.000 N 
ATOM      7  C   UNL     1       3.103   4.774  19.656  0.00  0.00    +0.000 C 
ATOM      8  O   UNL     1       3.305   3.773  20.337  0.00  0.00    +0.000 OA
ATOM      9  N   UNL     1       3.416   4.848  18.329  0.00  0.00    +0.000 N 
ATOM     10  N   UNL     1       2.507   7.261  18.246  0.00  0.00    +0.000 NA
ATOM     11  C   UNL     1       2.202   8.420  17.654  0.00  0.00    +0.000 A 
ATOM     12  N   UNL     1       1.628   9.497  18.212  0.00  0.00    +0.000 NA
ATOM     13  C   UNL     1       1.386   9.295  19.516  0.00  0.00    +0.000 A 
ATOM     14  H   UNL     1       2.310   5.816  21.196  0.00  0.00    +0.000 HD
ATOM     15  H   UNL     1       3.279   5.755  17.895  0.00  0.00    +0.000 HD
ENDROOT
BRANCH   1  18
ATOM     16  C   UNL     1      -0.649  13.204  21.295  0.00  0.00    +0.000 C 
ATOM     17  O   UNL     1       0.506  12.345  21.291  0.00  0.00    +0.000 OA
ATOM     18  C   UNL     1       0.485  11.561  20.079  0.00  0.00    +0.000 C 
ATOM     19  C   UNL     1      -0.902  11.712  19.450  0.00  0.00    +0.000 C 
ATOM     20  C   UNL     1      -1.303  13.101  19.917  0.00  0.00    +0.000 C 
BRANCH  16  22
ATOM     21  N   UNL     1      -2.965  13.147  22.101  0.00  0.00    +0.000 N 
ATOM     22  C   UNL     1      -1.645  12.916  22.434  0.00  0.00    +0.000 C 
ATOM     23  O   UNL     1      -1.301  12.427  23.506  0.00  0.00    +0.000 OA
ATOM     24  H   UNL     1      -3.119  13.849  21.382  0.00  0.00    +0.000 HD
BRANCH  21  26
ATOM     25  C   UNL     1      -4.438  14.109  23.827  0.00  0.00    +0.000 C 
ATOM     26  C   UNL     1      -4.015  12.872  23.059  0.00  0.00    +0.000 C 
ENDBRANCH  21  26
ENDBRANCH  16  22
BRANCH  19  27
ATOM     27  O   UNL     1      -0.852  11.618  18.028  0.00  0.00    +0.000 OA
ATOM     28  H   UNL     1      -0.450  12.456  17.712  0.00  0.00    +0.000 HD
ENDBRANCH  19  27
BRANCH  20  29
ATOM     29  O   UNL     1      -0.763  14.054  18.976  0.00  0.00    +0.000 OA
ATOM     30  H   UNL     1       0.099  13.736  18.650  0.00  0.00    +0.000 HD
ENDBRANCH  20  29
ENDBRANCH   1  18
BRANCH   9  31
ATOM     31  C   UNL     1       4.050   3.783  17.588  0.00  0.00    +0.000 C 
BRANCH  31  32
ATOM     32  C   UNL     1       5.083   4.305  16.585  0.00  0.00    +0.000 C 
BRANCH  32  33
ATOM     33  C   UNL     1       6.065   5.247  17.239  0.00  0.00    +0.000 A 
ATOM     34  C   UNL     1       6.185   6.569  16.789  0.00  0.00    +0.000 A 
ATOM     35  C   UNL     1       7.123   7.431  17.361  0.00  0.00    +0.000 A 
ATOM     36  C   UNL     1       7.951   6.979  18.388  0.00  0.00    +0.000 A 
ATOM     37  C   UNL     1       7.842   5.665  18.841  0.00  0.00    +0.000 A 
ATOM     38  C   UNL     1       6.904   4.802  18.269  0.00  0.00    +0.000 A 
ENDBRANCH  32  33
ENDBRANCH  31  32
ENDBRANCH   9  31
TORSDOF 8
ENDMDL
MODEL 2
REMARK VINA RESULT:      -8.4      0.581      1.035
REMARK  Name = 
REMARK  9 active torsions:
REMARK  status: ('A' for Active; 'I' for Inactive)
REMARK    1  A    between atoms: C_1  and  C_2
REMARK    2  A    between atoms: C_2  and  N_3
REMARK    3  A    between atoms: C_4  and  C_6
REMARK    4  A    between atoms: C_8  and  N_9
REMARK    5  A    between atoms: N_17  and  C_18
REMARK    6  A    between atoms: C_18  and  C_19
REMARK    7  A    between atoms: C_19  and  C_20
REMARK    8  A    between atoms: C_30  and  O_31
REMARK    9  A    between atoms: C_32  and  O_33
REMARK                            x       y       z     vdW  Elec       q    Type
REMARK                         _______ _______ _______ _____ _____    ______ ____
ROOT
ATOM      1  N   UNL     1       0.941  10.094  20.548  0.00  0.00    +0.000 N 
ATOM      2  C   UNL     1       0.826   9.451  21.752  0.00  0.00    +0.000 A 
ATOM      3  N   UNL     1       1.247   8.199  21.681  0.00  0.00    +0.000 NA
ATOM      4  C   UNL     1       1.665   8.038  20.372  0.00  0.00    +0.000 A 
ATOM      5  C   UNL     1       2.236   6.978  19.654  0.00  0.00    +0.000 A 
ATOM      6  N   UNL     1       2.491   5.743  20.261  0.00  0.00    +0.000 N 
ATOM      7  C   UNL     1       3.039   4.631  19.682  0.00  0.00    +0.000 C 
ATOM      8  O   UNL     1       3.195   3.602  20.333  0.00  0.00    +0.000 OA
ATOM      9  N   UNL     1       3.386   4.739  18.366  0.00  0.00    +0.000 N 
ATOM     10  N   UNL     1       2.554   7.180  18.343  0.00  0.00    +0.000 NA
ATOM     11  C   UNL     1       2.297   8.367  17.783  0.00  0.00    +0.000 A 
ATOM     12  N   UNL     1       1.744   9.442  18.364  0.00  0.00    +0.000 NA
ATOM     13  C   UNL     1       1.464   9.205  19.655  0.00  0.00    +0.000 A 
ATOM     14  H   UNL     1       2.242   5.645  21.237  0.00  0.00    +0.000 HD
ATOM     15  H   UNL     1       3.288   5.663  17.960  0.00  0.00    +0.000 HD
ENDROOT
BRANCH   1  18
ATOM     16  C   UNL     1      -0.428  13.136  21.546  0.00  0.00    +0.000 C 
ATOM     17  O   UNL     1       0.692  12.232  21.501  0.00  0.00    +0.000 OA
ATOM     18  C   UNL     1       0.618  11.478  20.273  0.00  0.00    +0.000 C 
ATOM     19  C   UNL     1      -0.772  11.698  19.673  0.00  0.00    +0.000 C 
ATOM     20  C   UNL     1      -1.109  13.091  20.178  0.00  0.00    +0.000 C 
BRANCH  16  22
ATOM     21  N   UNL     1      -2.136  13.968  23.097  0.00  0.00    +0.000 N 
ATOM     22  C   UNL     1      -1.414  12.861  22.696  0.00  0.00    +0.000 C 
ATOM     23  O   UNL     1      -1.610  11.735  23.145  0.00  0.00    +0.000 OA
ATOM     24  H   UNL     1      -1.683  14.865  22.946  0.00  0.00    +0.000 HD
BRANCH  21  26
ATOM     25  C   UNL     1      -2.939  14.853  25.252  0.00  0.00    +0.000 C 
ATOM     26  C   UNL     1      -3.136  13.845  24.137  0.00  0.00    +0.000 C 
ENDBRANCH  21  26
ENDBRANCH  16  22
BRANCH  19  27
ATOM     27  O   UNL     1      -0.751  11.635  18.248  0.00  0.00    +0.000 OA
ATOM     28  H   UNL     1      -1.448  12.252  17.937  0.00  0.00    +0.000 HD
ENDBRANCH  19  27
BRANCH  20  29
ATOM     29  O   UNL     1      -0.548  14.043  19.249  0.00  0.00    +0.000 OA
ATOM     30  H   UNL     1      -0.784  14.947  19.527  0.00  0.00    +0.000 HD
ENDBRANCH  20  29
ENDBRANCH   1  18
BRANCH   9  31
ATOM     31  C   UNL     1       4.006   3.679  17.604  0.00  0.00    +0.000 C 
BRANCH  31  32
ATOM     32  C   UNL     1       4.965   4.213  16.536  0.00  0.00    +0.000 C 
BRANCH  32  33
ATOM     33  C   UNL     1       5.985   5.157  17.127  0.00  0.00    +0.000 A 
ATOM     34  C   UNL     1       6.887   4.707  18.100  0.00  0.00    +0.000 A 
ATOM     35  C   UNL     1       7.802   5.587  18.680  0.00  0.00    +0.000 A 
ATOM     36  C   UNL     1       7.825   6.926  18.294  0.00  0.00    +0.000 A 
ATOM     37  C   UNL     1       6.931   7.385  17.328  0.00  0.00    +0.000 A 
ATOM     38  C   UNL     1       6.014   6.505  16.746  0.00  0.00    +0.000 A 
ENDBRANCH  32  33
ENDBRANCH  31  32
ENDBRANCH   9  31
TORSDOF 8
ENDMDL
MODEL 3
REMARK VINA RESULT:      -8.4      1.680     10.201
REMARK  Name = 
REMARK  9 active torsions:
REMARK  status: ('A' for Active; 'I' for Inactive)
REMARK    1  A    between atoms: C_1  and  C_2
REMARK    2  A    between atoms: C_2  and  N_3
REMARK    3  A    between atoms: C_4  and  C_6
REMARK    4  A    between atoms: C_8  and  N_9
REMARK    5  A    between atoms: N_17  and  C_18
REMARK    6  A    between atoms: C_18  and  C_19
REMARK    7  A    between atoms: C_19  and  C_20
REMARK    8  A    between atoms: C_30  and  O_31
REMARK    9  A    between atoms: C_32  and  O_33
REMARK                            x       y       z     vdW  Elec       q    Type
REMARK                         _______ _______ _______ _____ _____    ______ ____
ROOT
ATOM      1  N   UNL     1       2.663   6.817  18.665  0.00  0.00    +0.000 N 
ATOM      2  C   UNL     1       2.905   7.555  17.537  0.00  0.00    +0.000 A 
ATOM      3  N   UNL     1       2.394   8.771  17.626  0.00  0.00    +0.000 NA
ATOM      4  C   UNL     1       1.808   8.819  18.878  0.00  0.00    +0.000 A 
ATOM      5  C   UNL     1       1.131   9.811  19.600  0.00  0.00    +0.000 A 
ATOM      6  N   UNL     1       0.913  11.084  19.060  0.00  0.00    +0.000 N 
ATOM      7  C   UNL     1       0.271  12.138  19.650  0.00  0.00    +0.000 C 
ATOM      8  O   UNL     1       0.139  13.201  19.050  0.00  0.00    +0.000 OA
ATOM      9  N   UNL     1      -0.206  11.930  20.912  0.00  0.00    +0.000 N 
ATOM     10  N   UNL     1       0.692   9.513  20.857  0.00  0.00    +0.000 NA
ATOM     11  C   UNL     1       0.908   8.289  21.352  0.00  0.00    +0.000 A 
ATOM     12  N   UNL     1       1.527   7.262  20.751  0.00  0.00    +0.000 NA
ATOM     13  C   UNL     1       1.955   7.605  19.526  0.00  0.00    +0.000 A 
ATOM     14  H   UNL     1       1.263  11.256  18.125  0.00  0.00    +0.000 HD
ATOM     15  H   UNL     1       0.038  11.040  21.333  0.00  0.00    +0.000 HD
ENDROOT
BRANCH   1  18
ATOM     16  C   UNL     1       5.238   4.498  18.994  0.00  0.00    +0.000 C 
ATOM     17  O   UNL     1       4.403   5.518  19.572  0.00  0.00    +0.000 OA
ATOM     18  C   UNL     1       3.112   5.467  18.929  0.00  0.00    +0.000 C 
ATOM     19  C   UNL     1       3.245   4.587  17.685  0.00  0.00    +0.000 C 
ATOM     20  C   UNL     1       4.351   3.631  18.099  0.00  0.00    +0.000 C 
BRANCH  16  22
ATOM     21  N   UNL     1       6.332   6.344  17.805  0.00  0.00    +0.000 N 
ATOM     22  C   UNL     1       6.468   5.040  18.243  0.00  0.00    +0.000 C 
ATOM     23  O   UNL     1       7.512   4.404  18.134  0.00  0.00    +0.000 OA
ATOM     24  H   UNL     1       5.379   6.646  17.619  0.00  0.00    +0.000 HD
BRANCH  21  26
ATOM     25  C   UNL     1       7.891   8.252  17.845  0.00  0.00    +0.000 C 
ATOM     26  C   UNL     1       7.429   7.000  17.125  0.00  0.00    +0.000 C 
ENDBRANCH  21  26
ENDBRANCH  16  22
BRANCH  19  27
ATOM     27  O   UNL     1       2.029   3.903  17.387  0.00  0.00    +0.000 OA
ATOM     28  H   UNL     1       1.485   3.944  18.202  0.00  0.00    +0.000 HD
ENDBRANCH  19  27
BRANCH  20  29
ATOM     29  O   UNL     1       3.741   2.538  18.818  0.00  0.00    +0.000 OA
ATOM     30  H   UNL     1       3.287   1.948  18.188  0.00  0.00    +0.000 HD
ENDBRANCH  20  29
ENDBRANCH   1  18
BRANCH   9  31
ATOM     31  C   UNL     1      -0.881  12.938  21.697  0.00  0.00    +0.000 C 
BRANCH  31  32
ATOM     32  C   UNL     1      -1.535  12.357  22.953  0.00  0.00    +0.000 C 
BRANCH  32  33
ATOM     33  C   UNL     1      -3.027  12.586  22.960  0.00  0.00    +0.000 A 
ATOM     34  C   UNL     1      -3.744  12.550  24.165  0.00  0.00    +0.000 A 
ATOM     35  C   UNL     1      -5.129  12.718  24.171  0.00  0.00    +0.000 A 
ATOM     36  C   UNL     1      -5.813  12.924  22.974  0.00  0.00    +0.000 A 
ATOM     37  C   UNL     1      -5.111  12.959  21.771  0.00  0.00    +0.000 A 
ATOM     38  C   UNL     1      -3.724  12.791  21.763  0.00  0.00    +0.000 A 
ENDBRANCH  32  33
ENDBRANCH  31  32
ENDBRANCH   9  31
TORSDOF 8
ENDMDL
MODEL 4
REMARK VINA RESULT:      -8.4      1.859     10.447
REMARK  Name = 
REMARK  9 active torsions:
REMARK  status: ('A' for Active; 'I' for Inactive)
REMARK    1  A    between atoms: C_1  and  C_2
REMARK    2  A    between atoms: C_2  and  N_3
REMARK    3  A    between atoms: C_4  and  C_6
REMARK    4  A    between atoms: C_8  and  N_9
REMARK    5  A    between atoms: N_17  and  C_18
REMARK    6  A    between atoms: C_18  and  C_19
REMARK    7  A    between atoms: C_19  and  C_20
REMARK    8  A    between atoms: C_30  and  O_31
REMARK    9  A    between atoms: C_32  and  O_33
REMARK                            x       y       z     vdW  Elec       q    Type
REMARK                         _______ _______ _______ _____ _____    ______ ____
ROOT
ATOM      1  N   UNL     1       2.829   6.898  18.860  0.00  0.00    +0.000 N 
ATOM      2  C   UNL     1       3.062   7.486  17.646  0.00  0.00    +0.000 A 
ATOM      3  N   UNL     1       2.424   8.638  17.528  0.00  0.00    +0.000 NA
ATOM      4  C   UNL     1       1.761   8.803  18.730  0.00  0.00    +0.000 A 
ATOM      5  C   UNL     1       0.942   9.807  19.263  0.00  0.00    +0.000 A 
ATOM      6  N   UNL     1       0.628  10.956  18.527  0.00  0.00    +0.000 N 
ATOM      7  C   UNL     1      -0.154  12.007  18.922  0.00  0.00    +0.000 C 
ATOM      8  O   UNL     1      -0.357  12.951  18.164  0.00  0.00    +0.000 OA
ATOM      9  N   UNL     1      -0.683  11.933  20.178  0.00  0.00    +0.000 N 
ATOM     10  N   UNL     1       0.461   9.649  20.529  0.00  0.00    +0.000 NA
ATOM     11  C   UNL     1       0.770   8.540  21.212  0.00  0.00    +0.000 A 
ATOM     12  N   UNL     1       1.527   7.512  20.802  0.00  0.00    +0.000 NA
ATOM     13  C   UNL     1       1.992   7.719  19.560  0.00  0.00    +0.000 A 
ATOM     14  H   UNL     1       1.015  11.029  17.594  0.00  0.00    +0.000 HD
ATOM     15  H   UNL     1      -0.376  11.146  20.739  0.00  0.00    +0.000 HD
ENDROOT
BRANCH   1  18
ATOM     16  C   UNL     1       5.466   4.630  18.994  0.00  0.00    +0.000 C 
ATOM     17  O   UNL     1       4.824   5.819  19.488  0.00  0.00    +0.000 OA
ATOM     18  C   UNL     1       3.397   5.658  19.346  0.00  0.00    +0.000 C 
ATOM     19  C   UNL     1       3.152   4.451  18.439  0.00  0.00    +0.000 C 
ATOM     20  C   UNL     1       4.373   3.594  18.731  0.00  0.00    +0.000 C 
BRANCH  16  22
ATOM     21  N   UNL     1       6.097   4.005  16.707  0.00  0.00    +0.000 N 
ATOM     22  C   UNL     1       6.357   4.861  17.760  0.00  0.00    +0.000 C 
ATOM     23  O   UNL     1       7.156   5.791  17.684  0.00  0.00    +0.000 OA
ATOM     24  H   UNL     1       5.715   3.099  16.965  0.00  0.00    +0.000 HD
BRANCH  21  26
ATOM     25  C   UNL     1       5.917   4.114  14.252  0.00  0.00    +0.000 C 
ATOM     26  C   UNL     1       6.827   4.140  15.464  0.00  0.00    +0.000 C 
ENDBRANCH  21  26
ENDBRANCH  16  22
BRANCH  19  27
ATOM     27  O   UNL     1       1.937   3.779  18.767  0.00  0.00    +0.000 OA
ATOM     28  H   UNL     1       2.166   2.831  18.868  0.00  0.00    +0.000 HD
ENDBRANCH  19  27
BRANCH  20  29
ATOM     29  O   UNL     1       4.079   2.791  19.894  0.00  0.00    +0.000 OA
ATOM     30  H   UNL     1       3.116   2.775  20.043  0.00  0.00    +0.000 HD
ENDBRANCH  20  29
ENDBRANCH   1  18
BRANCH   9  31
ATOM     31  C   UNL     1      -1.505  12.963  20.771  0.00  0.00    +0.000 C 
BRANCH  31  32
ATOM     32  C   UNL     1      -2.999  12.728  20.529  0.00  0.00    +0.000 C 
BRANCH  32  33
ATOM     33  C   UNL     1      -3.783  12.761  21.819  0.00  0.00    +0.000 A 
ATOM     34  C   UNL     1      -3.144  12.516  23.043  0.00  0.00    +0.000 A 
ATOM     35  C   UNL     1      -3.873  12.503  24.233  0.00  0.00    +0.000 A 
ATOM     36  C   UNL     1      -5.248  12.732  24.212  0.00  0.00    +0.000 A 
ATOM     37  C   UNL     1      -5.893  12.974  23.001  0.00  0.00    +0.000 A 
ATOM     38  C   UNL     1      -5.165  12.988  21.809  0.00  0.00    +0.000 A 
ENDBRANCH  32  33
ENDBRANCH  31  32
ENDBRANCH   9  31
TORSDOF 8
ENDMDL
MODEL 5
REMARK VINA RESULT:      -8.4      2.981      5.206
REMARK  Name = 
REMARK  9 active torsions:
REMARK  status: ('A' for Active; 'I' for Inactive)
REMARK    1  A    between atoms: C_1  and  C_2
REMARK    2  A    between atoms: C_2  and  N_3
REMARK    3  A    between atoms: C_4  and  C_6
REMARK    4  A    between atoms: C_8  and  N_9
REMARK    5  A    between atoms: N_17  and  C_18
REMARK    6  A    between atoms: C_18  and  C_19
REMARK    7  A    between atoms: C_19  and  C_20
REMARK    8  A    between atoms: C_30  and  O_31
REMARK    9  A    between atoms: C_32  and  O_33
REMARK                            x       y       z     vdW  Elec       q    Type
REMARK                         _______ _______ _______ _____ _____    ______ ____
ROOT
ATOM      1  N   UNL     1      -1.684  12.357  22.240  0.00  0.00    +0.000 N 
ATOM      2  C   UNL     1      -1.878  12.923  21.008  0.00  0.00    +0.000 A 
ATOM      3  N   UNL     1      -1.191  12.297  20.067  0.00  0.00    +0.000 NA
ATOM      4  C   UNL     1      -0.537  11.272  20.726  0.00  0.00    +0.000 A 
ATOM      5  C   UNL     1       0.316  10.237  20.317  0.00  0.00    +0.000 A 
ATOM      6  N   UNL     1       0.686  10.087  18.976  0.00  0.00    +0.000 N 
ATOM      7  C   UNL     1       1.506   9.130  18.443  0.00  0.00    +0.000 C 
ATOM      8  O   UNL     1       1.757   9.124  17.241  0.00  0.00    +0.000 OA
ATOM      9  N   UNL     1       2.015   8.212  19.315  0.00  0.00    +0.000 N 
ATOM     10  N   UNL     1       0.774   9.364  21.260  0.00  0.00    +0.000 NA
ATOM     11  C   UNL     1       0.411   9.530  22.536  0.00  0.00    +0.000 A 
ATOM     12  N   UNL     1      -0.383  10.485  23.042  0.00  0.00    +0.000 NA
ATOM     13  C   UNL     1      -0.823  11.309  22.080  0.00  0.00    +0.000 A 
ATOM     14  H   UNL     1       0.315  10.758  18.314  0.00  0.00    +0.000 HD
ATOM     15  H   UNL     1       1.668   8.269  20.266  0.00  0.00    +0.000 HD
ENDROOT
BRANCH   1  18
ATOM     16  C   UNL     1      -4.545  12.879  24.153  0.00  0.00    +0.000 C 
ATOM     17  O   UNL     1      -3.521  11.993  23.665  0.00  0.00    +0.000 OA
ATOM     18  C   UNL     1      -2.309  12.755  23.483  0.00  0.00    +0.000 C 
ATOM     19  C   UNL     1      -2.674  14.238  23.563  0.00  0.00    +0.000 C 
ATOM     20  C   UNL     1      -3.875  14.210  24.495  0.00  0.00    +0.000 C 
BRANCH  16  22
ATOM     21  N   UNL     1      -5.632  12.325  22.025  0.00  0.00    +0.000 N 
ATOM     22  C   UNL     1      -5.735  13.057  23.193  0.00  0.00    +0.000 C 
ATOM     23  O   UNL     1      -6.731  13.711  23.486  0.00  0.00    +0.000 OA
ATOM     24  H   UNL     1      -4.685  12.123  21.717  0.00  0.00    +0.000 HD
BRANCH  21  26
ATOM     25  C   UNL     1      -6.473  11.393  19.904  0.00  0.00    +0.000 C 
ATOM     26  C   UNL     1      -6.703  12.358  21.051  0.00  0.00    +0.000 C 
ENDBRANCH  21  26
ENDBRANCH  16  22
BRANCH  19  27
ATOM     27  O   UNL     1      -1.604  15.019  24.093  0.00  0.00    +0.000 OA
ATOM     28  H   UNL     1      -1.998  15.878  24.358  0.00  0.00    +0.000 HD
ENDBRANCH  19  27
BRANCH  20  29
ATOM     29  O   UNL     1      -3.380  14.250  25.850  0.00  0.00    +0.000 OA
ATOM     30  H   UNL     1      -2.604  14.837  25.897  0.00  0.00    +0.000 HD
ENDBRANCH  20  29
ENDBRANCH   1  18
BRANCH   9  31
ATOM     31  C   UNL     1       2.871   7.115  18.924  0.00  0.00    +0.000 C 
BRANCH  31  32
ATOM     32  C   UNL     1       2.937   6.019  19.992  0.00  0.00    +0.000 C 
BRANCH  32  33
ATOM     33  C   UNL     1       2.210   4.770  19.554  0.00  0.00    +0.000 A 
ATOM     34  C   UNL     1       1.309   4.134  20.419  0.00  0.00    +0.000 A 
ATOM     35  C   UNL     1       0.668   2.955  20.035  0.00  0.00    +0.000 A 
ATOM     36  C   UNL     1       0.921   2.400  18.781  0.00  0.00    +0.000 A 
ATOM     37  C   UNL     1       1.817   3.023  17.914  0.00  0.00    +0.000 A 
ATOM     38  C   UNL     1       2.459   4.203  18.297  0.00  0.00    +0.000 A 
ENDBRANCH  32  33
ENDBRANCH  31  32
ENDBRANCH   9  31
TORSDOF 8
ENDMDL
MODEL 6
REMARK VINA RESULT:      -8.3      2.202      4.242
REMARK  Name = 
REMARK  9 active torsions:
REMARK  status: ('A' for Active; 'I' for Inactive)
REMARK    1  A    between atoms: C_1  and  C_2
REMARK    2  A    between atoms: C_2  and  N_3
REMARK    3  A    between atoms: C_4  and  C_6
REMARK    4  A    between atoms: C_8  and  N_9
REMARK    5  A    between atoms: N_17  and  C_18
REMARK    6  A    between atoms: C_18  and  C_19
REMARK    7  A    between atoms: C_19  and  C_20
REMARK    8  A    between atoms: C_30  and  O_31
REMARK    9  A    between atoms: C_32  and  O_33
REMARK                            x       y       z     vdW  Elec       q    Type
REMARK                         _______ _______ _______ _____ _____    ______ ____
ROOT
ATOM      1  N   UNL     1       0.379  10.075  19.916  0.00  0.00    +0.000 N 
ATOM      2  C   UNL     1       0.776  10.720  18.775  0.00  0.00    +0.000 A 
ATOM      3  N   UNL     1       1.667  10.017  18.098  0.00  0.00    +0.000 NA
ATOM      4  C   UNL     1       1.839   8.858  18.833  0.00  0.00    +0.000 A 
ATOM      5  C   UNL     1       2.608   7.699  18.661  0.00  0.00    +0.000 A 
ATOM      6  N   UNL     1       3.444   7.539  17.551  0.00  0.00    +0.000 N 
ATOM      7  C   UNL     1       4.244   6.467  17.261  0.00  0.00    +0.000 C 
ATOM      8  O   UNL     1       4.942   6.466  16.251  0.00  0.00    +0.000 OA
ATOM      9  N   UNL     1       4.219   5.432  18.150  0.00  0.00    +0.000 N 
ATOM     10  N   UNL     1       2.516   6.714  19.601  0.00  0.00    +0.000 NA
ATOM     11  C   UNL     1       1.713   6.890  20.656  0.00  0.00    +0.000 A 
ATOM     12  N   UNL     1       0.947   7.956  20.931  0.00  0.00    +0.000 NA
ATOM     13  C   UNL     1       1.056   8.891  19.974  0.00  0.00    +0.000 A 
ATOM     14  H   UNL     1       3.474   8.297  16.879  0.00  0.00    +0.000 HD
ATOM     15  H   UNL     1       3.541   5.513  18.900  0.00  0.00    +0.000 HD
ENDROOT
BRANCH   1  18
ATOM     16  C   UNL     1      -1.689  12.584  21.161  0.00  0.00    +0.000 C 
ATOM     17  O   UNL     1      -1.461  11.507  20.232  0.00  0.00    +0.000 OA
ATOM     18  C   UNL     1      -0.611  10.530  20.869  0.00  0.00    +0.000 C 
ATOM     19  C   UNL     1      -0.030  11.168  22.131  0.00  0.00    +0.000 C 
ATOM     20  C   UNL     1      -1.127  12.148  22.515  0.00  0.00    +0.000 C 
BRANCH  16  22
ATOM     21  N   UNL     1      -0.318  13.867  19.583  0.00  0.00    +0.000 N 
ATOM     22  C   UNL     1      -1.121  13.940  20.705  0.00  0.00    +0.000 C 
ATOM     23  O   UNL     1      -1.437  15.002  21.233  0.00  0.00    +0.000 OA
ATOM     24  H   UNL     1       0.160  12.980  19.444  0.00  0.00    +0.000 HD
BRANCH  21  26
ATOM     25  C   UNL     1       1.725  14.935  18.711  0.00  0.00    +0.000 C 
ATOM     26  C   UNL     1       0.246  15.073  19.014  0.00  0.00    +0.000 C 
ENDBRANCH  21  26
ENDBRANCH  16  22
BRANCH  19  27
ATOM     27  O   UNL     1       0.206  10.202  23.154  0.00  0.00    +0.000 OA
ATOM     28  H   UNL     1       0.105   9.323  22.729  0.00  0.00    +0.000 HD
ENDBRANCH  19  27
BRANCH  20  29
ATOM     29  O   UNL     1      -2.096  11.432  23.312  0.00  0.00    +0.000 OA
ATOM     30  H   UNL     1      -1.909  11.576  24.257  0.00  0.00    +0.000 HD
ENDBRANCH  20  29
ENDBRANCH   1  18
BRANCH   9  31
ATOM     31  C   UNL     1       4.973   4.210  17.989  0.00  0.00    +0.000 C 
BRANCH  31  32
ATOM     32  C   UNL     1       4.075   2.971  17.959  0.00  0.00    +0.000 C 
BRANCH  32  33
ATOM     33  C   UNL     1       3.068   2.986  19.083  0.00  0.00    +0.000 A 
ATOM     34  C   UNL     1       3.477   2.758  20.405  0.00  0.00    +0.000 A 
ATOM     35  C   UNL     1       2.544   2.728  21.442  0.00  0.00    +0.000 A 
ATOM     36  C   UNL     1       1.191   2.925  21.169  0.00  0.00    +0.000 A 
ATOM     37  C   UNL     1       0.772   3.151  19.859  0.00  0.00    +0.000 A 
ATOM     38  C   UNL     1       1.705   3.181  18.820  0.00  0.00    +0.000 A 
ENDBRANCH  32  33
ENDBRANCH  31  32
ENDBRANCH   9  31
TORSDOF 8
ENDMDL
MODEL 7
REMARK VINA RESULT:      -8.2      1.847      2.667
REMARK  Name = 
REMARK  9 active torsions:
REMARK  status: ('A' for Active; 'I' for Inactive)
REMARK    1  A    between atoms: C_1  and  C_2
REMARK    2  A    between atoms: C_2  and  N_3
REMARK    3  A    between atoms: C_4  and  C_6
REMARK    4  A    between atoms: C_8  and  N_9
REMARK    5  A    between atoms: N_17  and  C_18
REMARK    6  A    between atoms: C_18  and  C_19
REMARK    7  A    between atoms: C_19  and  C_20
REMARK    8  A    between atoms: C_30  and  O_31
REMARK    9  A    between atoms: C_32  and  O_33
REMARK                            x       y       z     vdW  Elec       q    Type
REMARK                         _______ _______ _______ _____ _____    ______ ____
ROOT
ATOM      1  N   UNL     1       0.747  10.319  20.465  0.00  0.00    +0.000 N 
ATOM      2  C   UNL     1       0.646   9.720  21.692  0.00  0.00    +0.000 A 
ATOM      3  N   UNL     1       1.093   8.476  21.669  0.00  0.00    +0.000 NA
ATOM      4  C   UNL     1       1.515   8.273  20.367  0.00  0.00    +0.000 A 
ATOM      5  C   UNL     1       2.109   7.199  19.690  0.00  0.00    +0.000 A 
ATOM      6  N   UNL     1       2.389   5.993  20.343  0.00  0.00    +0.000 N 
ATOM      7  C   UNL     1       2.962   4.872  19.807  0.00  0.00    +0.000 C 
ATOM      8  O   UNL     1       3.139   3.873  20.498  0.00  0.00    +0.000 OA
ATOM      9  N   UNL     1       3.307   4.937  18.488  0.00  0.00    +0.000 N 
ATOM     10  N   UNL     1       2.422   7.357  18.372  0.00  0.00    +0.000 NA
ATOM     11  C   UNL     1       2.141   8.516  17.767  0.00  0.00    +0.000 A 
ATOM     12  N   UNL     1       1.564   9.600  18.307  0.00  0.00    +0.000 NA
ATOM     13  C   UNL     1       1.289   9.407  19.606  0.00  0.00    +0.000 A 
ATOM     14  H   UNL     1       2.142   5.929  21.323  0.00  0.00    +0.000 HD
ATOM     15  H   UNL     1       3.189   5.843  18.047  0.00  0.00    +0.000 HD
ENDROOT
BRANCH   1  18
ATOM     16  C   UNL     1      -1.566  12.649  19.309  0.00  0.00    +0.000 C 
ATOM     17  O   UNL     1      -1.011  11.882  20.393  0.00  0.00    +0.000 OA
ATOM     18  C   UNL     1       0.395  11.684  20.136  0.00  0.00    +0.000 C 
ATOM     19  C   UNL     1       0.663  12.076  18.682  0.00  0.00    +0.000 C 
ATOM     20  C   UNL     1      -0.401  13.134  18.446  0.00  0.00    +0.000 C 
BRANCH  16  22
ATOM     21  N   UNL     1      -2.365  11.859  17.129  0.00  0.00    +0.000 N 
ATOM     22  C   UNL     1      -2.628  11.899  18.484  0.00  0.00    +0.000 C 
ATOM     23  O   UNL     1      -3.569  11.303  19.001  0.00  0.00    +0.000 OA
ATOM     24  H   UNL     1      -1.813  12.632  16.767  0.00  0.00    +0.000 HD
BRANCH  21  26
ATOM     25  C   UNL     1      -2.601   9.921  15.625  0.00  0.00    +0.000 C 
ATOM     26  C   UNL     1      -3.254  11.144  16.237  0.00  0.00    +0.000 C 
ENDBRANCH  21  26
ENDBRANCH  16  22
BRANCH  19  27
ATOM     27  O   UNL     1       1.981  12.593  18.506  0.00  0.00    +0.000 OA
ATOM     28  H   UNL     1       1.888  13.569  18.457  0.00  0.00    +0.000 HD
ENDBRANCH  19  27
BRANCH  20  29
ATOM     29  O   UNL     1       0.131  14.400  18.894  0.00  0.00    +0.000 OA
ATOM     30  H   UNL     1      -0.600  14.974  19.187  0.00  0.00    +0.000 HD
ENDBRANCH  20  29
ENDBRANCH   1  18
BRANCH   9  31
ATOM     31  C   UNL     1       3.949   3.862  17.767  0.00  0.00    +0.000 C 
BRANCH  31  32
ATOM     32  C   UNL     1       4.931   4.375  16.710  0.00  0.00    +0.000 C 
BRANCH  32  33
ATOM     33  C   UNL     1       5.963   5.299  17.312  0.00  0.00    +0.000 A 
ATOM     34  C   UNL     1       6.117   6.603  16.822  0.00  0.00    +0.000 A 
ATOM     35  C   UNL     1       7.099   7.446  17.345  0.00  0.00    +0.000 A 
ATOM     36  C   UNL     1       7.937   6.994  18.363  0.00  0.00    +0.000 A 
ATOM     37  C   UNL     1       7.794   5.698  18.856  0.00  0.00    +0.000 A 
ATOM     38  C   UNL     1       6.812   4.853  18.334  0.00  0.00    +0.000 A 
ENDBRANCH  32  33
ENDBRANCH  31  32
ENDBRANCH   9  31
TORSDOF 8
ENDMDL
MODEL 8
REMARK VINA RESULT:      -8.2      2.189     10.378
REMARK  Name = 
REMARK  9 active torsions:
REMARK  status: ('A' for Active; 'I' for Inactive)
REMARK    1  A    between atoms: C_1  and  C_2
REMARK    2  A    between atoms: C_2  and  N_3
REMARK    3  A    between atoms: C_4  and  C_6
REMARK    4  A    between atoms: C_8  and  N_9
REMARK    5  A    between atoms: N_17  and  C_18
REMARK    6  A    between atoms: C_18  and  C_19
REMARK    7  A    between atoms: C_19  and  C_20
REMARK    8  A    between atoms: C_30  and  O_31
REMARK    9  A    between atoms: C_32  and  O_33
REMARK                            x       y       z     vdW  Elec       q    Type
REMARK                         _______ _______ _______ _____ _____    ______ ____
ROOT
ATOM      1  N   UNL     1       2.457   7.156  19.215  0.00  0.00    +0.000 N 
ATOM      2  C   UNL     1       2.819   7.703  18.012  0.00  0.00    +0.000 A 
ATOM      3  N   UNL     1       2.224   8.865  17.803  0.00  0.00    +0.000 NA
ATOM      4  C   UNL     1       1.455   9.080  18.933  0.00  0.00    +0.000 A 
ATOM      5  C   UNL     1       0.615  10.118  19.358  0.00  0.00    +0.000 A 
ATOM      6  N   UNL     1       0.402  11.252  18.566  0.00  0.00    +0.000 N 
ATOM      7  C   UNL     1      -0.388  12.331  18.856  0.00  0.00    +0.000 C 
ATOM      8  O   UNL     1      -0.494  13.257  18.057  0.00  0.00    +0.000 OA
ATOM      9  N   UNL     1      -1.035  12.305  20.058  0.00  0.00    +0.000 N 
ATOM     10  N   UNL     1       0.013  10.007  20.577  0.00  0.00    +0.000 NA
ATOM     11  C   UNL     1       0.228   8.912  21.316  0.00  0.00    +0.000 A 
ATOM     12  N   UNL     1       0.994   7.856  21.006  0.00  0.00    +0.000 NA
ATOM     13  C   UNL     1       1.579   8.015  19.810  0.00  0.00    +0.000 A 
ATOM     14  H   UNL     1       0.876  11.288  17.672  0.00  0.00    +0.000 HD
ATOM     15  H   UNL     1      -0.801  11.528  20.666  0.00  0.00    +0.000 HD
ENDROOT
BRANCH   1  18
ATOM     16  C   UNL     1       4.309   4.221  18.933  0.00  0.00    +0.000 C 
ATOM     17  O   UNL     1       4.247   5.628  19.233  0.00  0.00    +0.000 OA
ATOM     18  C   UNL     1       2.945   5.918  19.785  0.00  0.00    +0.000 C 
ATOM     19  C   UNL     1       2.050   4.705  19.529  0.00  0.00    +0.000 C 
ATOM     20  C   UNL     1       3.060   3.570  19.527  0.00  0.00    +0.000 C 
BRANCH  16  22
ATOM     21  N   UNL     1       5.773   4.008  16.977  0.00  0.00    +0.000 N 
ATOM     22  C   UNL     1       4.474   3.904  17.436  0.00  0.00    +0.000 C 
ATOM     23  O   UNL     1       3.550   3.495  16.739  0.00  0.00    +0.000 OA
ATOM     24  H   UNL     1       6.365   4.661  17.483  0.00  0.00    +0.000 HD
BRANCH  21  26
ATOM     25  C   UNL     1       6.136   4.923  14.717  0.00  0.00    +0.000 C 
ATOM     26  C   UNL     1       6.084   3.690  15.599  0.00  0.00    +0.000 C 
ENDBRANCH  21  26
ENDBRANCH  16  22
BRANCH  19  27
ATOM     27  O   UNL     1       1.067   4.545  20.551  0.00  0.00    +0.000 OA
ATOM     28  H   UNL     1       0.212   4.819  20.155  0.00  0.00    +0.000 HD
ENDBRANCH  19  27
BRANCH  20  29
ATOM     29  O   UNL     1       3.252   3.151  20.895  0.00  0.00    +0.000 OA
ATOM     30  H   UNL     1       2.651   3.651  21.476  0.00  0.00    +0.000 HD
ENDBRANCH  20  29
ENDBRANCH   1  18
BRANCH   9  31
ATOM     31  C   UNL     1      -1.882  13.371  20.542  0.00  0.00    +0.000 C 
BRANCH  31  32
ATOM     32  C   UNL     1      -3.369  13.013  20.467  0.00  0.00    +0.000 C 
BRANCH  32  33
ATOM     33  C   UNL     1      -3.987  12.913  21.840  0.00  0.00    +0.000 A 
ATOM     34  C   UNL     1      -3.209  12.529  22.941  0.00  0.00    +0.000 A 
ATOM     35  C   UNL     1      -3.786  12.393  24.205  0.00  0.00    +0.000 A 
ATOM     36  C   UNL     1      -5.147  12.639  24.381  0.00  0.00    +0.000 A 
ATOM     37  C   UNL     1      -5.930  13.018  23.293  0.00  0.00    +0.000 A 
ATOM     38  C   UNL     1      -5.354  13.155  22.028  0.00  0.00    +0.000 A 
ENDBRANCH  32  33
ENDBRANCH  31  32
ENDBRANCH   9  31
TORSDOF 8
ENDMDL
MODEL 9
REMARK VINA RESULT:      -8.2      2.198      4.032
REMARK  Name = 
REMARK  9 active torsions:
REMARK  status: ('A' for Active; 'I' for Inactive)
REMARK    1  A    between atoms: C_1  and  C_2
REMARK    2  A    between atoms: C_2  and  N_3
REMARK    3  A    between atoms: C_4  and  C_6
REMARK    4  A    between atoms: C_8  and  N_9
REMARK    5  A    between atoms: N_17  and  C_18
REMARK    6  A    between atoms: C_18  and  C_19
REMARK    7  A    between atoms: C_19  and  C_20
REMARK    8  A    between atoms: C_30  and  O_31
REMARK    9  A    between atoms: C_32  and  O_33
REMARK                            x       y       z     vdW  Elec       q    Type
REMARK                         _______ _______ _______ _____ _____    ______ ____
ROOT
ATOM      1  N   UNL     1       0.509  10.161  19.855  0.00  0.00    +0.000 N 
ATOM      2  C   UNL     1       0.948  10.796  18.724  0.00  0.00    +0.000 A 
ATOM      3  N   UNL     1       1.818  10.059  18.054  0.00  0.00    +0.000 NA
ATOM      4  C   UNL     1       1.930   8.889  18.784  0.00  0.00    +0.000 A 
ATOM      5  C   UNL     1       2.650   7.699  18.615  0.00  0.00    +0.000 A 
ATOM      6  N   UNL     1       3.495   7.510  17.515  0.00  0.00    +0.000 N 
ATOM      7  C   UNL     1       4.252   6.407  17.229  0.00  0.00    +0.000 C 
ATOM      8  O   UNL     1       4.963   6.382  16.228  0.00  0.00    +0.000 OA
ATOM      9  N   UNL     1       4.170   5.368  18.111  0.00  0.00    +0.000 N 
ATOM     10  N   UNL     1       2.503   6.713  19.547  0.00  0.00    +0.000 NA
ATOM     11  C   UNL     1       1.694   6.918  20.592  0.00  0.00    +0.000 A 
ATOM     12  N   UNL     1       0.971   8.014  20.864  0.00  0.00    +0.000 NA
ATOM     13  C   UNL     1       1.133   8.948  19.915  0.00  0.00    +0.000 A 
ATOM     14  H   UNL     1       3.566   8.270  16.849  0.00  0.00    +0.000 HD
ATOM     15  H   UNL     1       3.486   5.473  18.852  0.00  0.00    +0.000 HD
ENDROOT
BRANCH   1  18
ATOM     16  C   UNL     1      -1.378  12.777  21.167  0.00  0.00    +0.000 C 
ATOM     17  O   UNL     1      -1.210  11.735  20.188  0.00  0.00    +0.000 OA
ATOM     18  C   UNL     1      -0.474  10.653  20.797  0.00  0.00    +0.000 C 
ATOM     19  C   UNL     1       0.111  11.169  22.113  0.00  0.00    +0.000 C 
ATOM     20  C   UNL     1      -0.910  12.222  22.512  0.00  0.00    +0.000 C 
BRANCH  16  22
ATOM     21  N   UNL     1      -1.328  14.840  19.841  0.00  0.00    +0.000 N 
ATOM     22  C   UNL     1      -0.675  14.099  20.807  0.00  0.00    +0.000 C 
ATOM     23  O   UNL     1       0.321  14.502  21.400  0.00  0.00    +0.000 OA
ATOM     24  H   UNL     1      -1.892  14.305  19.186  0.00  0.00    +0.000 HD
BRANCH  21  26
ATOM     25  C   UNL     1      -1.844  17.230  19.535  0.00  0.00    +0.000 C 
ATOM     26  C   UNL     1      -0.806  16.129  19.440  0.00  0.00    +0.000 C 
ENDBRANCH  21  26
ENDBRANCH  16  22
BRANCH  19  27
ATOM     27  O   UNL     1       0.221  10.133  23.087  0.00  0.00    +0.000 OA
ATOM     28  H   UNL     1      -0.468  10.317  23.761  0.00  0.00    +0.000 HD
ENDBRANCH  19  27
BRANCH  20  29
ATOM     29  O   UNL     1      -1.968  11.555  23.234  0.00  0.00    +0.000 OA
ATOM     30  H   UNL     1      -1.588  10.857  23.798  0.00  0.00    +0.000 HD
ENDBRANCH  20  29
ENDBRANCH   1  18
BRANCH   9  31
ATOM     31  C   UNL     1       4.873   4.116  17.952  0.00  0.00    +0.000 C 
BRANCH  31  32
ATOM     32  C   UNL     1       3.922   2.917  17.895  0.00  0.00    +0.000 C 
BRANCH  32  33
ATOM     33  C   UNL     1       2.975   2.901  19.070  0.00  0.00    +0.000 A 
ATOM     34  C   UNL     1       1.607   3.144  18.881  0.00  0.00    +0.000 A 
ATOM     35  C   UNL     1       0.735   3.174  19.970  0.00  0.00    +0.000 A 
ATOM     36  C   UNL     1       1.220   2.962  21.260  0.00  0.00    +0.000 A 
ATOM     37  C   UNL     1       2.579   2.722  21.459  0.00  0.00    +0.000 A 
ATOM     38  C   UNL     1       3.453   2.691  20.370  0.00  0.00    +0.000 A 
ENDBRANCH  32  33
ENDBRANCH  31  32
ENDBRANCH   9  31
TORSDOF 8
ENDMDL
