MODEL 1
REMARK VINA RESULT:      -7.0      0.000      0.000
REMARK  Name = 
REMARK  7 active torsions:
REMARK  status: ('A' for Active; 'I' for Inactive)
REMARK    1  A    between atoms: C_1  and  O_2
REMARK    2  A    between atoms: O_2  and  C_3
REMARK    3  A    between atoms: C_6  and  C_7
REMARK    4  A    between atoms: C_7  and  C_9
REMARK    5  A    between atoms: C_10  and  C_11
REMARK    6  A    between atoms: N_12  and  C_13
REMARK    7  A    between atoms: N_16  and  C_17
REMARK                            x       y       z     vdW  Elec       q    Type
REMARK                         _______ _______ _______ _____ _____    ______ ____
ROOT
ATOM      1  C   UNL     1       4.507   4.746  18.997  0.00  0.00    +0.000 A 
ATOM      2  C   UNL     1       3.881   3.699  19.586  0.00  0.00    +0.000 A 
ATOM      3  C   UNL     1       4.454   2.295  19.651  0.00  0.00    +0.000 C 
ATOM      4  N   UNL     1       2.627   3.878  20.194  0.00  0.00    +0.000 N 
ATOM      5  C   UNL     1       1.885   2.786  20.818  0.00  0.00    +0.000 C 
ATOM      6  C   UNL     1       1.995   5.118  20.286  0.00  0.00    +0.000 A 
ATOM      7  O   UNL     1       0.908   5.251  20.858  0.00  0.00    +0.000 OA
ATOM      8  N   UNL     1       2.645   6.184  19.705  0.00  0.00    +0.000 N 
ATOM      9  C   UNL     1       2.034   7.498  19.741  0.00  0.00    +0.000 C 
ATOM     10  C   UNL     1       3.769   6.037  18.919  0.00  0.00    +0.000 A 
ATOM     11  O   UNL     1       4.151   6.943  18.174  0.00  0.00    +0.000 OA
ENDROOT
BRANCH   1  12
ATOM     12  C   UNL     1       5.855   4.620  18.333  0.00  0.00    +0.000 C 
ATOM     13  O   UNL     1       6.891   4.545  18.990  0.00  0.00    +0.000 OA
BRANCH  12  17
ATOM     14  C   UNL     1       6.414   4.249  14.084  0.00  0.00    +0.000 A 
ATOM     15  C   UNL     1       7.401   4.801  14.900  0.00  0.00    +0.000 A 
ATOM     16  C   UNL     1       7.191   4.925  16.275  0.00  0.00    +0.000 A 
ATOM     17  C   UNL     1       5.975   4.528  16.847  0.00  0.00    +0.000 A 
ATOM     18  C   UNL     1       4.953   4.065  16.009  0.00  0.00    +0.000 A 
ATOM     19  C   UNL     1       5.185   3.893  14.639  0.00  0.00    +0.000 A 
BRANCH  14  21
ATOM     20  C   UNL     1       6.056   3.120  12.042  0.00  0.00    +0.000 C 
ATOM     21  O   UNL     1       6.745   4.138  12.763  0.00  0.00    +0.000 OA
ENDBRANCH  14  21
ENDBRANCH  12  17
ENDBRANCH   1  12
TORSDOF 3
ENDMDL
MODEL 2
REMARK VINA RESULT:      -7.0      1.167      2.679
REMARK  Name = 
REMARK  7 active torsions:
REMARK  status: ('A' for Active; 'I' for Inactive)
REMARK    1  A    between atoms: C_1  and  O_2
REMARK    2  A    between atoms: O_2  and  C_3
REMARK    3  A    between atoms: C_6  and  C_7
REMARK    4  A    between atoms: C_7  and  C_9
REMARK    5  A    between atoms: C_10  and  C_11
REMARK    6  A    between atoms: N_12  and  C_13
REMARK    7  A    between atoms: N_16  and  C_17
REMARK                            x       y       z     vdW  Elec       q    Type
REMARK                         _______ _______ _______ _____ _____    ______ ____
ROOT
ATOM      1  C   UNL     1       5.045   4.836  18.522  0.00  0.00    +0.000 A 
ATOM      2  C   UNL     1       4.326   5.979  18.419  0.00  0.00    +0.000 A 
ATOM      3  C   UNL     1       4.752   7.178  17.591  0.00  0.00    +0.000 C 
ATOM      4  N   UNL     1       3.102   6.105  19.096  0.00  0.00    +0.000 N 
ATOM      5  C   UNL     1       2.293   7.321  19.053  0.00  0.00    +0.000 C 
ATOM      6  C   UNL     1       2.532   5.072  19.841  0.00  0.00    +0.000 A 
ATOM      7  O   UNL     1       1.436   5.200  20.396  0.00  0.00    +0.000 OA
ATOM      8  N   UNL     1       3.256   3.904  19.924  0.00  0.00    +0.000 N 
ATOM      9  C   UNL     1       2.736   2.797  20.703  0.00  0.00    +0.000 C 
ATOM     10  C   UNL     1       4.549   3.789  19.459  0.00  0.00    +0.000 A 
ATOM     11  O   UNL     1       5.274   2.855  19.808  0.00  0.00    +0.000 OA
ENDROOT
BRANCH   1  12
ATOM     12  C   UNL     1       6.362   4.637  17.816  0.00  0.00    +0.000 C 
ATOM     13  O   UNL     1       7.426   4.610  18.432  0.00  0.00    +0.000 OA
BRANCH  12  17
ATOM     14  C   UNL     1       6.287   4.037  13.557  0.00  0.00    +0.000 A 
ATOM     15  C   UNL     1       5.363   3.412  14.394  0.00  0.00    +0.000 A 
ATOM     16  C   UNL     1       5.416   3.610  15.775  0.00  0.00    +0.000 A 
ATOM     17  C   UNL     1       6.418   4.410  16.340  0.00  0.00    +0.000 A 
ATOM     18  C   UNL     1       7.400   4.956  15.504  0.00  0.00    +0.000 A 
ATOM     19  C   UNL     1       7.313   4.798  14.115  0.00  0.00    +0.000 A 
BRANCH  14  21
ATOM     20  C   UNL     1       4.852   3.256  11.853  0.00  0.00    +0.000 C 
ATOM     21  O   UNL     1       6.113   3.805  12.221  0.00  0.00    +0.000 OA
ENDBRANCH  14  21
ENDBRANCH  12  17
ENDBRANCH   1  12
TORSDOF 3
ENDMDL
MODEL 3
REMARK VINA RESULT:      -7.0      1.024      2.411
REMARK  Name = 
REMARK  7 active torsions:
REMARK  status: ('A' for Active; 'I' for Inactive)
REMARK    1  A    between atoms: C_1  and  O_2
REMARK    2  A    between atoms: O_2  and  C_3
REMARK    3  A    between atoms: C_6  and  C_7
REMARK    4  A    between atoms: C_7  and  C_9
REMARK    5  A    between atoms: C_10  and  C_11
REMARK    6  A    between atoms: N_12  and  C_13
REMARK    7  A    between atoms: N_16  and  C_17
REMARK                            x       y       z     vdW  Elec       q    Type
REMARK                         _______ _______ _______ _____ _____    ______ ____
ROOT
ATOM      1  C   UNL     1       4.846   4.825  18.697  0.00  0.00    +0.000 A 
ATOM      2  C   UNL     1       4.142   5.982  18.659  0.00  0.00    +0.000 A 
ATOM      3  C   UNL     1       4.553   7.201  17.852  0.00  0.00    +0.000 C 
ATOM      4  N   UNL     1       2.947   6.105  19.388  0.00  0.00    +0.000 N 
ATOM      5  C   UNL     1       2.157   7.333  19.416  0.00  0.00    +0.000 C 
ATOM      6  C   UNL     1       2.391   5.057  20.122  0.00  0.00    +0.000 A 
ATOM      7  O   UNL     1       1.320   5.184  20.725  0.00  0.00    +0.000 OA
ATOM      8  N   UNL     1       3.099   3.876  20.139  0.00  0.00    +0.000 N 
ATOM      9  C   UNL     1       2.592   2.753  20.903  0.00  0.00    +0.000 C 
ATOM     10  C   UNL     1       4.371   3.757  19.620  0.00  0.00    +0.000 A 
ATOM     11  O   UNL     1       5.094   2.801  19.910  0.00  0.00    +0.000 OA
ENDROOT
BRANCH   1  12
ATOM     12  C   UNL     1       6.131   4.629  17.933  0.00  0.00    +0.000 C 
ATOM     13  O   UNL     1       7.218   4.583  18.503  0.00  0.00    +0.000 OA
BRANCH  12  17
ATOM     14  C   UNL     1       6.336   3.990  13.684  0.00  0.00    +0.000 A 
ATOM     15  C   UNL     1       7.292   4.758  14.348  0.00  0.00    +0.000 A 
ATOM     16  C   UNL     1       7.197   4.964  15.726  0.00  0.00    +0.000 A 
ATOM     17  C   UNL     1       6.123   4.431  16.452  0.00  0.00    +0.000 A 
ATOM     18  C   UNL     1       5.115   3.744  15.763  0.00  0.00    +0.000 A 
ATOM     19  C   UNL     1       5.241   3.495  14.390  0.00  0.00    +0.000 A 
BRANCH  14  21
ATOM     20  C   UNL     1       5.707   2.872  11.703  0.00  0.00    +0.000 C 
ATOM     21  O   UNL     1       6.553   3.820  12.345  0.00  0.00    +0.000 OA
ENDBRANCH  14  21
ENDBRANCH  12  17
ENDBRANCH   1  12
TORSDOF 3
ENDMDL
MODEL 4
REMARK VINA RESULT:      -6.8      0.311      1.091
REMARK  Name = 
REMARK  7 active torsions:
REMARK  status: ('A' for Active; 'I' for Inactive)
REMARK    1  A    between atoms: C_1  and  O_2
REMARK    2  A    between atoms: O_2  and  C_3
REMARK    3  A    between atoms: C_6  and  C_7
REMARK    4  A    between atoms: C_7  and  C_9
REMARK    5  A    between atoms: C_10  and  C_11
REMARK    6  A    between atoms: N_12  and  C_13
REMARK    7  A    between atoms: N_16  and  C_17
REMARK                            x       y       z     vdW  Elec       q    Type
REMARK                         _______ _______ _______ _____ _____    ______ ____
ROOT
ATOM      1  C   UNL     1       4.623   4.797  18.950  0.00  0.00    +0.000 A 
ATOM      2  C   UNL     1       3.979   3.769  19.550  0.00  0.00    +0.000 A 
ATOM      3  C   UNL     1       4.561   2.374  19.702  0.00  0.00    +0.000 C 
ATOM      4  N   UNL     1       2.695   3.957  20.088  0.00  0.00    +0.000 N 
ATOM      5  C   UNL     1       1.933   2.883  20.720  0.00  0.00    +0.000 C 
ATOM      6  C   UNL     1       2.046   5.192  20.098  0.00  0.00    +0.000 A 
ATOM      7  O   UNL     1       0.932   5.336  20.610  0.00  0.00    +0.000 OA
ATOM      8  N   UNL     1       2.715   6.241  19.506  0.00  0.00    +0.000 N 
ATOM      9  C   UNL     1       2.089   7.548  19.458  0.00  0.00    +0.000 C 
ATOM     10  C   UNL     1       3.877   6.076  18.783  0.00  0.00    +0.000 A 
ATOM     11  O   UNL     1       4.287   6.954  18.021  0.00  0.00    +0.000 OA
ENDROOT
BRANCH   1  12
ATOM     12  C   UNL     1       6.003   4.660  18.359  0.00  0.00    +0.000 C 
ATOM     13  O   UNL     1       7.009   4.659  19.066  0.00  0.00    +0.000 OA
BRANCH  12  17
ATOM     14  C   UNL     1       6.333   4.181  14.097  0.00  0.00    +0.000 A 
ATOM     15  C   UNL     1       5.260   3.643  14.806  0.00  0.00    +0.000 A 
ATOM     16  C   UNL     1       5.182   3.798  16.192  0.00  0.00    +0.000 A 
ATOM     17  C   UNL     1       6.196   4.467  16.890  0.00  0.00    +0.000 A 
ATOM     18  C   UNL     1       7.318   4.920  16.185  0.00  0.00    +0.000 A 
ATOM     19  C   UNL     1       7.368   4.809  14.789  0.00  0.00    +0.000 A 
BRANCH  14  21
ATOM     20  C   UNL     1       5.119   3.349  12.252  0.00  0.00    +0.000 C 
ATOM     21  O   UNL     1       6.284   4.005  12.742  0.00  0.00    +0.000 OA
ENDBRANCH  14  21
ENDBRANCH  12  17
ENDBRANCH   1  12
TORSDOF 3
ENDMDL
MODEL 5
REMARK VINA RESULT:      -6.5      1.134      2.765
REMARK  Name = 
REMARK  7 active torsions:
REMARK  status: ('A' for Active; 'I' for Inactive)
REMARK    1  A    between atoms: C_1  and  O_2
REMARK    2  A    between atoms: O_2  and  C_3
REMARK    3  A    between atoms: C_6  and  C_7
REMARK    4  A    between atoms: C_7  and  C_9
REMARK    5  A    between atoms: C_10  and  C_11
REMARK    6  A    between atoms: N_12  and  C_13
REMARK    7  A    between atoms: N_16  and  C_17
REMARK                            x       y       z     vdW  Elec       q    Type
REMARK                         _______ _______ _______ _____ _____    ______ ____
ROOT
ATOM      1  C   UNL     1       4.487   5.430  18.410  0.00  0.00    +0.000 A 
ATOM      2  C   UNL     1       3.333   5.965  18.875  0.00  0.00    +0.000 A 
ATOM      3  C   UNL     1       2.765   7.295  18.410  0.00  0.00    +0.000 C 
ATOM      4  N   UNL     1       2.577   5.281  19.841  0.00  0.00    +0.000 N 
ATOM      5  C   UNL     1       1.342   5.816  20.408  0.00  0.00    +0.000 C 
ATOM      6  C   UNL     1       2.919   4.016  20.322  0.00  0.00    +0.000 A 
ATOM      7  O   UNL     1       2.216   3.423  21.145  0.00  0.00    +0.000 OA
ATOM      8  N   UNL     1       4.081   3.466  19.829  0.00  0.00    +0.000 N 
ATOM      9  C   UNL     1       4.511   2.165  20.303  0.00  0.00    +0.000 C 
ATOM     10  C   UNL     1       4.968   4.170  19.042  0.00  0.00    +0.000 A 
ATOM     11  O   UNL     1       6.123   3.774  18.867  0.00  0.00    +0.000 OA
ENDROOT
BRANCH   1  12
ATOM     12  C   UNL     1       5.339   6.112  17.369  0.00  0.00    +0.000 C 
ATOM     13  O   UNL     1       5.746   7.261  17.522  0.00  0.00    +0.000 OA
BRANCH  12  17
ATOM     14  C   UNL     1       6.373   4.131  13.694  0.00  0.00    +0.000 A 
ATOM     15  C   UNL     1       5.092   4.034  14.233  0.00  0.00    +0.000 A 
ATOM     16  C   UNL     1       4.783   4.674  15.435  0.00  0.00    +0.000 A 
ATOM     17  C   UNL     1       5.765   5.391  16.131  0.00  0.00    +0.000 A 
ATOM     18  C   UNL     1       7.074   5.403  15.634  0.00  0.00    +0.000 A 
ATOM     19  C   UNL     1       7.368   4.805  14.402  0.00  0.00    +0.000 A 
BRANCH  14  21
ATOM     20  C   UNL     1       5.363   3.004  11.882  0.00  0.00    +0.000 C 
ATOM     21  O   UNL     1       6.550   3.501  12.493  0.00  0.00    +0.000 OA
ENDBRANCH  14  21
ENDBRANCH  12  17
ENDBRANCH   1  12
TORSDOF 3
ENDMDL
MODEL 6
REMARK VINA RESULT:      -6.4      2.463      6.424
REMARK  Name = 
REMARK  7 active torsions:
REMARK  status: ('A' for Active; 'I' for Inactive)
REMARK    1  A    between atoms: C_1  and  O_2
REMARK    2  A    between atoms: O_2  and  C_3
REMARK    3  A    between atoms: C_6  and  C_7
REMARK    4  A    between atoms: C_7  and  C_9
REMARK    5  A    between atoms: C_10  and  C_11
REMARK    6  A    between atoms: N_12  and  C_13
REMARK    7  A    between atoms: N_16  and  C_17
REMARK                            x       y       z     vdW  Elec       q    Type
REMARK                         _______ _______ _______ _____ _____    ______ ____
ROOT
ATOM      1  C   UNL     1       4.453   4.811  18.368  0.00  0.00    +0.000 A 
ATOM      2  C   UNL     1       4.445   4.236  17.141  0.00  0.00    +0.000 A 
ATOM      3  C   UNL     1       3.197   3.697  16.464  0.00  0.00    +0.000 C 
ATOM      4  N   UNL     1       5.638   4.117  16.410  0.00  0.00    +0.000 N 
ATOM      5  C   UNL     1       5.705   3.481  15.097  0.00  0.00    +0.000 C 
ATOM      6  C   UNL     1       6.859   4.625  16.855  0.00  0.00    +0.000 A 
ATOM      7  O   UNL     1       7.886   4.538  16.175  0.00  0.00    +0.000 OA
ATOM      8  N   UNL     1       6.858   5.229  18.093  0.00  0.00    +0.000 N 
ATOM      9  C   UNL     1       8.097   5.757  18.630  0.00  0.00    +0.000 C 
ATOM     10  C   UNL     1       5.772   5.193  18.943  0.00  0.00    +0.000 A 
ATOM     11  O   UNL     1       5.887   5.465  20.140  0.00  0.00    +0.000 OA
ENDROOT
BRANCH   1  12
ATOM     12  C   UNL     1       3.205   4.973  19.198  0.00  0.00    +0.000 C 
ATOM     13  O   UNL     1       2.729   4.036  19.835  0.00  0.00    +0.000 OA
BRANCH  12  17
ATOM     14  C   UNL     1       1.370   8.823  19.756  0.00  0.00    +0.000 A 
ATOM     15  C   UNL     1       1.340   7.854  20.758  0.00  0.00    +0.000 A 
ATOM     16  C   UNL     1       1.930   6.606  20.549  0.00  0.00    +0.000 A 
ATOM     17  C   UNL     1       2.528   6.300  19.319  0.00  0.00    +0.000 A 
ATOM     18  C   UNL     1       2.469   7.242  18.285  0.00  0.00    +0.000 A 
ATOM     19  C   UNL     1       1.924   8.511  18.515  0.00  0.00    +0.000 A 
BRANCH  14  21
ATOM     20  C   UNL     1      -0.212  10.483  19.198  0.00  0.00    +0.000 C 
ATOM     21  O   UNL     1       0.800  10.021  20.086  0.00  0.00    +0.000 OA
ENDBRANCH  14  21
ENDBRANCH  12  17
ENDBRANCH   1  12
TORSDOF 3
ENDMDL
MODEL 7
REMARK VINA RESULT:      -6.4      2.396      3.685
REMARK  Name = 
REMARK  7 active torsions:
REMARK  status: ('A' for Active; 'I' for Inactive)
REMARK    1  A    between atoms: C_1  and  O_2
REMARK    2  A    between atoms: O_2  and  C_3
REMARK    3  A    between atoms: C_6  and  C_7
REMARK    4  A    between atoms: C_7  and  C_9
REMARK    5  A    between atoms: C_10  and  C_11
REMARK    6  A    between atoms: N_12  and  C_13
REMARK    7  A    between atoms: N_16  and  C_17
REMARK                            x       y       z     vdW  Elec       q    Type
REMARK                         _______ _______ _______ _____ _____    ______ ____
ROOT
ATOM      1  C   UNL     1       3.709   4.629  18.084  0.00  0.00    +0.000 A 
ATOM      2  C   UNL     1       3.217   3.383  18.282  0.00  0.00    +0.000 A 
ATOM      3  C   UNL     1       3.755   2.139  17.596  0.00  0.00    +0.000 C 
ATOM      4  N   UNL     1       2.151   3.178  19.173  0.00  0.00    +0.000 N 
ATOM      5  C   UNL     1       1.553   1.866  19.408  0.00  0.00    +0.000 C 
ATOM      6  C   UNL     1       1.589   4.201  19.938  0.00  0.00    +0.000 A 
ATOM      7  O   UNL     1       0.675   3.985  20.740  0.00  0.00    +0.000 OA
ATOM      8  N   UNL     1       2.107   5.463  19.750  0.00  0.00    +0.000 N 
ATOM      9  C   UNL     1       1.554   6.579  20.493  0.00  0.00    +0.000 C 
ATOM     10  C   UNL     1       3.005   5.762  18.747  0.00  0.00    +0.000 A 
ATOM     11  O   UNL     1       3.219   6.928  18.407  0.00  0.00    +0.000 OA
ENDROOT
BRANCH   1  12
ATOM     12  C   UNL     1       4.855   4.913  17.146  0.00  0.00    +0.000 C 
ATOM     13  O   UNL     1       4.853   4.508  15.986  0.00  0.00    +0.000 OA
BRANCH  12  17
ATOM     14  C   UNL     1       8.053   7.496  18.412  0.00  0.00    +0.000 A 
ATOM     15  C   UNL     1       7.219   7.842  17.350  0.00  0.00    +0.000 A 
ATOM     16  C   UNL     1       6.196   6.981  16.947  0.00  0.00    +0.000 A 
ATOM     17  C   UNL     1       6.017   5.745  17.582  0.00  0.00    +0.000 A 
ATOM     18  C   UNL     1       6.919   5.361  18.582  0.00  0.00    +0.000 A 
ATOM     19  C   UNL     1       7.910   6.250  19.019  0.00  0.00    +0.000 A 
BRANCH  14  21
ATOM     20  C   UNL     1       8.690   9.768  18.351  0.00  0.00    +0.000 C 
ATOM     21  O   UNL     1       8.990   8.434  18.746  0.00  0.00    +0.000 OA
ENDBRANCH  14  21
ENDBRANCH  12  17
ENDBRANCH   1  12
TORSDOF 3
ENDMDL
MODEL 8
REMARK VINA RESULT:      -6.3      2.464      6.417
REMARK  Name = 
REMARK  7 active torsions:
REMARK  status: ('A' for Active; 'I' for Inactive)
REMARK    1  A    between atoms: C_1  and  O_2
REMARK    2  A    between atoms: O_2  and  C_3
REMARK    3  A    between atoms: C_6  and  C_7
REMARK    4  A    between atoms: C_7  and  C_9
REMARK    5  A    between atoms: C_10  and  C_11
REMARK    6  A    between atoms: N_12  and  C_13
REMARK    7  A    between atoms: N_16  and  C_17
REMARK                            x       y       z     vdW  Elec       q    Type
REMARK                         _______ _______ _______ _____ _____    ______ ____
ROOT
ATOM      1  C   UNL     1       4.441   4.853  18.339  0.00  0.00    +0.000 A 
ATOM      2  C   UNL     1       4.452   4.267  17.118  0.00  0.00    +0.000 A 
ATOM      3  C   UNL     1       3.211   3.745  16.415  0.00  0.00    +0.000 C 
ATOM      4  N   UNL     1       5.661   4.118  16.418  0.00  0.00    +0.000 N 
ATOM      5  C   UNL     1       5.748   3.467  15.113  0.00  0.00    +0.000 C 
ATOM      6  C   UNL     1       6.880   4.607  16.888  0.00  0.00    +0.000 A 
ATOM      7  O   UNL     1       7.921   4.493  16.234  0.00  0.00    +0.000 OA
ATOM      8  N   UNL     1       6.860   5.223  18.120  0.00  0.00    +0.000 N 
ATOM      9  C   UNL     1       8.095   5.733  18.682  0.00  0.00    +0.000 C 
ATOM     10  C   UNL     1       5.753   5.216  18.943  0.00  0.00    +0.000 A 
ATOM     11  O   UNL     1       5.844   5.497  20.140  0.00  0.00    +0.000 OA
ENDROOT
BRANCH   1  12
ATOM     12  C   UNL     1       3.177   5.047  19.137  0.00  0.00    +0.000 C 
ATOM     13  O   UNL     1       2.617   4.107  19.696  0.00  0.00    +0.000 OA
BRANCH  12  17
ATOM     14  C   UNL     1       1.352   8.929  19.461  0.00  0.00    +0.000 A 
ATOM     15  C   UNL     1       1.997   8.527  18.293  0.00  0.00    +0.000 A 
ATOM     16  C   UNL     1       2.595   7.268  18.215  0.00  0.00    +0.000 A 
ATOM     17  C   UNL     1       2.584   6.407  19.321  0.00  0.00    +0.000 A 
ATOM     18  C   UNL     1       2.020   6.855  20.522  0.00  0.00    +0.000 A 
ATOM     19  C   UNL     1       1.376   8.097  20.580  0.00  0.00    +0.000 A 
BRANCH  14  21
ATOM     20  C   UNL     1      -0.435  10.304  20.161  0.00  0.00    +0.000 C 
ATOM     21  O   UNL     1       0.766  10.164  19.408  0.00  0.00    +0.000 OA
ENDBRANCH  14  21
ENDBRANCH  12  17
ENDBRANCH   1  12
TORSDOF 3
ENDMDL
MODEL 9
REMARK VINA RESULT:      -6.2      3.405      6.041
REMARK  Name = 
REMARK  7 active torsions:
REMARK  status: ('A' for Active; 'I' for Inactive)
REMARK    1  A    between atoms: C_1  and  O_2
REMARK    2  A    between atoms: O_2  and  C_3
REMARK    3  A    between atoms: C_6  and  C_7
REMARK    4  A    between atoms: C_7  and  C_9
REMARK    5  A    between atoms: C_10  and  C_11
REMARK    6  A    between atoms: N_12  and  C_13
REMARK    7  A    between atoms: N_16  and  C_17
REMARK                            x       y       z     vdW  Elec       q    Type
REMARK                         _______ _______ _______ _____ _____    ______ ____
ROOT
ATOM      1  C   UNL     1       3.154   4.990  18.437  0.00  0.00    +0.000 A 
ATOM      2  C   UNL     1       4.136   4.312  19.077  0.00  0.00    +0.000 A 
ATOM      3  C   UNL     1       5.507   4.890  19.382  0.00  0.00    +0.000 C 
ATOM      4  N   UNL     1       3.917   2.994  19.511  0.00  0.00    +0.000 N 
ATOM      5  C   UNL     1       4.943   2.197  20.178  0.00  0.00    +0.000 C 
ATOM      6  C   UNL     1       2.692   2.341  19.376  0.00  0.00    +0.000 A 
ATOM      7  O   UNL     1       2.517   1.194  19.800  0.00  0.00    +0.000 OA
ATOM      8  N   UNL     1       1.688   3.043  18.745  0.00  0.00    +0.000 N 
ATOM      9  C   UNL     1       0.396   2.416  18.547  0.00  0.00    +0.000 C 
ATOM     10  C   UNL     1       1.901   4.252  18.117  0.00  0.00    +0.000 A 
ATOM     11  O   UNL     1       1.084   4.707  17.313  0.00  0.00    +0.000 OA
ENDROOT
BRANCH   1  12
ATOM     12  C   UNL     1       3.325   6.408  17.953  0.00  0.00    +0.000 C 
ATOM     13  O   UNL     1       4.088   6.684  17.030  0.00  0.00    +0.000 OA
BRANCH  12  17
ATOM     14  C   UNL     1       0.891   9.611  19.474  0.00  0.00    +0.000 A 
ATOM     15  C   UNL     1       1.372   9.624  18.165  0.00  0.00    +0.000 A 
ATOM     16  C   UNL     1       2.172   8.581  17.698  0.00  0.00    +0.000 A 
ATOM     17  C   UNL     1       2.531   7.525  18.547  0.00  0.00    +0.000 A 
ATOM     18  C   UNL     1       2.126   7.568  19.887  0.00  0.00    +0.000 A 
ATOM     19  C   UNL     1       1.280   8.589  20.338  0.00  0.00    +0.000 A 
BRANCH  14  21
ATOM     20  C   UNL     1      -1.087  10.813  19.011  0.00  0.00    +0.000 C 
ATOM     21  O   UNL     1       0.083  10.662  19.809  0.00  0.00    +0.000 OA
ENDBRANCH  14  21
ENDBRANCH  12  17
ENDBRANCH   1  12
TORSDOF 3
ENDMDL
