MODEL 1
REMARK VINA RESULT:      -7.4      0.000      0.000
REMARK  Name = 
REMARK  3 active torsions:
REMARK  status: ('A' for Active; 'I' for Inactive)
REMARK    1  A    between atoms: C_1  and  N_2
REMARK    2  A    between atoms: C_7  and  C_8
REMARK    3  A    between atoms: C_8  and  O_10
REMARK                            x       y       z     vdW  Elec       q    Type
REMARK                         _______ _______ _______ _____ _____    ______ ____
ROOT
ATOM      1  C   UNL     1       2.068   6.824  19.706  0.00  0.00    +0.000 C 
ATOM      2  N   UNL     1       2.839   6.000  18.785  0.00  0.00    +0.000 N 
ATOM      3  C   UNL     1       3.691   6.646  17.882  0.00  0.00    +0.000 A 
ATOM      4  O   UNL     1       3.813   7.868  17.836  0.00  0.00    +0.000 OA
ATOM      5  C   UNL     1       4.422   5.786  16.999  0.00  0.00    +0.000 A 
ATOM      6  C   UNL     1       5.329   6.081  16.010  0.00  0.00    +0.000 A 
ATOM      7  C   UNL     1       5.722   4.832  15.478  0.00  0.00    +0.000 A 
ATOM      8  N   UNL     1       5.090   3.809  16.101  0.00  0.00    +0.000 NA
ATOM      9  N   UNL     1       4.303   4.431  17.028  0.00  0.00    +0.000 N 
ATOM     10  C   UNL     1       3.450   3.770  17.932  0.00  0.00    +0.000 A 
ATOM     11  C   UNL     1       3.343   2.375  17.945  0.00  0.00    +0.000 A 
ATOM     12  C   UNL     1       2.484   1.764  18.861  0.00  0.00    +0.000 A 
ATOM     13  C   UNL     1       1.742   2.542  19.749  0.00  0.00    +0.000 A 
ATOM     14  C   UNL     1       1.854   3.936  19.730  0.00  0.00    +0.000 A 
ATOM     15  C   UNL     1       2.710   4.574  18.821  0.00  0.00    +0.000 A 
ENDROOT
BRANCH   7  16
ATOM     16  C   UNL     1       6.683   4.617  14.388  0.00  0.00    +0.000 C 
ATOM     17  O   UNL     1       7.644   5.343  14.174  0.00  0.00    +0.000 OA
BRANCH  16  18
ATOM     18  O   UNL     1       6.406   3.523  13.633  0.00  0.00    +0.000 OA
ATOM     19  H   UNL     1       5.470   3.598  13.338  0.00  0.00    +0.000 HD
ENDBRANCH  16  18
ENDBRANCH   7  16
TORSDOF 2
ENDMDL
MODEL 2
REMARK VINA RESULT:      -7.4      1.098      1.378
REMARK  Name = 
REMARK  3 active torsions:
REMARK  status: ('A' for Active; 'I' for Inactive)
REMARK    1  A    between atoms: C_1  and  N_2
REMARK    2  A    between atoms: C_7  and  C_8
REMARK    3  A    between atoms: C_8  and  O_10
REMARK                            x       y       z     vdW  Elec       q    Type
REMARK                         _______ _______ _______ _____ _____    ______ ____
ROOT
ATOM      1  C   UNL     1       1.820   7.556  20.038  0.00  0.00    +0.000 C 
ATOM      2  N   UNL     1       2.673   6.626  19.311  0.00  0.00    +0.000 N 
ATOM      3  C   UNL     1       3.334   7.096  18.170  0.00  0.00    +0.000 A 
ATOM      4  O   UNL     1       3.225   8.250  17.763  0.00  0.00    +0.000 OA
ATOM      5  C   UNL     1       4.156   6.137  17.494  0.00  0.00    +0.000 A 
ATOM      6  C   UNL     1       4.932   6.259  16.366  0.00  0.00    +0.000 A 
ATOM      7  C   UNL     1       5.516   4.987  16.173  0.00  0.00    +0.000 A 
ATOM      8  N   UNL     1       5.123   4.112  17.130  0.00  0.00    +0.000 NA
ATOM      9  N   UNL     1       4.293   4.853  17.923  0.00  0.00    +0.000 N 
ATOM     10  C   UNL     1       3.633   4.369  19.069  0.00  0.00    +0.000 A 
ATOM     11  C   UNL     1       3.787   3.044  19.494  0.00  0.00    +0.000 A 
ATOM     12  C   UNL     1       3.113   2.611  20.637  0.00  0.00    +0.000 A 
ATOM     13  C   UNL     1       2.295   3.493  21.342  0.00  0.00    +0.000 A 
ATOM     14  C   UNL     1       2.146   4.815  20.913  0.00  0.00    +0.000 A 
ATOM     15  C   UNL     1       2.813   5.275  19.768  0.00  0.00    +0.000 A 
ENDROOT
BRANCH   7  16
ATOM     16  C   UNL     1       6.432   4.608  15.090  0.00  0.00    +0.000 C 
ATOM     17  O   UNL     1       6.228   3.682  14.317  0.00  0.00    +0.000 OA
BRANCH  16  18
ATOM     18  O   UNL     1       7.540   5.392  15.021  0.00  0.00    +0.000 OA
ATOM     19  H   UNL     1       7.636   5.842  15.890  0.00  0.00    +0.000 HD
ENDBRANCH  16  18
ENDBRANCH   7  16
TORSDOF 2
ENDMDL
MODEL 3
REMARK VINA RESULT:      -7.0      1.826      3.329
REMARK  Name = 
REMARK  3 active torsions:
REMARK  status: ('A' for Active; 'I' for Inactive)
REMARK    1  A    between atoms: C_1  and  N_2
REMARK    2  A    between atoms: C_7  and  C_8
REMARK    3  A    between atoms: C_8  and  O_10
REMARK                            x       y       z     vdW  Elec       q    Type
REMARK                         _______ _______ _______ _____ _____    ______ ____
ROOT
ATOM      1  C   UNL     1       2.574   4.085  20.696  0.00  0.00    +0.000 C 
ATOM      2  N   UNL     1       3.185   4.590  19.474  0.00  0.00    +0.000 N 
ATOM      3  C   UNL     1       4.009   3.724  18.745  0.00  0.00    +0.000 A 
ATOM      4  O   UNL     1       4.233   2.566  19.092  0.00  0.00    +0.000 OA
ATOM      5  C   UNL     1       4.585   4.275  17.554  0.00  0.00    +0.000 A 
ATOM      6  C   UNL     1       5.422   3.712  16.622  0.00  0.00    +0.000 A 
ATOM      7  C   UNL     1       5.657   4.728  15.668  0.00  0.00    +0.000 A 
ATOM      8  N   UNL     1       5.001   5.869  15.989  0.00  0.00    +0.000 NA
ATOM      9  N   UNL     1       4.353   5.553  17.150  0.00  0.00    +0.000 N 
ATOM     10  C   UNL     1       3.526   6.433  17.874  0.00  0.00    +0.000 A 
ATOM     11  C   UNL     1       3.301   7.745  17.440  0.00  0.00    +0.000 A 
ATOM     12  C   UNL     1       2.473   8.580  18.191  0.00  0.00    +0.000 A 
ATOM     13  C   UNL     1       1.881   8.108  19.362  0.00  0.00    +0.000 A 
ATOM     14  C   UNL     1       2.110   6.796  19.790  0.00  0.00    +0.000 A 
ATOM     15  C   UNL     1       2.937   5.937  19.052  0.00  0.00    +0.000 A 
ENDROOT
BRANCH   7  16
ATOM     16  C   UNL     1       6.497   4.615  14.469  0.00  0.00    +0.000 C 
ATOM     17  O   UNL     1       6.219   3.915  13.505  0.00  0.00    +0.000 OA
BRANCH  16  18
ATOM     18  O   UNL     1       7.626   5.369  14.528  0.00  0.00    +0.000 OA
ATOM     19  H   UNL     1       7.666   5.768  15.426  0.00  0.00    +0.000 HD
ENDBRANCH  16  18
ENDBRANCH   7  16
TORSDOF 2
ENDMDL
MODEL 4
REMARK VINA RESULT:      -7.0      3.269      6.009
REMARK  Name = 
REMARK  3 active torsions:
REMARK  status: ('A' for Active; 'I' for Inactive)
REMARK    1  A    between atoms: C_1  and  N_2
REMARK    2  A    between atoms: C_7  and  C_8
REMARK    3  A    between atoms: C_8  and  O_10
REMARK                            x       y       z     vdW  Elec       q    Type
REMARK                         _______ _______ _______ _____ _____    ______ ____
ROOT
ATOM      1  C   UNL     1       3.424   1.911  18.282  0.00  0.00    +0.000 C 
ATOM      2  N   UNL     1       3.237   3.335  18.524  0.00  0.00    +0.000 N 
ATOM      3  C   UNL     1       2.413   3.717  19.589  0.00  0.00    +0.000 A 
ATOM      4  O   UNL     1       1.850   2.907  20.322  0.00  0.00    +0.000 OA
ATOM      5  C   UNL     1       2.263   5.130  19.778  0.00  0.00    +0.000 A 
ATOM      6  C   UNL     1       1.544   5.836  20.711  0.00  0.00    +0.000 A 
ATOM      7  C   UNL     1       1.774   7.198  20.409  0.00  0.00    +0.000 A 
ATOM      8  N   UNL     1       2.593   7.335  19.339  0.00  0.00    +0.000 NA
ATOM      9  N   UNL     1       2.875   6.047  18.980  0.00  0.00    +0.000 N 
ATOM     10  C   UNL     1       3.705   5.675  17.906  0.00  0.00    +0.000 A 
ATOM     11  C   UNL     1       4.324   6.634  17.097  0.00  0.00    +0.000 A 
ATOM     12  C   UNL     1       5.140   6.216  16.044  0.00  0.00    +0.000 A 
ATOM     13  C   UNL     1       5.329   4.856  15.803  0.00  0.00    +0.000 A 
ATOM     14  C   UNL     1       4.706   3.903  16.615  0.00  0.00    +0.000 A 
ATOM     15  C   UNL     1       3.883   4.296  17.680  0.00  0.00    +0.000 A 
ENDROOT
BRANCH   7  16
ATOM     16  C   UNL     1       1.218   8.351  21.126  0.00  0.00    +0.000 C 
ATOM     17  O   UNL     1       0.221   8.963  20.766  0.00  0.00    +0.000 OA
BRANCH  16  18
ATOM     18  O   UNL     1       1.917   8.682  22.243  0.00  0.00    +0.000 OA
ATOM     19  H   UNL     1       1.495   9.482  22.629  0.00  0.00    +0.000 HD
ENDBRANCH  16  18
ENDBRANCH   7  16
TORSDOF 2
ENDMDL
MODEL 5
REMARK VINA RESULT:      -7.0      1.838      3.300
REMARK  Name = 
REMARK  3 active torsions:
REMARK  status: ('A' for Active; 'I' for Inactive)
REMARK    1  A    between atoms: C_1  and  N_2
REMARK    2  A    between atoms: C_7  and  C_8
REMARK    3  A    between atoms: C_8  and  O_10
REMARK                            x       y       z     vdW  Elec       q    Type
REMARK                         _______ _______ _______ _____ _____    ______ ____
ROOT
ATOM      1  C   UNL     1       1.779   2.352  20.232  0.00  0.00    +0.000 C 
ATOM      2  N   UNL     1       2.543   3.240  19.366  0.00  0.00    +0.000 N 
ATOM      3  C   UNL     1       3.388   2.660  18.412  0.00  0.00    +0.000 A 
ATOM      4  O   UNL     1       3.507   1.445  18.277  0.00  0.00    +0.000 OA
ATOM      5  C   UNL     1       4.116   3.581  17.591  0.00  0.00    +0.000 A 
ATOM      6  C   UNL     1       5.013   3.358  16.575  0.00  0.00    +0.000 A 
ATOM      7  C   UNL     1       5.404   4.642  16.132  0.00  0.00    +0.000 A 
ATOM      8  N   UNL     1       4.785   5.619  16.838  0.00  0.00    +0.000 NA
ATOM      9  N   UNL     1       4.002   4.931  17.722  0.00  0.00    +0.000 N 
ATOM     10  C   UNL     1       3.156   5.526  18.677  0.00  0.00    +0.000 A 
ATOM     11  C   UNL     1       3.053   6.916  18.795  0.00  0.00    +0.000 A 
ATOM     12  C   UNL     1       2.200   7.459  19.757  0.00  0.00    +0.000 A 
ATOM     13  C   UNL     1       1.462   6.620  20.590  0.00  0.00    +0.000 A 
ATOM     14  C   UNL     1       1.570   5.231  20.467  0.00  0.00    +0.000 A 
ATOM     15  C   UNL     1       2.419   4.660  19.508  0.00  0.00    +0.000 A 
ENDROOT
BRANCH   7  16
ATOM     16  C   UNL     1       6.358   4.935  15.055  0.00  0.00    +0.000 C 
ATOM     17  O   UNL     1       6.272   4.474  13.925  0.00  0.00    +0.000 OA
BRANCH  16  18
ATOM     18  O   UNL     1       7.355   5.778  15.430  0.00  0.00    +0.000 OA
ATOM     19  H   UNL     1       6.935   6.612  15.738  0.00  0.00    +0.000 HD
ENDBRANCH  16  18
ENDBRANCH   7  16
TORSDOF 2
ENDMDL
MODEL 6
REMARK VINA RESULT:      -6.8      3.230      5.400
REMARK  Name = 
REMARK  3 active torsions:
REMARK  status: ('A' for Active; 'I' for Inactive)
REMARK    1  A    between atoms: C_1  and  N_2
REMARK    2  A    between atoms: C_7  and  C_8
REMARK    3  A    between atoms: C_8  and  O_10
REMARK                            x       y       z     vdW  Elec       q    Type
REMARK                         _______ _______ _______ _____ _____    ______ ____
ROOT
ATOM      1  C   UNL     1       4.443   3.161  19.473  0.00  0.00    +0.000 C 
ATOM      2  N   UNL     1       4.118   4.446  18.870  0.00  0.00    +0.000 N 
ATOM      3  C   UNL     1       3.213   5.276  19.542  0.00  0.00    +0.000 A 
ATOM      4  O   UNL     1       2.688   4.966  20.609  0.00  0.00    +0.000 OA
ATOM      5  C   UNL     1       2.928   6.526  18.901  0.00  0.00    +0.000 A 
ATOM      6  C   UNL     1       2.104   7.558  19.279  0.00  0.00    +0.000 A 
ATOM      7  C   UNL     1       2.227   8.529  18.260  0.00  0.00    +0.000 A 
ATOM      8  N   UNL     1       3.083   8.122  17.291  0.00  0.00    +0.000 NA
ATOM      9  N   UNL     1       3.495   6.892  17.719  0.00  0.00    +0.000 N 
ATOM     10  C   UNL     1       4.406   6.066  17.035  0.00  0.00    +0.000 A 
ATOM     11  C   UNL     1       4.978   6.462  15.820  0.00  0.00    +0.000 A 
ATOM     12  C   UNL     1       5.878   5.609  15.179  0.00  0.00    +0.000 A 
ATOM     13  C   UNL     1       6.198   4.377  15.746  0.00  0.00    +0.000 A 
ATOM     14  C   UNL     1       5.624   3.988  16.960  0.00  0.00    +0.000 A 
ATOM     15  C   UNL     1       4.718   4.826  17.625  0.00  0.00    +0.000 A 
ENDROOT
BRANCH   7  16
ATOM     16  C   UNL     1       1.536   9.823  18.205  0.00  0.00    +0.000 C 
ATOM     17  O   UNL     1       0.476  10.053  18.771  0.00  0.00    +0.000 OA
BRANCH  16  18
ATOM     18  O   UNL     1       2.190  10.754  17.463  0.00  0.00    +0.000 OA
ATOM     19  H   UNL     1       2.488  11.463  18.077  0.00  0.00    +0.000 HD
ENDBRANCH  16  18
ENDBRANCH   7  16
TORSDOF 2
ENDMDL
MODEL 7
REMARK VINA RESULT:      -6.7      3.382      5.327
REMARK  Name = 
REMARK  3 active torsions:
REMARK  status: ('A' for Active; 'I' for Inactive)
REMARK    1  A    between atoms: C_1  and  N_2
REMARK    2  A    between atoms: C_7  and  C_8
REMARK    3  A    between atoms: C_8  and  O_10
REMARK                            x       y       z     vdW  Elec       q    Type
REMARK                         _______ _______ _______ _____ _____    ______ ____
ROOT
ATOM      1  C   UNL     1       3.091   8.675  17.508  0.00  0.00    +0.000 C 
ATOM      2  N   UNL     1       3.193   7.323  18.040  0.00  0.00    +0.000 N 
ATOM      3  C   UNL     1       2.480   7.020  19.205  0.00  0.00    +0.000 A 
ATOM      4  O   UNL     1       1.778   7.841  19.790  0.00  0.00    +0.000 OA
ATOM      5  C   UNL     1       2.621   5.677  19.684  0.00  0.00    +0.000 A 
ATOM      6  C   UNL     1       2.069   5.054  20.777  0.00  0.00    +0.000 A 
ATOM      7  C   UNL     1       2.562   3.730  20.742  0.00  0.00    +0.000 A 
ATOM      8  N   UNL     1       3.383   3.536  19.682  0.00  0.00    +0.000 NA
ATOM      9  N   UNL     1       3.393   4.750  19.055  0.00  0.00    +0.000 N 
ATOM     10  C   UNL     1       4.115   5.043  17.882  0.00  0.00    +0.000 A 
ATOM     11  C   UNL     1       4.903   4.074  17.251  0.00  0.00    +0.000 A 
ATOM     12  C   UNL     1       5.600   4.412  16.089  0.00  0.00    +0.000 A 
ATOM     13  C   UNL     1       5.509   5.702  15.570  0.00  0.00    +0.000 A 
ATOM     14  C   UNL     1       4.719   6.665  16.205  0.00  0.00    +0.000 A 
ATOM     15  C   UNL     1       4.008   6.351  17.373  0.00  0.00    +0.000 A 
ENDROOT
BRANCH   7  16
ATOM     16  C   UNL     1       2.259   2.666  21.708  0.00  0.00    +0.000 C 
ATOM     17  O   UNL     1       1.145   2.460  22.168  0.00  0.00    +0.000 OA
BRANCH  16  18
ATOM     18  O   UNL     1       3.343   1.919  22.045  0.00  0.00    +0.000 OA
ATOM     19  H   UNL     1       4.070   2.160  21.428  0.00  0.00    +0.000 HD
ENDBRANCH  16  18
ENDBRANCH   7  16
TORSDOF 2
ENDMDL
MODEL 8
REMARK VINA RESULT:      -6.6      1.800      4.658
REMARK  Name = 
REMARK  3 active torsions:
REMARK  status: ('A' for Active; 'I' for Inactive)
REMARK    1  A    between atoms: C_1  and  N_2
REMARK    2  A    between atoms: C_7  and  C_8
REMARK    3  A    between atoms: C_8  and  O_10
REMARK                            x       y       z     vdW  Elec       q    Type
REMARK                         _______ _______ _______ _____ _____    ______ ____
ROOT
ATOM      1  C   UNL     1       6.090   3.878  16.290  0.00  0.00    +0.000 C 
ATOM      2  N   UNL     1       4.981   4.649  16.834  0.00  0.00    +0.000 N 
ATOM      3  C   UNL     1       5.046   6.045  16.747  0.00  0.00    +0.000 A 
ATOM      4  O   UNL     1       5.992   6.638  16.234  0.00  0.00    +0.000 OA
ATOM      5  C   UNL     1       3.930   6.752  17.302  0.00  0.00    +0.000 A 
ATOM      6  C   UNL     1       3.674   8.099  17.382  0.00  0.00    +0.000 A 
ATOM      7  C   UNL     1       2.421   8.204  18.028  0.00  0.00    +0.000 A 
ATOM      8  N   UNL     1       1.921   6.984  18.339  0.00  0.00    +0.000 NA
ATOM      9  N   UNL     1       2.872   6.118  17.877  0.00  0.00    +0.000 N 
ATOM     10  C   UNL     1       2.795   4.715  17.970  0.00  0.00    +0.000 A 
ATOM     11  C   UNL     1       1.697   4.084  18.565  0.00  0.00    +0.000 A 
ATOM     12  C   UNL     1       1.665   2.690  18.634  0.00  0.00    +0.000 A 
ATOM     13  C   UNL     1       2.719   1.941  18.114  0.00  0.00    +0.000 A 
ATOM     14  C   UNL     1       3.813   2.578  17.520  0.00  0.00    +0.000 A 
ATOM     15  C   UNL     1       3.869   3.977  17.438  0.00  0.00    +0.000 A 
ENDROOT
BRANCH   7  16
ATOM     16  C   UNL     1       1.712   9.449  18.349  0.00  0.00    +0.000 C 
ATOM     17  O   UNL     1       1.010   9.598  19.339  0.00  0.00    +0.000 OA
BRANCH  16  18
ATOM     18  O   UNL     1       1.913  10.436  17.436  0.00  0.00    +0.000 OA
ATOM     19  H   UNL     1       2.537  11.083  17.835  0.00  0.00    +0.000 HD
ENDBRANCH  16  18
ENDBRANCH   7  16
TORSDOF 2
ENDMDL
MODEL 9
REMARK VINA RESULT:      -6.6      2.111      4.873
REMARK  Name = 
REMARK  3 active torsions:
REMARK  status: ('A' for Active; 'I' for Inactive)
REMARK    1  A    between atoms: C_1  and  N_2
REMARK    2  A    between atoms: C_7  and  C_8
REMARK    3  A    between atoms: C_8  and  O_10
REMARK                            x       y       z     vdW  Elec       q    Type
REMARK                         _______ _______ _______ _____ _____    ______ ____
ROOT
ATOM      1  C   UNL     1       5.045   3.370  17.319  0.00  0.00    +0.000 C 
ATOM      2  N   UNL     1       4.217   4.412  17.912  0.00  0.00    +0.000 N 
ATOM      3  C   UNL     1       4.161   5.653  17.268  0.00  0.00    +0.000 A 
ATOM      4  O   UNL     1       4.775   5.895  16.231  0.00  0.00    +0.000 OA
ATOM      5  C   UNL     1       3.335   6.640  17.898  0.00  0.00    +0.000 A 
ATOM      6  C   UNL     1       3.057   7.937  17.539  0.00  0.00    +0.000 A 
ATOM      7  C   UNL     1       2.180   8.421  18.535  0.00  0.00    +0.000 A 
ATOM      8  N   UNL     1       1.924   7.476  19.471  0.00  0.00    +0.000 NA
ATOM      9  N   UNL     1       2.646   6.397  19.046  0.00  0.00    +0.000 N 
ATOM     10  C   UNL     1       2.695   5.153  19.704  0.00  0.00    +0.000 A 
ATOM     11  C   UNL     1       1.979   4.924  20.884  0.00  0.00    +0.000 A 
ATOM     12  C   UNL     1       2.058   3.673  21.499  0.00  0.00    +0.000 A 
ATOM     13  C   UNL     1       2.845   2.668  20.940  0.00  0.00    +0.000 A 
ATOM     14  C   UNL     1       3.558   2.903  19.760  0.00  0.00    +0.000 A 
ATOM     15  C   UNL     1       3.495   4.150  19.122  0.00  0.00    +0.000 A 
ENDROOT
BRANCH   7  16
ATOM     16  C   UNL     1       1.597   9.767  18.597  0.00  0.00    +0.000 C 
ATOM     17  O   UNL     1       0.925  10.177  19.534  0.00  0.00    +0.000 OA
BRANCH  16  18
ATOM     18  O   UNL     1       1.877  10.528  17.507  0.00  0.00    +0.000 OA
ATOM     19  H   UNL     1       1.083  10.512  16.925  0.00  0.00    +0.000 HD
ENDBRANCH  16  18
ENDBRANCH   7  16
TORSDOF 2
ENDMDL
