MODEL 1
REMARK VINA RESULT:      -7.6      0.000      0.000
REMARK  Name = 
REMARK  11 active torsions:
REMARK  status: ('A' for Active; 'I' for Inactive)
REMARK    1  A    between atoms: C_1  and  C_2
REMARK    2  A    between atoms: C_5  and  C_6
REMARK    3  A    between atoms: C_8  and  C_9
REMARK    4  A    between atoms: C_9  and  C_10
REMARK    5  A    between atoms: C_9  and  C_11
REMARK    6  A    between atoms: C_9  and  C_12
REMARK    7  A    between atoms: C_14  and  C_15
REMARK    8  A    between atoms: C_15  and  C_16
REMARK    9  A    between atoms: C_15  and  C_17
REMARK   10  A    between atoms: C_18  and  C_19
REMARK   11  A    between atoms: C_19  and  O_20
REMARK                            x       y       z     vdW  Elec       q    Type
REMARK                         _______ _______ _______ _____ _____    ______ ____
ROOT
ATOM      1  C   UNL     1       3.270   6.168  18.884  0.00  0.00    +0.000 A 
ATOM      2  C   UNL     1       4.632   6.417  18.565  0.00  0.00    +0.000 A 
ATOM      3  C   UNL     1       5.601   5.417  18.432  0.00  0.00    +0.000 A 
ATOM      4  C   UNL     1       5.197   4.120  18.752  0.00  0.00    +0.000 A 
ATOM      5  C   UNL     1       3.870   3.789  19.124  0.00  0.00    +0.000 A 
ATOM      6  C   UNL     1       2.870   4.811  19.118  0.00  0.00    +0.000 A 
ENDROOT
BRANCH   1  11
ATOM      7  C   UNL     1       0.062  11.055  19.228  0.00  0.00    +0.000 C 
ATOM      8  C   UNL     1       0.841   9.779  19.125  0.00  0.00    +0.000 A 
ATOM      9  C   UNL     1       1.377   9.353  17.908  0.00  0.00    +0.000 A 
ATOM     10  C   UNL     1       2.109   8.160  17.835  0.00  0.00    +0.000 A 
ATOM     11  C   UNL     1       2.375   7.369  18.974  0.00  0.00    +0.000 A 
ATOM     12  C   UNL     1       1.824   7.824  20.183  0.00  0.00    +0.000 A 
ATOM     13  C   UNL     1       1.036   8.983  20.251  0.00  0.00    +0.000 A 
ENDBRANCH   1  11
BRANCH   3  14
ATOM     14  C   UNL     1       7.051   5.744  18.027  0.00  0.00    +0.000 C 
ATOM     15  C   UNL     1       7.929   5.760  19.293  0.00  0.00    +0.000 C 
ATOM     16  C   UNL     1       7.633   4.709  17.036  0.00  0.00    +0.000 C 
ATOM     17  C   UNL     1       7.180   7.121  17.330  0.00  0.00    +0.000 C 
ENDBRANCH   3  14
BRANCH   5  18
ATOM     18  C   UNL     1       3.580   2.330  19.503  0.00  0.00    +0.000 C 
ATOM     19  C   UNL     1       3.484   1.449  18.253  0.00  0.00    +0.000 C 
ATOM     20  C   UNL     1       4.604   1.702  20.470  0.00  0.00    +0.000 C 
ENDBRANCH   5  18
BRANCH   6  21
ATOM     21  C   UNL     1       1.410   4.507  19.435  0.00  0.00    +0.000 C 
BRANCH  21  22
ATOM     22  O   UNL     1       1.093   4.367  20.813  0.00  0.00    +0.000 OA
ATOM     23  H   UNL     1       1.300   5.218  21.234  0.00  0.00    +0.000 HD
ENDBRANCH  21  22
ENDBRANCH   6  21
TORSDOF 5
ENDMDL
MODEL 2
REMARK VINA RESULT:      -7.6      0.569      1.223
REMARK  Name = 
REMARK  11 active torsions:
REMARK  status: ('A' for Active; 'I' for Inactive)
REMARK    1  A    between atoms: C_1  and  C_2
REMARK    2  A    between atoms: C_5  and  C_6
REMARK    3  A    between atoms: C_8  and  C_9
REMARK    4  A    between atoms: C_9  and  C_10
REMARK    5  A    between atoms: C_9  and  C_11
REMARK    6  A    between atoms: C_9  and  C_12
REMARK    7  A    between atoms: C_14  and  C_15
REMARK    8  A    between atoms: C_15  and  C_16
REMARK    9  A    between atoms: C_15  and  C_17
REMARK   10  A    between atoms: C_18  and  C_19
REMARK   11  A    between atoms: C_19  and  O_20
REMARK                            x       y       z     vdW  Elec       q    Type
REMARK                         _______ _______ _______ _____ _____    ______ ____
ROOT
ATOM      1  C   UNL     1       3.234   6.233  18.626  0.00  0.00    +0.000 A 
ATOM      2  C   UNL     1       4.525   6.408  18.060  0.00  0.00    +0.000 A 
ATOM      3  C   UNL     1       5.414   5.360  17.795  0.00  0.00    +0.000 A 
ATOM      4  C   UNL     1       5.020   4.093  18.230  0.00  0.00    +0.000 A 
ATOM      5  C   UNL     1       3.770   3.837  18.845  0.00  0.00    +0.000 A 
ATOM      6  C   UNL     1       2.828   4.904  18.979  0.00  0.00    +0.000 A 
ENDROOT
BRANCH   1  11
ATOM      7  C   UNL     1      -0.229  10.886  19.430  0.00  0.00    +0.000 C 
ATOM      8  C   UNL     1       0.697   9.724  19.238  0.00  0.00    +0.000 A 
ATOM      9  C   UNL     1       1.071   8.910  20.310  0.00  0.00    +0.000 A 
ATOM     10  C   UNL     1       1.933   7.824  20.107  0.00  0.00    +0.000 A 
ATOM     11  C   UNL     1       2.419   7.477  18.828  0.00  0.00    +0.000 A 
ATOM     12  C   UNL     1       2.025   8.313  17.770  0.00  0.00    +0.000 A 
ATOM     13  C   UNL     1       1.215   9.440  17.977  0.00  0.00    +0.000 A 
ENDBRANCH   1  11
BRANCH   3  14
ATOM     14  C   UNL     1       6.780   5.607  17.126  0.00  0.00    +0.000 C 
ATOM     15  C   UNL     1       7.800   4.603  17.696  0.00  0.00    +0.000 C 
ATOM     16  C   UNL     1       6.722   5.434  15.590  0.00  0.00    +0.000 C 
ATOM     17  C   UNL     1       7.315   7.038  17.374  0.00  0.00    +0.000 C 
ENDBRANCH   3  14
BRANCH   5  18
ATOM     18  C   UNL     1       3.493   2.405  19.324  0.00  0.00    +0.000 C 
ATOM     19  C   UNL     1       3.523   1.420  18.151  0.00  0.00    +0.000 C 
ATOM     20  C   UNL     1       4.454   1.897  20.417  0.00  0.00    +0.000 C 
ENDBRANCH   5  18
BRANCH   6  21
ATOM     21  C   UNL     1       1.437   4.679  19.562  0.00  0.00    +0.000 C 
BRANCH  21  22
ATOM     22  O   UNL     1       1.386   4.427  20.959  0.00  0.00    +0.000 OA
ATOM     23  H   UNL     1       2.276   4.605  21.306  0.00  0.00    +0.000 HD
ENDBRANCH  21  22
ENDBRANCH   6  21
TORSDOF 5
ENDMDL
MODEL 3
REMARK VINA RESULT:      -7.5      0.587      1.190
REMARK  Name = 
REMARK  11 active torsions:
REMARK  status: ('A' for Active; 'I' for Inactive)
REMARK    1  A    between atoms: C_1  and  C_2
REMARK    2  A    between atoms: C_5  and  C_6
REMARK    3  A    between atoms: C_8  and  C_9
REMARK    4  A    between atoms: C_9  and  C_10
REMARK    5  A    between atoms: C_9  and  C_11
REMARK    6  A    between atoms: C_9  and  C_12
REMARK    7  A    between atoms: C_14  and  C_15
REMARK    8  A    between atoms: C_15  and  C_16
REMARK    9  A    between atoms: C_15  and  C_17
REMARK   10  A    between atoms: C_18  and  C_19
REMARK   11  A    between atoms: C_19  and  O_20
REMARK                            x       y       z     vdW  Elec       q    Type
REMARK                         _______ _______ _______ _____ _____    ______ ____
ROOT
ATOM      1  C   UNL     1       3.167   6.157  18.658  0.00  0.00    +0.000 A 
ATOM      2  C   UNL     1       4.442   6.346  18.058  0.00  0.00    +0.000 A 
ATOM      3  C   UNL     1       5.342   5.310  17.788  0.00  0.00    +0.000 A 
ATOM      4  C   UNL     1       4.982   4.043  18.251  0.00  0.00    +0.000 A 
ATOM      5  C   UNL     1       3.751   3.774  18.899  0.00  0.00    +0.000 A 
ATOM      6  C   UNL     1       2.794   4.827  19.040  0.00  0.00    +0.000 A 
ENDROOT
BRANCH   1  11
ATOM      7  C   UNL     1       0.216  11.153  19.442  0.00  0.00    +0.000 C 
ATOM      8  C   UNL     1       0.927   9.852  19.226  0.00  0.00    +0.000 A 
ATOM      9  C   UNL     1       1.385   9.477  17.962  0.00  0.00    +0.000 A 
ATOM     10  C   UNL     1       2.055   8.258  17.784  0.00  0.00    +0.000 A 
ATOM     11  C   UNL     1       2.336   7.389  18.861  0.00  0.00    +0.000 A 
ATOM     12  C   UNL     1       1.864   7.795  20.121  0.00  0.00    +0.000 A 
ATOM     13  C   UNL     1       1.136   8.982  20.294  0.00  0.00    +0.000 A 
ENDBRANCH   1  11
BRANCH   3  14
ATOM     14  C   UNL     1       6.687   5.570  17.083  0.00  0.00    +0.000 C 
ATOM     15  C   UNL     1       6.488   5.421  15.562  0.00  0.00    +0.000 C 
ATOM     16  C   UNL     1       7.237   6.988  17.372  0.00  0.00    +0.000 C 
ATOM     17  C   UNL     1       7.795   4.585  17.528  0.00  0.00    +0.000 C 
ENDBRANCH   3  14
BRANCH   5  18
ATOM     18  C   UNL     1       3.511   2.345  19.407  0.00  0.00    +0.000 C 
ATOM     19  C   UNL     1       3.546   1.341  18.249  0.00  0.00    +0.000 C 
ATOM     20  C   UNL     1       4.499   1.876  20.494  0.00  0.00    +0.000 C 
ENDBRANCH   5  18
BRANCH   6  21
ATOM     21  C   UNL     1       1.421   4.586  19.659  0.00  0.00    +0.000 C 
BRANCH  21  22
ATOM     22  O   UNL     1       1.407   4.368  21.063  0.00  0.00    +0.000 OA
ATOM     23  H   UNL     1       2.134   4.895  21.434  0.00  0.00    +0.000 HD
ENDBRANCH  21  22
ENDBRANCH   6  21
TORSDOF 5
ENDMDL
MODEL 4
REMARK VINA RESULT:      -7.4      1.971      4.237
REMARK  Name = 
REMARK  11 active torsions:
REMARK  status: ('A' for Active; 'I' for Inactive)
REMARK    1  A    between atoms: C_1  and  C_2
REMARK    2  A    between atoms: C_5  and  C_6
REMARK    3  A    between atoms: C_8  and  C_9
REMARK    4  A    between atoms: C_9  and  C_10
REMARK    5  A    between atoms: C_9  and  C_11
REMARK    6  A    between atoms: C_9  and  C_12
REMARK    7  A    between atoms: C_14  and  C_15
REMARK    8  A    between atoms: C_15  and  C_16
REMARK    9  A    between atoms: C_15  and  C_17
REMARK   10  A    between atoms: C_18  and  C_19
REMARK   11  A    between atoms: C_19  and  O_20
REMARK                            x       y       z     vdW  Elec       q    Type
REMARK                         _______ _______ _______ _____ _____    ______ ____
ROOT
ATOM      1  C   UNL     1       3.195   6.300  18.239  0.00  0.00    +0.000 A 
ATOM      2  C   UNL     1       2.654   5.073  18.711  0.00  0.00    +0.000 A 
ATOM      3  C   UNL     1       3.228   3.820  18.470  0.00  0.00    +0.000 A 
ATOM      4  C   UNL     1       4.332   3.801  17.616  0.00  0.00    +0.000 A 
ATOM      5  C   UNL     1       4.908   4.972  17.065  0.00  0.00    +0.000 A 
ATOM      6  C   UNL     1       4.383   6.248  17.439  0.00  0.00    +0.000 A 
ENDROOT
BRANCH   1  11
ATOM      7  C   UNL     1      -0.028  10.973  19.676  0.00  0.00    +0.000 C 
ATOM      8  C   UNL     1       0.838   9.802  19.325  0.00  0.00    +0.000 A 
ATOM      9  C   UNL     1       1.202   8.855  20.284  0.00  0.00    +0.000 A 
ATOM     10  C   UNL     1       2.008   7.764  19.932  0.00  0.00    +0.000 A 
ATOM     11  C   UNL     1       2.444   7.546  18.607  0.00  0.00    +0.000 A 
ATOM     12  C   UNL     1       2.061   8.515  17.664  0.00  0.00    +0.000 A 
ATOM     13  C   UNL     1       1.309   9.643  18.023  0.00  0.00    +0.000 A 
ENDBRANCH   1  11
BRANCH   3  14
ATOM     14  C   UNL     1       2.625   2.529  19.056  0.00  0.00    +0.000 C 
ATOM     15  C   UNL     1       3.459   1.327  18.571  0.00  0.00    +0.000 C 
ATOM     16  C   UNL     1       2.620   2.533  20.604  0.00  0.00    +0.000 C 
ATOM     17  C   UNL     1       1.155   2.307  18.625  0.00  0.00    +0.000 C 
ENDBRANCH   3  14
BRANCH   5  18
ATOM     18  C   UNL     1       6.087   4.798  16.097  0.00  0.00    +0.000 C 
ATOM     19  C   UNL     1       7.373   4.456  16.857  0.00  0.00    +0.000 C 
ATOM     20  C   UNL     1       5.866   3.735  15.002  0.00  0.00    +0.000 C 
ENDBRANCH   5  18
BRANCH   6  21
ATOM     21  C   UNL     1       5.005   7.549  16.941  0.00  0.00    +0.000 C 
BRANCH  21  22
ATOM     22  O   UNL     1       6.394   7.706  17.194  0.00  0.00    +0.000 OA
ATOM     23  H   UNL     1       6.470   8.249  17.996  0.00  0.00    +0.000 HD
ENDBRANCH  21  22
ENDBRANCH   6  21
TORSDOF 5
ENDMDL
MODEL 5
REMARK VINA RESULT:      -7.3      1.282      1.950
REMARK  Name = 
REMARK  11 active torsions:
REMARK  status: ('A' for Active; 'I' for Inactive)
REMARK    1  A    between atoms: C_1  and  C_2
REMARK    2  A    between atoms: C_5  and  C_6
REMARK    3  A    between atoms: C_8  and  C_9
REMARK    4  A    between atoms: C_9  and  C_10
REMARK    5  A    between atoms: C_9  and  C_11
REMARK    6  A    between atoms: C_9  and  C_12
REMARK    7  A    between atoms: C_14  and  C_15
REMARK    8  A    between atoms: C_15  and  C_16
REMARK    9  A    between atoms: C_15  and  C_17
REMARK   10  A    between atoms: C_18  and  C_19
REMARK   11  A    between atoms: C_19  and  O_20
REMARK                            x       y       z     vdW  Elec       q    Type
REMARK                         _______ _______ _______ _____ _____    ______ ____
ROOT
ATOM      1  C   UNL     1       2.863   6.249  18.829  0.00  0.00    +0.000 A 
ATOM      2  C   UNL     1       3.831   6.388  17.797  0.00  0.00    +0.000 A 
ATOM      3  C   UNL     1       4.553   5.321  17.252  0.00  0.00    +0.000 A 
ATOM      4  C   UNL     1       4.369   4.077  17.859  0.00  0.00    +0.000 A 
ATOM      5  C   UNL     1       3.458   3.859  18.921  0.00  0.00    +0.000 A 
ATOM      6  C   UNL     1       2.636   4.940  19.367  0.00  0.00    +0.000 A 
ENDROOT
BRANCH   1  11
ATOM      7  C   UNL     1      -0.092  10.990  20.583  0.00  0.00    +0.000 C 
ATOM      8  C   UNL     1       0.707   9.799  20.151  0.00  0.00    +0.000 A 
ATOM      9  C   UNL     1       1.036   8.781  21.049  0.00  0.00    +0.000 A 
ATOM     10  C   UNL     1       1.778   7.672  20.622  0.00  0.00    +0.000 A 
ATOM     11  C   UNL     1       2.183   7.509  19.279  0.00  0.00    +0.000 A 
ATOM     12  C   UNL     1       1.837   8.548  18.399  0.00  0.00    +0.000 A 
ATOM     13  C   UNL     1       1.151   9.691  18.834  0.00  0.00    +0.000 A 
ENDBRANCH   1  11
BRANCH   3  14
ATOM     14  C   UNL     1       5.549   5.526  16.094  0.00  0.00    +0.000 C 
ATOM     15  C   UNL     1       5.139   6.783  15.303  0.00  0.00    +0.000 C 
ATOM     16  C   UNL     1       7.002   5.710  16.595  0.00  0.00    +0.000 C 
ATOM     17  C   UNL     1       5.584   4.326  15.117  0.00  0.00    +0.000 C 
ENDBRANCH   3  14
BRANCH   5  18
ATOM     18  C   UNL     1       3.399   2.451  19.531  0.00  0.00    +0.000 C 
ATOM     19  C   UNL     1       3.477   1.379  18.438  0.00  0.00    +0.000 C 
ATOM     20  C   UNL     1       4.489   2.161  20.583  0.00  0.00    +0.000 C 
ENDBRANCH   5  18
BRANCH   6  21
ATOM     21  C   UNL     1       1.583   4.754  20.454  0.00  0.00    +0.000 C 
BRANCH  21  22
ATOM     22  O   UNL     1       0.480   3.926  20.111  0.00  0.00    +0.000 OA
ATOM     23  H   UNL     1       0.849   3.129  19.696  0.00  0.00    +0.000 HD
ENDBRANCH  21  22
ENDBRANCH   6  21
TORSDOF 5
ENDMDL
MODEL 6
REMARK VINA RESULT:      -7.3      0.529      1.467
REMARK  Name = 
REMARK  11 active torsions:
REMARK  status: ('A' for Active; 'I' for Inactive)
REMARK    1  A    between atoms: C_1  and  C_2
REMARK    2  A    between atoms: C_5  and  C_6
REMARK    3  A    between atoms: C_8  and  C_9
REMARK    4  A    between atoms: C_9  and  C_10
REMARK    5  A    between atoms: C_9  and  C_11
REMARK    6  A    between atoms: C_9  and  C_12
REMARK    7  A    between atoms: C_14  and  C_15
REMARK    8  A    between atoms: C_15  and  C_16
REMARK    9  A    between atoms: C_15  and  C_17
REMARK   10  A    between atoms: C_18  and  C_19
REMARK   11  A    between atoms: C_19  and  O_20
REMARK                            x       y       z     vdW  Elec       q    Type
REMARK                         _______ _______ _______ _____ _____    ______ ____
ROOT
ATOM      1  C   UNL     1       3.378   6.195  18.919  0.00  0.00    +0.000 A 
ATOM      2  C   UNL     1       4.745   6.420  18.605  0.00  0.00    +0.000 A 
ATOM      3  C   UNL     1       5.702   5.405  18.495  0.00  0.00    +0.000 A 
ATOM      4  C   UNL     1       5.277   4.118  18.831  0.00  0.00    +0.000 A 
ATOM      5  C   UNL     1       3.943   3.812  19.199  0.00  0.00    +0.000 A 
ATOM      6  C   UNL     1       2.958   4.847  19.171  0.00  0.00    +0.000 A 
ENDROOT
BRANCH   1  11
ATOM      7  C   UNL     1      -0.327  10.722  19.182  0.00  0.00    +0.000 C 
ATOM      8  C   UNL     1       0.659   9.595  19.129  0.00  0.00    +0.000 A 
ATOM      9  C   UNL     1       0.990   8.868  20.274  0.00  0.00    +0.000 A 
ATOM     10  C   UNL     1       1.910   7.813  20.202  0.00  0.00    +0.000 A 
ATOM     11  C   UNL     1       2.499   7.410  18.984  0.00  0.00    +0.000 A 
ATOM     12  C   UNL     1       2.144   8.159  17.849  0.00  0.00    +0.000 A 
ATOM     13  C   UNL     1       1.275   9.257  17.926  0.00  0.00    +0.000 A 
ENDBRANCH   1  11
BRANCH   3  14
ATOM     14  C   UNL     1       7.159   5.706  18.095  0.00  0.00    +0.000 C 
ATOM     15  C   UNL     1       7.657   4.591  17.156  0.00  0.00    +0.000 C 
ATOM     16  C   UNL     1       7.300   7.064  17.367  0.00  0.00    +0.000 C 
ATOM     17  C   UNL     1       8.110   5.775  19.315  0.00  0.00    +0.000 C 
ENDBRANCH   3  14
BRANCH   5  18
ATOM     18  C   UNL     1       3.630   2.363  19.598  0.00  0.00    +0.000 C 
ATOM     19  C   UNL     1       3.518   1.467  18.360  0.00  0.00    +0.000 C 
ATOM     20  C   UNL     1       4.645   1.732  20.572  0.00  0.00    +0.000 C 
ENDBRANCH   5  18
BRANCH   6  21
ATOM     21  C   UNL     1       1.491   4.569  19.482  0.00  0.00    +0.000 C 
BRANCH  21  22
ATOM     22  O   UNL     1       0.819   3.710  18.572  0.00  0.00    +0.000 OA
ATOM     23  H   UNL     1       1.284   2.857  18.599  0.00  0.00    +0.000 HD
ENDBRANCH  21  22
ENDBRANCH   6  21
TORSDOF 5
ENDMDL
MODEL 7
REMARK VINA RESULT:      -7.3      1.206      1.546
REMARK  Name = 
REMARK  11 active torsions:
REMARK  status: ('A' for Active; 'I' for Inactive)
REMARK    1  A    between atoms: C_1  and  C_2
REMARK    2  A    between atoms: C_5  and  C_6
REMARK    3  A    between atoms: C_8  and  C_9
REMARK    4  A    between atoms: C_9  and  C_10
REMARK    5  A    between atoms: C_9  and  C_11
REMARK    6  A    between atoms: C_9  and  C_12
REMARK    7  A    between atoms: C_14  and  C_15
REMARK    8  A    between atoms: C_15  and  C_16
REMARK    9  A    between atoms: C_15  and  C_17
REMARK   10  A    between atoms: C_18  and  C_19
REMARK   11  A    between atoms: C_19  and  O_20
REMARK                            x       y       z     vdW  Elec       q    Type
REMARK                         _______ _______ _______ _____ _____    ______ ____
ROOT
ATOM      1  C   UNL     1       2.820   6.234  18.876  0.00  0.00    +0.000 A 
ATOM      2  C   UNL     1       3.837   6.401  17.898  0.00  0.00    +0.000 A 
ATOM      3  C   UNL     1       4.609   5.354  17.384  0.00  0.00    +0.000 A 
ATOM      4  C   UNL     1       4.421   4.102  17.974  0.00  0.00    +0.000 A 
ATOM      5  C   UNL     1       3.462   3.857  18.987  0.00  0.00    +0.000 A 
ATOM      6  C   UNL     1       2.594   4.917  19.395  0.00  0.00    +0.000 A 
ENDROOT
BRANCH   1  11
ATOM      7  C   UNL     1       0.277  11.245  20.524  0.00  0.00    +0.000 C 
ATOM      8  C   UNL     1       0.882   9.946  20.087  0.00  0.00    +0.000 A 
ATOM      9  C   UNL     1       1.251   9.728  18.759  0.00  0.00    +0.000 A 
ATOM     10  C   UNL     1       1.822   8.508  18.373  0.00  0.00    +0.000 A 
ATOM     11  C   UNL     1       2.090   7.476  19.298  0.00  0.00    +0.000 A 
ATOM     12  C   UNL     1       1.709   7.725  20.628  0.00  0.00    +0.000 A 
ATOM     13  C   UNL     1       1.078   8.918  21.008  0.00  0.00    +0.000 A 
ENDBRANCH   1  11
BRANCH   3  14
ATOM     14  C   UNL     1       5.659   5.588  16.281  0.00  0.00    +0.000 C 
ATOM     15  C   UNL     1       5.873   4.271  15.511  0.00  0.00    +0.000 C 
ATOM     16  C   UNL     1       5.223   6.682  15.278  0.00  0.00    +0.000 C 
ATOM     17  C   UNL     1       7.026   6.048  16.846  0.00  0.00    +0.000 C 
ENDBRANCH   3  14
BRANCH   5  18
ATOM     18  C   UNL     1       3.403   2.444  19.584  0.00  0.00    +0.000 C 
ATOM     19  C   UNL     1       3.404   1.383  18.479  0.00  0.00    +0.000 C 
ATOM     20  C   UNL     1       4.535   2.120  20.579  0.00  0.00    +0.000 C 
ENDBRANCH   5  18
BRANCH   6  21
ATOM     21  C   UNL     1       1.491   4.701  20.425  0.00  0.00    +0.000 C 
BRANCH  21  22
ATOM     22  O   UNL     1       0.478   3.774  20.060  0.00  0.00    +0.000 OA
ATOM     23  H   UNL     1       0.283   3.248  20.854  0.00  0.00    +0.000 HD
ENDBRANCH  21  22
ENDBRANCH   6  21
TORSDOF 5
ENDMDL
MODEL 8
REMARK VINA RESULT:      -7.1      1.959      4.109
REMARK  Name = 
REMARK  11 active torsions:
REMARK  status: ('A' for Active; 'I' for Inactive)
REMARK    1  A    between atoms: C_1  and  C_2
REMARK    2  A    between atoms: C_5  and  C_6
REMARK    3  A    between atoms: C_8  and  C_9
REMARK    4  A    between atoms: C_9  and  C_10
REMARK    5  A    between atoms: C_9  and  C_11
REMARK    6  A    between atoms: C_9  and  C_12
REMARK    7  A    between atoms: C_14  and  C_15
REMARK    8  A    between atoms: C_15  and  C_16
REMARK    9  A    between atoms: C_15  and  C_17
REMARK   10  A    between atoms: C_18  and  C_19
REMARK   11  A    between atoms: C_19  and  O_20
REMARK                            x       y       z     vdW  Elec       q    Type
REMARK                         _______ _______ _______ _____ _____    ______ ____
ROOT
ATOM      1  C   UNL     1       3.167   6.276  18.253  0.00  0.00    +0.000 A 
ATOM      2  C   UNL     1       2.643   5.042  18.726  0.00  0.00    +0.000 A 
ATOM      3  C   UNL     1       3.242   3.798  18.499  0.00  0.00    +0.000 A 
ATOM      4  C   UNL     1       4.356   3.795  17.659  0.00  0.00    +0.000 A 
ATOM      5  C   UNL     1       4.918   4.973  17.108  0.00  0.00    +0.000 A 
ATOM      6  C   UNL     1       4.365   6.242  17.467  0.00  0.00    +0.000 A 
ENDROOT
BRANCH   1  11
ATOM      7  C   UNL     1       0.432  11.265  19.638  0.00  0.00    +0.000 C 
ATOM      8  C   UNL     1       1.087   9.970  19.267  0.00  0.00    +0.000 A 
ATOM      9  C   UNL     1       1.525   9.726  17.964  0.00  0.00    +0.000 A 
ATOM     10  C   UNL     1       2.142   8.510  17.640  0.00  0.00    +0.000 A 
ATOM     11  C   UNL     1       2.389   7.510  18.605  0.00  0.00    +0.000 A 
ATOM     12  C   UNL     1       1.938   7.785  19.907  0.00  0.00    +0.000 A 
ATOM     13  C   UNL     1       1.262   8.972  20.224  0.00  0.00    +0.000 A 
ENDBRANCH   1  11
BRANCH   3  14
ATOM     14  C   UNL     1       2.656   2.500  19.087  0.00  0.00    +0.000 C 
ATOM     15  C   UNL     1       3.495   1.307  18.587  0.00  0.00    +0.000 C 
ATOM     16  C   UNL     1       2.667   2.497  20.634  0.00  0.00    +0.000 C 
ATOM     17  C   UNL     1       1.184   2.267  18.670  0.00  0.00    +0.000 C 
ENDBRANCH   3  14
BRANCH   5  18
ATOM     18  C   UNL     1       6.110   4.815  16.154  0.00  0.00    +0.000 C 
ATOM     19  C   UNL     1       7.386   4.466  16.928  0.00  0.00    +0.000 C 
ATOM     20  C   UNL     1       5.908   3.767  15.041  0.00  0.00    +0.000 C 
ENDBRANCH   5  18
BRANCH   6  21
ATOM     21  C   UNL     1       4.968   7.551  16.969  0.00  0.00    +0.000 C 
BRANCH  21  22
ATOM     22  O   UNL     1       6.364   7.708  17.182  0.00  0.00    +0.000 OA
ATOM     23  H   UNL     1       6.476   7.964  18.112  0.00  0.00    +0.000 HD
ENDBRANCH  21  22
ENDBRANCH   6  21
TORSDOF 5
ENDMDL
MODEL 9
REMARK VINA RESULT:      -7.0      0.436      1.259
REMARK  Name = 
REMARK  11 active torsions:
REMARK  status: ('A' for Active; 'I' for Inactive)
REMARK    1  A    between atoms: C_1  and  C_2
REMARK    2  A    between atoms: C_5  and  C_6
REMARK    3  A    between atoms: C_8  and  C_9
REMARK    4  A    between atoms: C_9  and  C_10
REMARK    5  A    between atoms: C_9  and  C_11
REMARK    6  A    between atoms: C_9  and  C_12
REMARK    7  A    between atoms: C_14  and  C_15
REMARK    8  A    between atoms: C_15  and  C_16
REMARK    9  A    between atoms: C_15  and  C_17
REMARK   10  A    between atoms: C_18  and  C_19
REMARK   11  A    between atoms: C_19  and  O_20
REMARK                            x       y       z     vdW  Elec       q    Type
REMARK                         _______ _______ _______ _____ _____    ______ ____
ROOT
ATOM      1  C   UNL     1       3.283   6.186  18.852  0.00  0.00    +0.000 A 
ATOM      2  C   UNL     1       4.659   6.416  18.580  0.00  0.00    +0.000 A 
ATOM      3  C   UNL     1       5.617   5.402  18.474  0.00  0.00    +0.000 A 
ATOM      4  C   UNL     1       5.181   4.109  18.770  0.00  0.00    +0.000 A 
ATOM      5  C   UNL     1       3.838   3.796  19.094  0.00  0.00    +0.000 A 
ATOM      6  C   UNL     1       2.855   4.834  19.062  0.00  0.00    +0.000 A 
ENDROOT
BRANCH   1  11
ATOM      7  C   UNL     1       0.141  11.121  19.109  0.00  0.00    +0.000 C 
ATOM      8  C   UNL     1       0.903   9.833  19.028  0.00  0.00    +0.000 A 
ATOM      9  C   UNL     1       1.440   9.383  17.820  0.00  0.00    +0.000 A 
ATOM     10  C   UNL     1       2.155   8.179  17.768  0.00  0.00    +0.000 A 
ATOM     11  C   UNL     1       2.404   7.400  18.919  0.00  0.00    +0.000 A 
ATOM     12  C   UNL     1       1.852   7.880  20.119  0.00  0.00    +0.000 A 
ATOM     13  C   UNL     1       1.080   9.050  20.166  0.00  0.00    +0.000 A 
ENDBRANCH   1  11
BRANCH   3  14
ATOM     14  C   UNL     1       7.084   5.709  18.121  0.00  0.00    +0.000 C 
ATOM     15  C   UNL     1       7.617   4.596  17.198  0.00  0.00    +0.000 C 
ATOM     16  C   UNL     1       7.243   7.068  17.398  0.00  0.00    +0.000 C 
ATOM     17  C   UNL     1       7.996   5.782  19.370  0.00  0.00    +0.000 C 
ENDBRANCH   3  14
BRANCH   5  18
ATOM     18  C   UNL     1       3.512   2.340  19.453  0.00  0.00    +0.000 C 
ATOM     19  C   UNL     1       3.297   2.184  20.962  0.00  0.00    +0.000 C 
ATOM     20  C   UNL     1       2.288   1.757  18.719  0.00  0.00    +0.000 C 
ENDBRANCH   5  18
BRANCH   6  21
ATOM     21  C   UNL     1       1.380   4.551  19.327  0.00  0.00    +0.000 C 
BRANCH  21  22
ATOM     22  O   UNL     1       0.980   4.582  20.690  0.00  0.00    +0.000 OA
ATOM     23  H   UNL     1       1.685   5.043  21.176  0.00  0.00    +0.000 HD
ENDBRANCH  21  22
ENDBRANCH   6  21
TORSDOF 5
ENDMDL
