MODEL 1
REMARK VINA RESULT:      -8.8      0.000      0.000
REMARK  Name = 
REMARK  5 active torsions:
REMARK  status: ('A' for Active; 'I' for Inactive)
REMARK    1  A    between atoms: C_2  and  C_3
REMARK    2  A    between atoms: C_2  and  O_11
REMARK    3  A    between atoms: C_4  and  C_5
REMARK    4  A    between atoms: O_11  and  C_12
REMARK    5  A    between atoms: C_12  and  N_13
REMARK                            x       y       z     vdW  Elec       q    Type
REMARK                         _______ _______ _______ _____ _____    ______ ____
ROOT
ATOM      1  C   UNL     1       5.016   6.716  16.823  0.00  0.00    +0.000 C 
ENDROOT
BRANCH   1   2
ATOM      2  N   UNL     1       4.127   5.701  17.319  0.00  0.00    +0.000 N 
ATOM      3  C   UNL     1       4.214   4.383  16.981  0.00  0.00    +0.000 C 
ATOM      4  O   UNL     1       4.991   3.830  16.224  0.00  0.00    +0.000 OA
ATOM      5  C   UNL     1       3.164   3.695  17.721  0.00  0.00    +0.000 A 
ATOM      6  C   UNL     1       2.845   2.354  17.773  0.00  0.00    +0.000 A 
ATOM      7  C   UNL     1       1.762   1.986  18.576  0.00  0.00    +0.000 A 
ATOM      8  C   UNL     1       1.034   2.957  19.295  0.00  0.00    +0.000 A 
ATOM      9  C   UNL     1       1.392   4.309  19.243  0.00  0.00    +0.000 A 
ATOM     10  C   UNL     1       2.470   4.647  18.448  0.00  0.00    +0.000 A 
ATOM     11  C   UNL     1       3.110   5.940  18.201  0.00  0.00    +0.000 C 
ATOM     12  O   UNL     1       2.772   6.982  18.729  0.00  0.00    +0.000 OA
ENDBRANCH   1   2
BRANCH   1  13
ATOM     13  O   UNL     1       6.040   6.933  17.798  0.00  0.00    +0.000 OA
BRANCH  13  15
ATOM     14  O   UNL     1       7.717   6.545  16.278  0.00  0.00    +0.000 OA
ATOM     15  C   UNL     1       7.276   7.094  17.277  0.00  0.00    +0.000 C 
BRANCH  15  16
ATOM     16  C   UNL     1       8.093   8.062  18.036  0.00  0.00    +0.000 C 
ATOM     17  C   UNL     1       8.224   9.366  17.748  0.00  0.00    +0.000 C 
BRANCH  17  18
ATOM     18  C   UNL     1       9.118  10.281  18.481  0.00  0.00    +0.000 A 
ATOM     19  C   UNL     1       9.074  10.286  19.883  0.00  0.00    +0.000 A 
ATOM     20  C   UNL     1       9.897  11.142  20.623  0.00  0.00    +0.000 A 
ATOM     21  C   UNL     1      10.780  11.997  19.971  0.00  0.00    +0.000 A 
ATOM     22  C   UNL     1      10.850  11.989  18.581  0.00  0.00    +0.000 A 
ATOM     23  C   UNL     1      10.031  11.132  17.840  0.00  0.00    +0.000 A 
ENDBRANCH  17  18
ENDBRANCH  15  16
ENDBRANCH  13  15
ENDBRANCH   1  13
TORSDOF 5
ENDMDL
MODEL 2
REMARK VINA RESULT:      -8.7      0.443      2.093
REMARK  Name = 
REMARK  5 active torsions:
REMARK  status: ('A' for Active; 'I' for Inactive)
REMARK    1  A    between atoms: C_2  and  C_3
REMARK    2  A    between atoms: C_2  and  O_11
REMARK    3  A    between atoms: C_4  and  C_5
REMARK    4  A    between atoms: O_11  and  C_12
REMARK    5  A    between atoms: C_12  and  N_13
REMARK                            x       y       z     vdW  Elec       q    Type
REMARK                         _______ _______ _______ _____ _____    ______ ____
ROOT
ATOM      1  C   UNL     1       5.028   6.631  17.184  0.00  0.00    +0.000 C 
ENDROOT
BRANCH   1   2
ATOM      2  N   UNL     1       4.116   5.630  17.669  0.00  0.00    +0.000 N 
ATOM      3  C   UNL     1       3.143   5.872  18.593  0.00  0.00    +0.000 C 
ATOM      4  O   UNL     1       2.875   6.905  19.179  0.00  0.00    +0.000 OA
ATOM      5  C   UNL     1       2.426   4.617  18.778  0.00  0.00    +0.000 A 
ATOM      6  C   UNL     1       1.331   4.325  19.565  0.00  0.00    +0.000 A 
ATOM      7  C   UNL     1       0.862   3.009  19.543  0.00  0.00    +0.000 A 
ATOM      8  C   UNL     1       1.494   2.030  18.748  0.00  0.00    +0.000 A 
ATOM      9  C   UNL     1       2.590   2.357  17.940  0.00  0.00    +0.000 A 
ATOM     10  C   UNL     1       3.030   3.666  17.973  0.00  0.00    +0.000 A 
ATOM     11  C   UNL     1       4.110   4.332  17.242  0.00  0.00    +0.000 C 
ATOM     12  O   UNL     1       4.810   3.786  16.411  0.00  0.00    +0.000 OA
ENDBRANCH   1   2
BRANCH   1  13
ATOM     13  O   UNL     1       6.232   6.552  17.952  0.00  0.00    +0.000 OA
BRANCH  13  15
ATOM     14  O   UNL     1       7.720   6.545  16.203  0.00  0.00    +0.000 OA
ATOM     15  C   UNL     1       7.338   6.955  17.289  0.00  0.00    +0.000 C 
BRANCH  15  16
ATOM     16  C   UNL     1       8.081   8.009  18.009  0.00  0.00    +0.000 C 
ATOM     17  C   UNL     1       8.016   9.324  17.746  0.00  0.00    +0.000 C 
BRANCH  17  18
ATOM     18  C   UNL     1       8.839  10.337  18.431  0.00  0.00    +0.000 A 
ATOM     19  C   UNL     1       9.131  11.533  17.760  0.00  0.00    +0.000 A 
ATOM     20  C   UNL     1       9.915  12.522  18.365  0.00  0.00    +0.000 A 
ATOM     21  C   UNL     1      10.410  12.330  19.651  0.00  0.00    +0.000 A 
ATOM     22  C   UNL     1      10.112  11.157  20.339  0.00  0.00    +0.000 A 
ATOM     23  C   UNL     1       9.325  10.170  19.737  0.00  0.00    +0.000 A 
ENDBRANCH  17  18
ENDBRANCH  15  16
ENDBRANCH  13  15
ENDBRANCH   1  13
TORSDOF 5
ENDMDL
MODEL 3
REMARK VINA RESULT:      -8.7      0.437      1.866
REMARK  Name = 
REMARK  5 active torsions:
REMARK  status: ('A' for Active; 'I' for Inactive)
REMARK    1  A    between atoms: C_2  and  C_3
REMARK    2  A    between atoms: C_2  and  O_11
REMARK    3  A    between atoms: C_4  and  C_5
REMARK    4  A    between atoms: O_11  and  C_12
REMARK    5  A    between atoms: C_12  and  N_13
REMARK                            x       y       z     vdW  Elec       q    Type
REMARK                         _______ _______ _______ _____ _____    ______ ____
ROOT
ATOM      1  C   UNL     1       5.322   6.644  16.360  0.00  0.00    +0.000 C 
ENDROOT
BRANCH   1   2
ATOM      2  N   UNL     1       4.460   5.661  16.957  0.00  0.00    +0.000 N 
ATOM      3  C   UNL     1       3.380   5.966  17.731  0.00  0.00    +0.000 C 
ATOM      4  O   UNL     1       2.961   7.056  18.076  0.00  0.00    +0.000 OA
ATOM      5  C   UNL     1       2.764   4.699  18.103  0.00  0.00    +0.000 A 
ATOM      6  C   UNL     1       1.625   4.445  18.839  0.00  0.00    +0.000 A 
ATOM      7  C   UNL     1       1.282   3.105  19.041  0.00  0.00    +0.000 A 
ATOM      8  C   UNL     1       2.077   2.068  18.511  0.00  0.00    +0.000 A 
ATOM      9  C   UNL     1       3.216   2.353  17.748  0.00  0.00    +0.000 A 
ATOM     10  C   UNL     1       3.531   3.684  17.556  0.00  0.00    +0.000 A 
ATOM     11  C   UNL     1       4.615   4.312  16.799  0.00  0.00    +0.000 C 
ATOM     12  O   UNL     1       5.443   3.698  16.154  0.00  0.00    +0.000 OA
ENDBRANCH   1   2
BRANCH   1  13
ATOM     13  O   UNL     1       6.035   7.311  17.406  0.00  0.00    +0.000 OA
BRANCH  13  15
ATOM     14  O   UNL     1       7.826   5.905  17.102  0.00  0.00    +0.000 OA
ATOM     15  C   UNL     1       7.332   6.945  17.512  0.00  0.00    +0.000 C 
BRANCH  15  16
ATOM     16  C   UNL     1       8.160   7.971  18.177  0.00  0.00    +0.000 C 
ATOM     17  C   UNL     1       8.194   9.273  17.856  0.00  0.00    +0.000 C 
BRANCH  17  18
ATOM     18  C   UNL     1       9.100  10.249  18.488  0.00  0.00    +0.000 A 
ATOM     19  C   UNL     1       9.135  10.326  19.888  0.00  0.00    +0.000 A 
ATOM     20  C   UNL     1       9.972  11.242  20.535  0.00  0.00    +0.000 A 
ATOM     21  C   UNL     1      10.791  12.086  19.791  0.00  0.00    +0.000 A 
ATOM     22  C   UNL     1      10.782  12.008  18.401  0.00  0.00    +0.000 A 
ATOM     23  C   UNL     1       9.949  11.091  17.754  0.00  0.00    +0.000 A 
ENDBRANCH  17  18
ENDBRANCH  15  16
ENDBRANCH  13  15
ENDBRANCH   1  13
TORSDOF 5
ENDMDL
MODEL 4
REMARK VINA RESULT:      -8.6      4.109      5.206
REMARK  Name = 
REMARK  5 active torsions:
REMARK  status: ('A' for Active; 'I' for Inactive)
REMARK    1  A    between atoms: C_2  and  C_3
REMARK    2  A    between atoms: C_2  and  O_11
REMARK    3  A    between atoms: C_4  and  C_5
REMARK    4  A    between atoms: O_11  and  C_12
REMARK    5  A    between atoms: C_12  and  N_13
REMARK                            x       y       z     vdW  Elec       q    Type
REMARK                         _______ _______ _______ _____ _____    ______ ____
ROOT
ATOM      1  C   UNL     1       5.095   3.798  16.534  0.00  0.00    +0.000 C 
ENDROOT
BRANCH   1   2
ATOM      2  N   UNL     1       4.187   3.620  17.634  0.00  0.00    +0.000 N 
ATOM      3  C   UNL     1       4.564   3.650  18.944  0.00  0.00    +0.000 C 
ATOM      4  O   UNL     1       5.674   3.799  19.424  0.00  0.00    +0.000 OA
ATOM      5  C   UNL     1       3.351   3.468  19.730  0.00  0.00    +0.000 A 
ATOM      6  C   UNL     1       3.169   3.462  21.097  0.00  0.00    +0.000 A 
ATOM      7  C   UNL     1       1.870   3.251  21.567  0.00  0.00    +0.000 A 
ATOM      8  C   UNL     1       0.801   3.053  20.669  0.00  0.00    +0.000 A 
ATOM      9  C   UNL     1       1.008   3.086  19.285  0.00  0.00    +0.000 A 
ATOM     10  C   UNL     1       2.299   3.303  18.845  0.00  0.00    +0.000 A 
ATOM     11  C   UNL     1       2.842   3.422  17.491  0.00  0.00    +0.000 C 
ATOM     12  O   UNL     1       2.170   3.374  16.479  0.00  0.00    +0.000 OA
ENDBRANCH   1   2
BRANCH   1  13
ATOM     13  O   UNL     1       4.843   5.077  15.945  0.00  0.00    +0.000 OA
BRANCH  13  15
ATOM     14  O   UNL     1       6.597   6.503  16.351  0.00  0.00    +0.000 OA
ATOM     15  C   UNL     1       5.462   6.104  16.567  0.00  0.00    +0.000 C 
BRANCH  15  16
ATOM     16  C   UNL     1       4.601   6.766  17.568  0.00  0.00    +0.000 C 
ATOM     17  C   UNL     1       3.292   7.025  17.420  0.00  0.00    +0.000 C 
BRANCH  17  18
ATOM     18  C   UNL     1       2.487   7.765  18.409  0.00  0.00    +0.000 A 
ATOM     19  C   UNL     1       1.918   8.990  18.032  0.00  0.00    +0.000 A 
ATOM     20  C   UNL     1       1.153   9.734  18.937  0.00  0.00    +0.000 A 
ATOM     21  C   UNL     1       0.940   9.257  20.227  0.00  0.00    +0.000 A 
ATOM     22  C   UNL     1       1.481   8.033  20.610  0.00  0.00    +0.000 A 
ATOM     23  C   UNL     1       2.243   7.288  19.705  0.00  0.00    +0.000 A 
ENDBRANCH  17  18
ENDBRANCH  15  16
ENDBRANCH  13  15
ENDBRANCH   1  13
TORSDOF 5
ENDMDL
MODEL 5
REMARK VINA RESULT:      -8.6      4.053      5.112
REMARK  Name = 
REMARK  5 active torsions:
REMARK  status: ('A' for Active; 'I' for Inactive)
REMARK    1  A    between atoms: C_2  and  C_3
REMARK    2  A    between atoms: C_2  and  O_11
REMARK    3  A    between atoms: C_4  and  C_5
REMARK    4  A    between atoms: O_11  and  C_12
REMARK    5  A    between atoms: C_12  and  N_13
REMARK                            x       y       z     vdW  Elec       q    Type
REMARK                         _______ _______ _______ _____ _____    ______ ____
ROOT
ATOM      1  C   UNL     1       5.091   3.876  16.411  0.00  0.00    +0.000 C 
ENDROOT
BRANCH   1   2
ATOM      2  N   UNL     1       4.221   3.647  17.532  0.00  0.00    +0.000 N 
ATOM      3  C   UNL     1       4.632   3.678  18.832  0.00  0.00    +0.000 C 
ATOM      4  O   UNL     1       5.747   3.866  19.284  0.00  0.00    +0.000 OA
ATOM      5  C   UNL     1       3.449   3.435  19.646  0.00  0.00    +0.000 A 
ATOM      6  C   UNL     1       3.304   3.405  21.018  0.00  0.00    +0.000 A 
ATOM      7  C   UNL     1       2.028   3.135  21.519  0.00  0.00    +0.000 A 
ATOM      8  C   UNL     1       0.944   2.902  20.647  0.00  0.00    +0.000 A 
ATOM      9  C   UNL     1       1.112   2.962  19.258  0.00  0.00    +0.000 A 
ATOM     10  C   UNL     1       2.381   3.237  18.787  0.00  0.00    +0.000 A 
ATOM     11  C   UNL     1       2.883   3.396  17.421  0.00  0.00    +0.000 C 
ATOM     12  O   UNL     1       2.186   3.331  16.426  0.00  0.00    +0.000 OA
ENDBRANCH   1   2
BRANCH   1  13
ATOM     13  O   UNL     1       4.819   5.180  15.889  0.00  0.00    +0.000 OA
BRANCH  13  15
ATOM     14  O   UNL     1       6.674   6.452  16.349  0.00  0.00    +0.000 OA
ATOM     15  C   UNL     1       5.495   6.175  16.505  0.00  0.00    +0.000 C 
BRANCH  15  16
ATOM     16  C   UNL     1       4.640   6.965  17.414  0.00  0.00    +0.000 C 
ATOM     17  C   UNL     1       3.301   6.897  17.480  0.00  0.00    +0.000 C 
BRANCH  17  18
ATOM     18  C   UNL     1       2.479   7.766  18.342  0.00  0.00    +0.000 A 
ATOM     19  C   UNL     1       2.261   7.382  19.673  0.00  0.00    +0.000 A 
ATOM     20  C   UNL     1       1.481   8.169  20.527  0.00  0.00    +0.000 A 
ATOM     21  C   UNL     1       0.917   9.354  20.064  0.00  0.00    +0.000 A 
ATOM     22  C   UNL     1       1.142   9.759  18.752  0.00  0.00    +0.000 A 
ATOM     23  C   UNL     1       1.924   8.975  17.898  0.00  0.00    +0.000 A 
ENDBRANCH  17  18
ENDBRANCH  15  16
ENDBRANCH  13  15
ENDBRANCH   1  13
TORSDOF 5
ENDMDL
MODEL 6
REMARK VINA RESULT:      -8.4      4.165      6.617
REMARK  Name = 
REMARK  5 active torsions:
REMARK  status: ('A' for Active; 'I' for Inactive)
REMARK    1  A    between atoms: C_2  and  C_3
REMARK    2  A    between atoms: C_2  and  O_11
REMARK    3  A    between atoms: C_4  and  C_5
REMARK    4  A    between atoms: O_11  and  C_12
REMARK    5  A    between atoms: C_12  and  N_13
REMARK                            x       y       z     vdW  Elec       q    Type
REMARK                         _______ _______ _______ _____ _____    ______ ____
ROOT
ATOM      1  C   UNL     1       2.558   1.711  19.342  0.00  0.00    +0.000 C 
ENDROOT
BRANCH   1   2
ATOM      2  N   UNL     1       3.424   2.731  18.818  0.00  0.00    +0.000 N 
ATOM      3  C   UNL     1       3.161   3.444  17.686  0.00  0.00    +0.000 C 
ATOM      4  O   UNL     1       2.218   3.356  16.920  0.00  0.00    +0.000 OA
ATOM      5  C   UNL     1       4.257   4.390  17.527  0.00  0.00    +0.000 A 
ATOM      6  C   UNL     1       4.458   5.368  16.574  0.00  0.00    +0.000 A 
ATOM      7  C   UNL     1       5.626   6.128  16.676  0.00  0.00    +0.000 A 
ATOM      8  C   UNL     1       6.552   5.892  17.713  0.00  0.00    +0.000 A 
ATOM      9  C   UNL     1       6.314   4.909  18.682  0.00  0.00    +0.000 A 
ATOM     10  C   UNL     1       5.149   4.176  18.564  0.00  0.00    +0.000 A 
ATOM     11  C   UNL     1       4.595   3.116  19.407  0.00  0.00    +0.000 C 
ATOM     12  O   UNL     1       5.113   2.720  20.434  0.00  0.00    +0.000 OA
ENDBRANCH   1   2
BRANCH   1  13
ATOM     13  O   UNL     1       1.351   2.333  19.793  0.00  0.00    +0.000 OA
BRANCH  13  15
ATOM     14  O   UNL     1       1.861   3.028  21.922  0.00  0.00    +0.000 OA
ATOM     15  C   UNL     1       1.532   3.252  20.767  0.00  0.00    +0.000 C 
BRANCH  15  16
ATOM     16  C   UNL     1       1.316   4.634  20.292  0.00  0.00    +0.000 C 
ATOM     17  C   UNL     1       2.164   5.660  20.468  0.00  0.00    +0.000 C 
BRANCH  17  18
ATOM     18  C   UNL     1       1.871   7.044  20.054  0.00  0.00    +0.000 A 
ATOM     19  C   UNL     1       1.256   7.906  20.974  0.00  0.00    +0.000 A 
ATOM     20  C   UNL     1       0.951   9.226  20.626  0.00  0.00    +0.000 A 
ATOM     21  C   UNL     1       1.264   9.704  19.357  0.00  0.00    +0.000 A 
ATOM     22  C   UNL     1       1.892   8.866  18.439  0.00  0.00    +0.000 A 
ATOM     23  C   UNL     1       2.201   7.548  18.787  0.00  0.00    +0.000 A 
ENDBRANCH  17  18
ENDBRANCH  15  16
ENDBRANCH  13  15
ENDBRANCH   1  13
TORSDOF 5
ENDMDL
MODEL 7
REMARK VINA RESULT:      -8.4      1.250      2.200
REMARK  Name = 
REMARK  5 active torsions:
REMARK  status: ('A' for Active; 'I' for Inactive)
REMARK    1  A    between atoms: C_2  and  C_3
REMARK    2  A    between atoms: C_2  and  O_11
REMARK    3  A    between atoms: C_4  and  C_5
REMARK    4  A    between atoms: O_11  and  C_12
REMARK    5  A    between atoms: C_12  and  N_13
REMARK                            x       y       z     vdW  Elec       q    Type
REMARK                         _______ _______ _______ _____ _____    ______ ____
ROOT
ATOM      1  C   UNL     1       5.166   6.265  17.301  0.00  0.00    +0.000 C 
ENDROOT
BRANCH   1   2
ATOM      2  N   UNL     1       4.323   5.487  18.167  0.00  0.00    +0.000 N 
ATOM      3  C   UNL     1       3.023   5.795  18.441  0.00  0.00    +0.000 C 
ATOM      4  O   UNL     1       2.357   6.739  18.057  0.00  0.00    +0.000 OA
ATOM      5  C   UNL     1       2.524   4.746  19.321  0.00  0.00    +0.000 A 
ATOM      6  C   UNL     1       1.266   4.557  19.855  0.00  0.00    +0.000 A 
ATOM      7  C   UNL     1       1.086   3.447  20.685  0.00  0.00    +0.000 A 
ATOM      8  C   UNL     1       2.155   2.568  20.957  0.00  0.00    +0.000 A 
ATOM      9  C   UNL     1       3.416   2.769  20.383  0.00  0.00    +0.000 A 
ATOM     10  C   UNL     1       3.568   3.869  19.561  0.00  0.00    +0.000 A 
ATOM     11  C   UNL     1       4.723   4.342  18.796  0.00  0.00    +0.000 C 
ATOM     12  O   UNL     1       5.793   3.766  18.750  0.00  0.00    +0.000 OA
ENDBRANCH   1   2
BRANCH   1  13
ATOM     13  O   UNL     1       6.208   6.845  18.090  0.00  0.00    +0.000 OA
BRANCH  13  15
ATOM     14  O   UNL     1       7.674   6.651  16.333  0.00  0.00    +0.000 OA
ATOM     15  C   UNL     1       7.327   7.146  17.395  0.00  0.00    +0.000 C 
BRANCH  15  16
ATOM     16  C   UNL     1       8.133   8.201  18.042  0.00  0.00    +0.000 C 
ATOM     17  C   UNL     1       8.024   9.518  17.806  0.00  0.00    +0.000 C 
BRANCH  17  18
ATOM     18  C   UNL     1       8.907  10.533  18.409  0.00  0.00    +0.000 A 
ATOM     19  C   UNL     1       9.087  11.752  17.740  0.00  0.00    +0.000 A 
ATOM     20  C   UNL     1       9.921  12.744  18.268  0.00  0.00    +0.000 A 
ATOM     21  C   UNL     1      10.580  12.532  19.475  0.00  0.00    +0.000 A 
ATOM     22  C   UNL     1      10.396  11.335  20.162  0.00  0.00    +0.000 A 
ATOM     23  C   UNL     1       9.560  10.345  19.637  0.00  0.00    +0.000 A 
ENDBRANCH  17  18
ENDBRANCH  15  16
ENDBRANCH  13  15
ENDBRANCH   1  13
TORSDOF 5
ENDMDL
MODEL 8
REMARK VINA RESULT:      -8.3      4.352      6.648
REMARK  Name = 
REMARK  5 active torsions:
REMARK  status: ('A' for Active; 'I' for Inactive)
REMARK    1  A    between atoms: C_2  and  C_3
REMARK    2  A    between atoms: C_2  and  O_11
REMARK    3  A    between atoms: C_4  and  C_5
REMARK    4  A    between atoms: O_11  and  C_12
REMARK    5  A    between atoms: C_12  and  N_13
REMARK                            x       y       z     vdW  Elec       q    Type
REMARK                         _______ _______ _______ _____ _____    ______ ____
ROOT
ATOM      1  C   UNL     1       2.458   1.772  19.322  0.00  0.00    +0.000 C 
ENDROOT
BRANCH   1   2
ATOM      2  N   UNL     1       3.357   2.715  18.715  0.00  0.00    +0.000 N 
ATOM      3  C   UNL     1       4.579   3.038  19.226  0.00  0.00    +0.000 C 
ATOM      4  O   UNL     1       5.119   2.643  20.244  0.00  0.00    +0.000 OA
ATOM      5  C   UNL     1       5.178   3.990  18.300  0.00  0.00    +0.000 A 
ATOM      6  C   UNL     1       6.417   4.595  18.324  0.00  0.00    +0.000 A 
ATOM      7  C   UNL     1       6.713   5.485  17.287  0.00  0.00    +0.000 A 
ATOM      8  C   UNL     1       5.773   5.744  16.268  0.00  0.00    +0.000 A 
ATOM      9  C   UNL     1       4.530   5.099  16.254  0.00  0.00    +0.000 A 
ATOM     10  C   UNL     1       4.264   4.219  17.285  0.00  0.00    +0.000 A 
ATOM     11  C   UNL     1       3.096   3.377  17.548  0.00  0.00    +0.000 C 
ATOM     12  O   UNL     1       2.127   3.305  16.816  0.00  0.00    +0.000 OA
ENDBRANCH   1   2
BRANCH   1  13
ATOM     13  O   UNL     1       1.330   2.489  19.831  0.00  0.00    +0.000 OA
BRANCH  13  15
ATOM     14  O   UNL     1       2.082   2.961  21.949  0.00  0.00    +0.000 OA
ATOM     15  C   UNL     1       1.614   3.301  20.873  0.00  0.00    +0.000 C 
BRANCH  15  16
ATOM     16  C   UNL     1       1.324   4.720  20.584  0.00  0.00    +0.000 C 
ATOM     17  C   UNL     1       2.197   5.607  20.081  0.00  0.00    +0.000 C 
BRANCH  17  18
ATOM     18  C   UNL     1       1.892   7.037  19.888  0.00  0.00    +0.000 A 
ATOM     19  C   UNL     1       2.228   7.638  18.667  0.00  0.00    +0.000 A 
ATOM     20  C   UNL     1       1.967   8.993  18.438  0.00  0.00    +0.000 A 
ATOM     21  C   UNL     1       1.358   9.762  19.425  0.00  0.00    +0.000 A 
ATOM     22  C   UNL     1       0.999   9.175  20.636  0.00  0.00    +0.000 A 
ATOM     23  C   UNL     1       1.257   7.820  20.863  0.00  0.00    +0.000 A 
ENDBRANCH  17  18
ENDBRANCH  15  16
ENDBRANCH  13  15
ENDBRANCH   1  13
TORSDOF 5
ENDMDL
MODEL 9
REMARK VINA RESULT:      -8.3      4.202      5.149
REMARK  Name = 
REMARK  5 active torsions:
REMARK  status: ('A' for Active; 'I' for Inactive)
REMARK    1  A    between atoms: C_2  and  C_3
REMARK    2  A    between atoms: C_2  and  O_11
REMARK    3  A    between atoms: C_4  and  C_5
REMARK    4  A    between atoms: O_11  and  C_12
REMARK    5  A    between atoms: C_12  and  N_13
REMARK                            x       y       z     vdW  Elec       q    Type
REMARK                         _______ _______ _______ _____ _____    ______ ____
ROOT
ATOM      1  C   UNL     1       4.930   3.884  16.696  0.00  0.00    +0.000 C 
ENDROOT
BRANCH   1   2
ATOM      2  N   UNL     1       4.044   3.626  17.798  0.00  0.00    +0.000 N 
ATOM      3  C   UNL     1       2.701   3.428  17.663  0.00  0.00    +0.000 C 
ATOM      4  O   UNL     1       2.015   3.449  16.658  0.00  0.00    +0.000 OA
ATOM      5  C   UNL     1       2.185   3.166  19.001  0.00  0.00    +0.000 A 
ATOM      6  C   UNL     1       0.905   2.862  19.416  0.00  0.00    +0.000 A 
ATOM      7  C   UNL     1       0.708   2.669  20.786  0.00  0.00    +0.000 A 
ATOM      8  C   UNL     1       1.781   2.787  21.694  0.00  0.00    +0.000 A 
ATOM      9  C   UNL     1       3.076   3.074  21.244  0.00  0.00    +0.000 A 
ATOM     10  C   UNL     1       3.246   3.254  19.885  0.00  0.00    +0.000 A 
ATOM     11  C   UNL     1       4.450   3.531  19.099  0.00  0.00    +0.000 C 
ATOM     12  O   UNL     1       5.567   3.621  19.570  0.00  0.00    +0.000 OA
ENDBRANCH   1   2
BRANCH   1  13
ATOM     13  O   UNL     1       5.652   5.088  16.970  0.00  0.00    +0.000 OA
BRANCH  13  15
ATOM     14  O   UNL     1       5.464   6.367  15.073  0.00  0.00    +0.000 OA
ATOM     15  C   UNL     1       5.238   6.157  16.255  0.00  0.00    +0.000 C 
BRANCH  15  16
ATOM     16  C   UNL     1       4.421   7.093  17.052  0.00  0.00    +0.000 C 
ATOM     17  C   UNL     1       3.308   6.773  17.732  0.00  0.00    +0.000 C 
BRANCH  17  18
ATOM     18  C   UNL     1       2.473   7.756  18.445  0.00  0.00    +0.000 A 
ATOM     19  C   UNL     1       2.126   7.502  19.780  0.00  0.00    +0.000 A 
ATOM     20  C   UNL     1       1.328   8.400  20.496  0.00  0.00    +0.000 A 
ATOM     21  C   UNL     1       0.874   9.568  19.890  0.00  0.00    +0.000 A 
ATOM     22  C   UNL     1       1.227   9.844  18.572  0.00  0.00    +0.000 A 
ATOM     23  C   UNL     1       2.027   8.949  17.856  0.00  0.00    +0.000 A 
ENDBRANCH  17  18
ENDBRANCH  15  16
ENDBRANCH  13  15
ENDBRANCH   1  13
TORSDOF 5
ENDMDL
