MODEL 1
REMARK VINA RESULT:      -7.1      0.000      0.000
REMARK  Name = 
REMARK  10 active torsions:
REMARK  status: ('A' for Active; 'I' for Inactive)
REMARK    1  A    between atoms: C_1  and  C_2
REMARK    2  A    between atoms: C_2  and  C_3
REMARK    3  A    between atoms: C_3  and  N_4
REMARK    4  A    between atoms: N_4  and  C_5
REMARK    5  A    between atoms: C_7  and  C_8
REMARK    6  A    between atoms: N_10  and  O_11
REMARK    7  A    between atoms: N_12  and  S_13
REMARK    8  A    between atoms: S_13  and  C_16
REMARK    9  A    between atoms: C_19  and  O_20
REMARK   10  A    between atoms: O_20  and  C_21
REMARK                            x       y       z     vdW  Elec       q    Type
REMARK                         _______ _______ _______ _____ _____    ______ ____
ROOT
ATOM      1  C   UNL     1       5.270   3.888  18.704  0.00  0.00    +0.000 C 
ATOM      2  C   UNL     1       4.575   3.983  17.347  0.00  0.00    +0.000 C 
ATOM      3  C   UNL     1       4.394   5.472  17.108  0.00  0.00    +0.000 C 
ATOM      4  N   UNL     1       4.107   6.050  18.463  0.00  0.00    +0.000 NA
ATOM      5  C   UNL     1       4.848   5.174  19.452  0.00  0.00    +0.000 C 
ENDROOT
BRANCH   3   6
ATOM      6  C   UNL     1       5.649   6.033  16.444  0.00  0.00    +0.000 C 
ATOM      7  O   UNL     1       6.075   7.168  16.668  0.00  0.00    +0.000 OA
ATOM      8  N   UNL     1       6.270   5.215  15.536  0.00  0.00    +0.000 N 
ATOM      9  H   UNL     1       6.126   4.208  15.542  0.00  0.00    +0.000 HD
BRANCH   8  10
ATOM     10  O   UNL     1       7.475   5.704  14.985  0.00  0.00    +0.000 OA
ATOM     11  H   UNL     1       8.116   4.989  15.198  0.00  0.00    +0.000 HD
ENDBRANCH   8  10
ENDBRANCH   3   6
BRANCH   4  12
ATOM     12  S   UNL     1       2.435   6.137  18.886  0.00  0.00    +0.000 S 
ATOM     13  O   UNL     1       1.679   5.541  17.811  0.00  0.00    +0.000 OA
ATOM     14  O   UNL     1       2.316   5.654  20.247  0.00  0.00    +0.000 OA
BRANCH  12  15
ATOM     15  C   UNL     1       2.056   7.869  18.926  0.00  0.00    +0.000 A 
ATOM     16  C   UNL     1       2.323   8.658  17.805  0.00  0.00    +0.000 A 
ATOM     17  C   UNL     1       1.951  10.003  17.809  0.00  0.00    +0.000 A 
ATOM     18  C   UNL     1       1.298  10.553  18.914  0.00  0.00    +0.000 A 
ATOM     19  C   UNL     1       1.038   9.758  20.034  0.00  0.00    +0.000 A 
ATOM     20  C   UNL     1       1.414   8.410  20.041  0.00  0.00    +0.000 A 
BRANCH  18  21
ATOM     21  O   UNL     1       0.993  11.882  18.798  0.00  0.00    +0.000 OA
ATOM     22  C   UNL     1       2.103  12.772  18.760  0.00  0.00    +0.000 C 
ENDBRANCH  18  21
ENDBRANCH  12  15
ENDBRANCH   4  12
BRANCH   1  23
ATOM     23  N   UNL     1       4.905   2.658  19.419  0.00  0.00    +0.000 NA
ATOM     24  H   UNL     1       5.686   2.001  19.437  0.00  0.00    +0.000 HD
BRANCH  23  25
ATOM     25  C   UNL     1       3.719   2.008  18.861  0.00  0.00    +0.000 C 
BRANCH  25  27
ATOM     26  C   UNL     1       1.232   2.347  18.929  0.00  0.00    +0.000 C 
ATOM     27  C   UNL     1       2.506   2.258  19.757  0.00  0.00    +0.000 C 
ENDBRANCH  25  27
ENDBRANCH  23  25
ENDBRANCH   1  23
TORSDOF 8
ENDMDL
MODEL 2
REMARK VINA RESULT:      -6.9      2.627      6.322
REMARK  Name = 
REMARK  10 active torsions:
REMARK  status: ('A' for Active; 'I' for Inactive)
REMARK    1  A    between atoms: C_1  and  C_2
REMARK    2  A    between atoms: C_2  and  C_3
REMARK    3  A    between atoms: C_3  and  N_4
REMARK    4  A    between atoms: N_4  and  C_5
REMARK    5  A    between atoms: C_7  and  C_8
REMARK    6  A    between atoms: N_10  and  O_11
REMARK    7  A    between atoms: N_12  and  S_13
REMARK    8  A    between atoms: S_13  and  C_16
REMARK    9  A    between atoms: C_19  and  O_20
REMARK   10  A    between atoms: O_20  and  C_21
REMARK                            x       y       z     vdW  Elec       q    Type
REMARK                         _______ _______ _______ _____ _____    ______ ____
ROOT
ATOM      1  C   UNL     1       2.262   5.314  20.980  0.00  0.00    +0.000 C 
ATOM      2  C   UNL     1       1.584   3.993  20.624  0.00  0.00    +0.000 C 
ATOM      3  C   UNL     1       2.667   3.171  19.947  0.00  0.00    +0.000 C 
ATOM      4  N   UNL     1       3.477   4.165  19.168  0.00  0.00    +0.000 NA
ATOM      5  C   UNL     1       3.402   5.461  19.946  0.00  0.00    +0.000 C 
ENDROOT
BRANCH   3   6
ATOM      6  C   UNL     1       3.462   2.413  21.008  0.00  0.00    +0.000 C 
ATOM      7  O   UNL     1       3.013   2.160  22.128  0.00  0.00    +0.000 OA
ATOM      8  N   UNL     1       4.741   2.057  20.665  0.00  0.00    +0.000 N 
ATOM      9  H   UNL     1       5.031   1.991  19.693  0.00  0.00    +0.000 HD
BRANCH   8  10
ATOM     10  O   UNL     1       5.444   1.286  21.616  0.00  0.00    +0.000 OA
ATOM     11  H   UNL     1       4.779   1.165  22.331  0.00  0.00    +0.000 HD
ENDBRANCH   8  10
ENDBRANCH   3   6
BRANCH   4  12
ATOM     12  S   UNL     1       2.960   4.419  17.540  0.00  0.00    +0.000 S 
ATOM     13  O   UNL     1       2.393   3.181  17.060  0.00  0.00    +0.000 OA
ATOM     14  O   UNL     1       2.198   5.652  17.525  0.00  0.00    +0.000 OA
BRANCH  12  15
ATOM     15  C   UNL     1       4.447   4.729  16.624  0.00  0.00    +0.000 A 
ATOM     16  C   UNL     1       5.052   3.686  15.920  0.00  0.00    +0.000 A 
ATOM     17  C   UNL     1       6.176   3.949  15.136  0.00  0.00    +0.000 A 
ATOM     18  C   UNL     1       6.681   5.248  15.037  0.00  0.00    +0.000 A 
ATOM     19  C   UNL     1       6.073   6.286  15.748  0.00  0.00    +0.000 A 
ATOM     20  C   UNL     1       4.949   6.029  16.542  0.00  0.00    +0.000 A 
BRANCH  18  21
ATOM     21  O   UNL     1       7.789   5.374  14.244  0.00  0.00    +0.000 OA
ATOM     22  C   UNL     1       7.615   5.029  12.875  0.00  0.00    +0.000 C 
ENDBRANCH  18  21
ENDBRANCH  12  15
ENDBRANCH   4  12
BRANCH   1  23
ATOM     23  N   UNL     1       1.316   6.437  20.963  0.00  0.00    +0.000 NA
ATOM     24  H   UNL     1       0.465   6.189  20.458  0.00  0.00    +0.000 HD
BRANCH  23  25
ATOM     25  C   UNL     1       1.895   7.657  20.397  0.00  0.00    +0.000 C 
BRANCH  25  27
ATOM     26  C   UNL     1      -0.110   8.464  21.675  0.00  0.00    +0.000 C 
ATOM     27  C   UNL     1       1.102   8.881  20.853  0.00  0.00    +0.000 C 
ENDBRANCH  25  27
ENDBRANCH  23  25
ENDBRANCH   1  23
TORSDOF 8
ENDMDL
MODEL 3
REMARK VINA RESULT:      -6.9      2.818      4.436
REMARK  Name = 
REMARK  10 active torsions:
REMARK  status: ('A' for Active; 'I' for Inactive)
REMARK    1  A    between atoms: C_1  and  C_2
REMARK    2  A    between atoms: C_2  and  C_3
REMARK    3  A    between atoms: C_3  and  N_4
REMARK    4  A    between atoms: N_4  and  C_5
REMARK    5  A    between atoms: C_7  and  C_8
REMARK    6  A    between atoms: N_10  and  O_11
REMARK    7  A    between atoms: N_12  and  S_13
REMARK    8  A    between atoms: S_13  and  C_16
REMARK    9  A    between atoms: C_19  and  O_20
REMARK   10  A    between atoms: O_20  and  C_21
REMARK                            x       y       z     vdW  Elec       q    Type
REMARK                         _______ _______ _______ _____ _____    ______ ____
ROOT
ATOM      1  C   UNL     1       6.886   5.089  15.833  0.00  0.00    +0.000 C 
ATOM      2  C   UNL     1       6.203   6.250  16.551  0.00  0.00    +0.000 C 
ATOM      3  C   UNL     1       5.938   5.736  17.956  0.00  0.00    +0.000 C 
ATOM      4  N   UNL     1       5.603   4.284  17.779  0.00  0.00    +0.000 NA
ATOM      5  C   UNL     1       6.382   3.824  16.566  0.00  0.00    +0.000 C 
ENDROOT
BRANCH   3   6
ATOM      6  C   UNL     1       7.166   5.991  18.827  0.00  0.00    +0.000 C 
ATOM      7  O   UNL     1       7.996   6.867  18.575  0.00  0.00    +0.000 OA
ATOM      8  N   UNL     1       7.330   5.154  19.901  0.00  0.00    +0.000 N 
ATOM      9  H   UNL     1       6.549   4.634  20.292  0.00  0.00    +0.000 HD
BRANCH   8  10
ATOM     10  O   UNL     1       8.421   5.443  20.750  0.00  0.00    +0.000 OA
ATOM     11  H   UNL     1       8.105   6.233  21.245  0.00  0.00    +0.000 HD
ENDBRANCH   8  10
ENDBRANCH   3   6
BRANCH   4  12
ATOM     12  S   UNL     1       3.924   3.937  17.572  0.00  0.00    +0.000 S 
ATOM     13  O   UNL     1       3.594   4.175  16.187  0.00  0.00    +0.000 OA
ATOM     14  O   UNL     1       3.676   2.653  18.195  0.00  0.00    +0.000 OA
BRANCH  12  15
ATOM     15  C   UNL     1       3.076   5.150  18.550  0.00  0.00    +0.000 A 
ATOM     16  C   UNL     1       2.715   4.845  19.864  0.00  0.00    +0.000 A 
ATOM     17  C   UNL     1       2.120   5.826  20.657  0.00  0.00    +0.000 A 
ATOM     18  C   UNL     1       1.905   7.111  20.151  0.00  0.00    +0.000 A 
ATOM     19  C   UNL     1       2.265   7.407  18.834  0.00  0.00    +0.000 A 
ATOM     20  C   UNL     1       2.856   6.426  18.030  0.00  0.00    +0.000 A 
BRANCH  18  21
ATOM     21  O   UNL     1       1.308   7.979  21.023  0.00  0.00    +0.000 OA
ATOM     22  C   UNL     1       0.988   9.263  20.498  0.00  0.00    +0.000 C 
ENDBRANCH  18  21
ENDBRANCH  12  15
ENDBRANCH   4  12
BRANCH   1  23
ATOM     23  N   UNL     1       6.586   5.083  14.396  0.00  0.00    +0.000 NA
ATOM     24  H   UNL     1       5.817   5.717  14.181  0.00  0.00    +0.000 HD
BRANCH  23  25
ATOM     25  C   UNL     1       6.287   3.744  13.884  0.00  0.00    +0.000 C 
BRANCH  25  27
ATOM     26  C   UNL     1       4.973   3.373  11.778  0.00  0.00    +0.000 C 
ATOM     27  C   UNL     1       6.333   3.737  12.357  0.00  0.00    +0.000 C 
ENDBRANCH  25  27
ENDBRANCH  23  25
ENDBRANCH   1  23
TORSDOF 8
ENDMDL
MODEL 4
REMARK VINA RESULT:      -6.9      2.418      6.339
REMARK  Name = 
REMARK  10 active torsions:
REMARK  status: ('A' for Active; 'I' for Inactive)
REMARK    1  A    between atoms: C_1  and  C_2
REMARK    2  A    between atoms: C_2  and  C_3
REMARK    3  A    between atoms: C_3  and  N_4
REMARK    4  A    between atoms: N_4  and  C_5
REMARK    5  A    between atoms: C_7  and  C_8
REMARK    6  A    between atoms: N_10  and  O_11
REMARK    7  A    between atoms: N_12  and  S_13
REMARK    8  A    between atoms: S_13  and  C_16
REMARK    9  A    between atoms: C_19  and  O_20
REMARK   10  A    between atoms: O_20  and  C_21
REMARK                            x       y       z     vdW  Elec       q    Type
REMARK                         _______ _______ _______ _____ _____    ______ ____
ROOT
ATOM      1  C   UNL     1       2.294   5.257  20.987  0.00  0.00    +0.000 C 
ATOM      2  C   UNL     1       1.615   3.933  20.642  0.00  0.00    +0.000 C 
ATOM      3  C   UNL     1       2.684   3.124  19.927  0.00  0.00    +0.000 C 
ATOM      4  N   UNL     1       3.462   4.130  19.130  0.00  0.00    +0.000 NA
ATOM      5  C   UNL     1       3.400   5.421  19.919  0.00  0.00    +0.000 C 
ENDROOT
BRANCH   3   6
ATOM      6  C   UNL     1       3.517   2.366  20.957  0.00  0.00    +0.000 C 
ATOM      7  O   UNL     1       3.107   2.104  22.090  0.00  0.00    +0.000 OA
ATOM      8  N   UNL     1       4.787   2.020  20.571  0.00  0.00    +0.000 N 
ATOM      9  H   UNL     1       5.046   1.961  19.590  0.00  0.00    +0.000 HD
BRANCH   8  10
ATOM     10  O   UNL     1       5.526   1.249  21.495  0.00  0.00    +0.000 OA
ATOM     11  H   UNL     1       5.963   0.581  20.919  0.00  0.00    +0.000 HD
ENDBRANCH   8  10
ENDBRANCH   3   6
BRANCH   4  12
ATOM     12  S   UNL     1       2.893   4.392  17.520  0.00  0.00    +0.000 S 
ATOM     13  O   UNL     1       2.284   3.165  17.065  0.00  0.00    +0.000 OA
ATOM     14  O   UNL     1       2.157   5.640  17.528  0.00  0.00    +0.000 OA
BRANCH  12  15
ATOM     15  C   UNL     1       4.353   4.668  16.552  0.00  0.00    +0.000 A 
ATOM     16  C   UNL     1       4.841   5.967  16.397  0.00  0.00    +0.000 A 
ATOM     17  C   UNL     1       6.032   6.174  15.701  0.00  0.00    +0.000 A 
ATOM     18  C   UNL     1       6.746   5.091  15.182  0.00  0.00    +0.000 A 
ATOM     19  C   UNL     1       6.249   3.794  15.337  0.00  0.00    +0.000 A 
ATOM     20  C   UNL     1       5.051   3.579  16.028  0.00  0.00    +0.000 A 
BRANCH  18  21
ATOM     21  O   UNL     1       7.893   5.424  14.516  0.00  0.00    +0.000 OA
ATOM     22  C   UNL     1       7.857   5.266  13.102  0.00  0.00    +0.000 C 
ENDBRANCH  18  21
ENDBRANCH  12  15
ENDBRANCH   4  12
BRANCH   1  23
ATOM     23  N   UNL     1       1.338   6.371  21.006  0.00  0.00    +0.000 NA
ATOM     24  H   UNL     1       0.452   6.101  20.579  0.00  0.00    +0.000 HD
BRANCH  23  25
ATOM     25  C   UNL     1       1.858   7.575  20.355  0.00  0.00    +0.000 C 
BRANCH  25  27
ATOM     26  C   UNL     1       0.926   9.799  19.657  0.00  0.00    +0.000 C 
ATOM     27  C   UNL     1       1.065   8.803  20.800  0.00  0.00    +0.000 C 
ENDBRANCH  25  27
ENDBRANCH  23  25
ENDBRANCH   1  23
TORSDOF 8
ENDMDL
MODEL 5
REMARK VINA RESULT:      -6.8      0.486      1.104
REMARK  Name = 
REMARK  10 active torsions:
REMARK  status: ('A' for Active; 'I' for Inactive)
REMARK    1  A    between atoms: C_1  and  C_2
REMARK    2  A    between atoms: C_2  and  C_3
REMARK    3  A    between atoms: C_3  and  N_4
REMARK    4  A    between atoms: N_4  and  C_5
REMARK    5  A    between atoms: C_7  and  C_8
REMARK    6  A    between atoms: N_10  and  O_11
REMARK    7  A    between atoms: N_12  and  S_13
REMARK    8  A    between atoms: S_13  and  C_16
REMARK    9  A    between atoms: C_19  and  O_20
REMARK   10  A    between atoms: O_20  and  C_21
REMARK                            x       y       z     vdW  Elec       q    Type
REMARK                         _______ _______ _______ _____ _____    ______ ____
ROOT
ATOM      1  C   UNL     1       5.290   3.874  18.684  0.00  0.00    +0.000 C 
ATOM      2  C   UNL     1       4.591   3.971  17.329  0.00  0.00    +0.000 C 
ATOM      3  C   UNL     1       4.384   5.459  17.105  0.00  0.00    +0.000 C 
ATOM      4  N   UNL     1       4.090   6.019  18.467  0.00  0.00    +0.000 NA
ATOM      5  C   UNL     1       4.848   5.146  19.445  0.00  0.00    +0.000 C 
ENDROOT
BRANCH   3   6
ATOM      6  C   UNL     1       5.629   6.048  16.445  0.00  0.00    +0.000 C 
ATOM      7  O   UNL     1       5.989   7.215  16.615  0.00  0.00    +0.000 OA
ATOM      8  N   UNL     1       6.318   5.214  15.601  0.00  0.00    +0.000 N 
ATOM      9  H   UNL     1       6.224   4.204  15.661  0.00  0.00    +0.000 HD
BRANCH   8  10
ATOM     10  O   UNL     1       7.511   5.735  15.056  0.00  0.00    +0.000 OA
ATOM     11  H   UNL     1       8.193   5.433  15.700  0.00  0.00    +0.000 HD
ENDBRANCH   8  10
ENDBRANCH   3   6
BRANCH   4  12
ATOM     12  S   UNL     1       2.418   6.073  18.894  0.00  0.00    +0.000 S 
ATOM     13  O   UNL     1       1.675   5.418  17.843  0.00  0.00    +0.000 OA
ATOM     14  O   UNL     1       2.317   5.637  20.272  0.00  0.00    +0.000 OA
BRANCH  12  15
ATOM     15  C   UNL     1       1.990   7.794  18.872  0.00  0.00    +0.000 A 
ATOM     16  C   UNL     1       1.402   8.371  20.000  0.00  0.00    +0.000 A 
ATOM     17  C   UNL     1       1.139   9.742  20.010  0.00  0.00    +0.000 A 
ATOM     18  C   UNL     1       1.480  10.536  18.913  0.00  0.00    +0.000 A 
ATOM     19  C   UNL     1       2.064   9.950  17.786  0.00  0.00    +0.000 A 
ATOM     20  C   UNL     1       2.324   8.576  17.765  0.00  0.00    +0.000 A 
BRANCH  18  21
ATOM     21  O   UNL     1       1.164  11.861  19.043  0.00  0.00    +0.000 OA
ATOM     22  C   UNL     1      -0.185  12.209  18.751  0.00  0.00    +0.000 C 
ENDBRANCH  18  21
ENDBRANCH  12  15
ENDBRANCH   4  12
BRANCH   1  23
ATOM     23  N   UNL     1       4.947   2.631  19.387  0.00  0.00    +0.000 NA
ATOM     24  H   UNL     1       5.731   1.978  19.377  0.00  0.00    +0.000 HD
BRANCH  23  25
ATOM     25  C   UNL     1       3.751   1.985  18.846  0.00  0.00    +0.000 C 
BRANCH  25  27
ATOM     26  C   UNL     1       1.253   2.189  18.987  0.00  0.00    +0.000 C 
ATOM     27  C   UNL     1       2.557   2.219  19.771  0.00  0.00    +0.000 C 
ENDBRANCH  25  27
ENDBRANCH  23  25
ENDBRANCH   1  23
TORSDOF 8
ENDMDL
MODEL 6
REMARK VINA RESULT:      -6.8      2.789      4.227
REMARK  Name = 
REMARK  10 active torsions:
REMARK  status: ('A' for Active; 'I' for Inactive)
REMARK    1  A    between atoms: C_1  and  C_2
REMARK    2  A    between atoms: C_2  and  C_3
REMARK    3  A    between atoms: C_3  and  N_4
REMARK    4  A    between atoms: N_4  and  C_5
REMARK    5  A    between atoms: C_7  and  C_8
REMARK    6  A    between atoms: N_10  and  O_11
REMARK    7  A    between atoms: N_12  and  S_13
REMARK    8  A    between atoms: S_13  and  C_16
REMARK    9  A    between atoms: C_19  and  O_20
REMARK   10  A    between atoms: O_20  and  C_21
REMARK                            x       y       z     vdW  Elec       q    Type
REMARK                         _______ _______ _______ _____ _____    ______ ____
ROOT
ATOM      1  C   UNL     1       6.919   5.321  16.037  0.00  0.00    +0.000 C 
ATOM      2  C   UNL     1       6.325   6.444  16.886  0.00  0.00    +0.000 C 
ATOM      3  C   UNL     1       6.071   5.813  18.243  0.00  0.00    +0.000 C 
ATOM      4  N   UNL     1       5.646   4.405  17.942  0.00  0.00    +0.000 NA
ATOM      5  C   UNL     1       6.363   4.022  16.664  0.00  0.00    +0.000 C 
ENDROOT
BRANCH   3   6
ATOM      6  C   UNL     1       7.336   5.914  19.092  0.00  0.00    +0.000 C 
ATOM      7  O   UNL     1       8.240   6.717  18.854  0.00  0.00    +0.000 OA
ATOM      8  N   UNL     1       7.441   5.022  20.129  0.00  0.00    +0.000 N 
ATOM      9  H   UNL     1       6.622   4.563  20.519  0.00  0.00    +0.000 HD
BRANCH   8  10
ATOM     10  O   UNL     1       8.572   5.171  20.961  0.00  0.00    +0.000 OA
ATOM     11  H   UNL     1       8.294   4.716  21.788  0.00  0.00    +0.000 HD
ENDBRANCH   8  10
ENDBRANCH   3   6
BRANCH   4  12
ATOM     12  S   UNL     1       3.945   4.174  17.759  0.00  0.00    +0.000 S 
ATOM     13  O   UNL     1       3.635   4.281  16.354  0.00  0.00    +0.000 OA
ATOM     14  O   UNL     1       3.593   2.991  18.519  0.00  0.00    +0.000 OA
BRANCH  12  15
ATOM     15  C   UNL     1       3.198   5.552  18.590  0.00  0.00    +0.000 A 
ATOM     16  C   UNL     1       3.000   6.748  17.897  0.00  0.00    +0.000 A 
ATOM     17  C   UNL     1       2.341   7.805  18.527  0.00  0.00    +0.000 A 
ATOM     18  C   UNL     1       1.862   7.663  19.831  0.00  0.00    +0.000 A 
ATOM     19  C   UNL     1       2.068   6.464  20.520  0.00  0.00    +0.000 A 
ATOM     20  C   UNL     1       2.734   5.402  19.897  0.00  0.00    +0.000 A 
BRANCH  18  21
ATOM     21  O   UNL     1       1.241   8.771  20.339  0.00  0.00    +0.000 OA
ATOM     22  C   UNL     1       1.190   8.856  21.759  0.00  0.00    +0.000 C 
ENDBRANCH  18  21
ENDBRANCH  12  15
ENDBRANCH   4  12
BRANCH   1  23
ATOM     23  N   UNL     1       6.578   5.470  14.618  0.00  0.00    +0.000 NA
ATOM     24  H   UNL     1       5.643   5.862  14.505  0.00  0.00    +0.000 HD
BRANCH  23  25
ATOM     25  C   UNL     1       6.685   4.214  13.874  0.00  0.00    +0.000 C 
BRANCH  25  27
ATOM     26  C   UNL     1       5.608   2.931  12.005  0.00  0.00    +0.000 C 
ATOM     27  C   UNL     1       5.378   3.920  13.138  0.00  0.00    +0.000 C 
ENDBRANCH  25  27
ENDBRANCH  23  25
ENDBRANCH   1  23
TORSDOF 8
ENDMDL
MODEL 7
REMARK VINA RESULT:      -6.8      0.885      1.014
REMARK  Name = 
REMARK  10 active torsions:
REMARK  status: ('A' for Active; 'I' for Inactive)
REMARK    1  A    between atoms: C_1  and  C_2
REMARK    2  A    between atoms: C_2  and  C_3
REMARK    3  A    between atoms: C_3  and  N_4
REMARK    4  A    between atoms: N_4  and  C_5
REMARK    5  A    between atoms: C_7  and  C_8
REMARK    6  A    between atoms: N_10  and  O_11
REMARK    7  A    between atoms: N_12  and  S_13
REMARK    8  A    between atoms: S_13  and  C_16
REMARK    9  A    between atoms: C_19  and  O_20
REMARK   10  A    between atoms: O_20  and  C_21
REMARK                            x       y       z     vdW  Elec       q    Type
REMARK                         _______ _______ _______ _____ _____    ______ ____
ROOT
ATOM      1  C   UNL     1       5.359   3.909  18.624  0.00  0.00    +0.000 C 
ATOM      2  C   UNL     1       4.689   4.135  17.270  0.00  0.00    +0.000 C 
ATOM      3  C   UNL     1       4.497   5.639  17.179  0.00  0.00    +0.000 C 
ATOM      4  N   UNL     1       4.178   6.074  18.580  0.00  0.00    +0.000 NA
ATOM      5  C   UNL     1       4.909   5.109  19.489  0.00  0.00    +0.000 C 
ENDROOT
BRANCH   3   6
ATOM      6  C   UNL     1       5.758   6.276  16.600  0.00  0.00    +0.000 C 
ATOM      7  O   UNL     1       6.163   6.045  15.459  0.00  0.00    +0.000 OA
ATOM      8  N   UNL     1       6.459   7.101  17.442  0.00  0.00    +0.000 N 
ATOM      9  H   UNL     1       6.020   7.529  18.253  0.00  0.00    +0.000 HD
BRANCH   8  10
ATOM     10  O   UNL     1       7.579   7.752  16.879  0.00  0.00    +0.000 OA
ATOM     11  H   UNL     1       8.013   7.031  16.368  0.00  0.00    +0.000 HD
ENDBRANCH   8  10
ENDBRANCH   3   6
BRANCH   4  12
ATOM     12  S   UNL     1       2.497   6.103  18.976  0.00  0.00    +0.000 S 
ATOM     13  O   UNL     1       1.779   5.484  17.887  0.00  0.00    +0.000 OA
ATOM     14  O   UNL     1       2.373   5.614  20.334  0.00  0.00    +0.000 OA
BRANCH  12  15
ATOM     15  C   UNL     1       2.059   7.821  19.011  0.00  0.00    +0.000 A 
ATOM     16  C   UNL     1       2.257   8.606  17.873  0.00  0.00    +0.000 A 
ATOM     17  C   UNL     1       1.839   9.937  17.877  0.00  0.00    +0.000 A 
ATOM     18  C   UNL     1       1.206  10.477  19.000  0.00  0.00    +0.000 A 
ATOM     19  C   UNL     1       1.015   9.687  20.136  0.00  0.00    +0.000 A 
ATOM     20  C   UNL     1       1.438   8.353  20.143  0.00  0.00    +0.000 A 
BRANCH  18  21
ATOM     21  O   UNL     1       0.850  11.793  18.882  0.00  0.00    +0.000 OA
ATOM     22  C   UNL     1       0.588  12.476  20.102  0.00  0.00    +0.000 C 
ENDBRANCH  18  21
ENDBRANCH  12  15
ENDBRANCH   4  12
BRANCH   1  23
ATOM     23  N   UNL     1       4.994   2.610  19.203  0.00  0.00    +0.000 NA
ATOM     24  H   UNL     1       5.103   1.861  18.519  0.00  0.00    +0.000 HD
BRANCH  23  25
ATOM     25  C   UNL     1       3.636   2.593  19.748  0.00  0.00    +0.000 C 
BRANCH  25  27
ATOM     26  C   UNL     1       1.248   2.319  19.023  0.00  0.00    +0.000 C 
ATOM     27  C   UNL     1       2.686   1.881  18.785  0.00  0.00    +0.000 C 
ENDBRANCH  25  27
ENDBRANCH  23  25
ENDBRANCH   1  23
TORSDOF 8
ENDMDL
MODEL 8
REMARK VINA RESULT:      -6.6      2.516      3.711
REMARK  Name = 
REMARK  10 active torsions:
REMARK  status: ('A' for Active; 'I' for Inactive)
REMARK    1  A    between atoms: C_1  and  C_2
REMARK    2  A    between atoms: C_2  and  C_3
REMARK    3  A    between atoms: C_3  and  N_4
REMARK    4  A    between atoms: N_4  and  C_5
REMARK    5  A    between atoms: C_7  and  C_8
REMARK    6  A    between atoms: N_10  and  O_11
REMARK    7  A    between atoms: N_12  and  S_13
REMARK    8  A    between atoms: S_13  and  C_16
REMARK    9  A    between atoms: C_19  and  O_20
REMARK   10  A    between atoms: O_20  and  C_21
REMARK                            x       y       z     vdW  Elec       q    Type
REMARK                         _______ _______ _______ _____ _____    ______ ____
ROOT
ATOM      1  C   UNL     1       6.480   4.418  15.761  0.00  0.00    +0.000 C 
ATOM      2  C   UNL     1       5.807   5.788  15.690  0.00  0.00    +0.000 C 
ATOM      3  C   UNL     1       5.704   6.245  17.134  0.00  0.00    +0.000 C 
ATOM      4  N   UNL     1       5.431   4.994  17.918  0.00  0.00    +0.000 NA
ATOM      5  C   UNL     1       6.115   3.875  17.162  0.00  0.00    +0.000 C 
ENDROOT
BRANCH   3   6
ATOM      6  C   UNL     1       6.994   6.960  17.531  0.00  0.00    +0.000 C 
ATOM      7  O   UNL     1       7.524   7.824  16.830  0.00  0.00    +0.000 OA
ATOM      8  N   UNL     1       7.571   6.557  18.709  0.00  0.00    +0.000 N 
ATOM      9  H   UNL     1       7.033   6.078  19.427  0.00  0.00    +0.000 HD
BRANCH   8  10
ATOM     10  O   UNL     1       8.717   7.275  19.113  0.00  0.00    +0.000 OA
ATOM     11  H   UNL     1       8.335   8.107  19.474  0.00  0.00    +0.000 HD
ENDBRANCH   8  10
ENDBRANCH   3   6
BRANCH   4  12
ATOM     12  S   UNL     1       3.760   4.621  18.146  0.00  0.00    +0.000 S 
ATOM     13  O   UNL     1       3.218   4.233  16.866  0.00  0.00    +0.000 OA
ATOM     14  O   UNL     1       3.675   3.745  19.297  0.00  0.00    +0.000 OA
BRANCH  12  15
ATOM     15  C   UNL     1       3.003   6.154  18.617  0.00  0.00    +0.000 A 
ATOM     16  C   UNL     1       2.752   7.125  17.646  0.00  0.00    +0.000 A 
ATOM     17  C   UNL     1       2.085   8.297  18.004  0.00  0.00    +0.000 A 
ATOM     18  C   UNL     1       1.649   8.491  19.317  0.00  0.00    +0.000 A 
ATOM     19  C   UNL     1       1.908   7.516  20.285  0.00  0.00    +0.000 A 
ATOM     20  C   UNL     1       2.583   6.341  19.935  0.00  0.00    +0.000 A 
BRANCH  18  21
ATOM     21  O   UNL     1       1.015   9.681  19.543  0.00  0.00    +0.000 OA
ATOM     22  C   UNL     1       0.179  10.148  18.489  0.00  0.00    +0.000 C 
ENDBRANCH  18  21
ENDBRANCH  12  15
ENDBRANCH   4  12
BRANCH   1  23
ATOM     23  N   UNL     1       6.045   3.539  14.669  0.00  0.00    +0.000 NA
ATOM     24  H   UNL     1       6.445   2.605  14.770  0.00  0.00    +0.000 HD
BRANCH  23  25
ATOM     25  C   UNL     1       6.366   4.077  13.346  0.00  0.00    +0.000 C 
BRANCH  25  27
ATOM     26  C   UNL     1       4.607   3.362  11.704  0.00  0.00    +0.000 C 
ATOM     27  C   UNL     1       5.993   3.070  12.259  0.00  0.00    +0.000 C 
ENDBRANCH  25  27
ENDBRANCH  23  25
ENDBRANCH   1  23
TORSDOF 8
ENDMDL
MODEL 9
REMARK VINA RESULT:      -6.6      2.686      4.110
REMARK  Name = 
REMARK  10 active torsions:
REMARK  status: ('A' for Active; 'I' for Inactive)
REMARK    1  A    between atoms: C_1  and  C_2
REMARK    2  A    between atoms: C_2  and  C_3
REMARK    3  A    between atoms: C_3  and  N_4
REMARK    4  A    between atoms: N_4  and  C_5
REMARK    5  A    between atoms: C_7  and  C_8
REMARK    6  A    between atoms: N_10  and  O_11
REMARK    7  A    between atoms: N_12  and  S_13
REMARK    8  A    between atoms: S_13  and  C_16
REMARK    9  A    between atoms: C_19  and  O_20
REMARK   10  A    between atoms: O_20  and  C_21
REMARK                            x       y       z     vdW  Elec       q    Type
REMARK                         _______ _______ _______ _____ _____    ______ ____
ROOT
ATOM      1  C   UNL     1       5.979   4.631  15.360  0.00  0.00    +0.000 C 
ATOM      2  C   UNL     1       5.278   5.951  15.675  0.00  0.00    +0.000 C 
ATOM      3  C   UNL     1       5.373   6.089  17.185  0.00  0.00    +0.000 C 
ATOM      4  N   UNL     1       5.238   4.690  17.712  0.00  0.00    +0.000 NA
ATOM      5  C   UNL     1       5.828   3.789  16.648  0.00  0.00    +0.000 C 
ENDROOT
BRANCH   3   6
ATOM      6  C   UNL     1       6.692   6.767  17.548  0.00  0.00    +0.000 C 
ATOM      7  O   UNL     1       7.200   7.656  16.861  0.00  0.00    +0.000 OA
ATOM      8  N   UNL     1       7.322   6.301  18.674  0.00  0.00    +0.000 N 
ATOM      9  H   UNL     1       6.813   5.796  19.396  0.00  0.00    +0.000 HD
BRANCH   8  10
ATOM     10  O   UNL     1       8.499   6.984  19.052  0.00  0.00    +0.000 OA
ATOM     11  H   UNL     1       8.154   7.851  19.365  0.00  0.00    +0.000 HD
ENDBRANCH   8  10
ENDBRANCH   3   6
BRANCH   4  12
ATOM     12  S   UNL     1       3.624   4.196  18.078  0.00  0.00    +0.000 S 
ATOM     13  O   UNL     1       2.963   3.896  16.831  0.00  0.00    +0.000 OA
ATOM     14  O   UNL     1       3.712   3.213  19.139  0.00  0.00    +0.000 OA
BRANCH  12  15
ATOM     15  C   UNL     1       2.847   5.630  18.776  0.00  0.00    +0.000 A 
ATOM     16  C   UNL     1       2.395   5.593  20.097  0.00  0.00    +0.000 A 
ATOM     17  C   UNL     1       1.856   6.747  20.668  0.00  0.00    +0.000 A 
ATOM     18  C   UNL     1       1.789   7.935  19.937  0.00  0.00    +0.000 A 
ATOM     19  C   UNL     1       2.240   7.962  18.614  0.00  0.00    +0.000 A 
ATOM     20  C   UNL     1       2.775   6.808  18.031  0.00  0.00    +0.000 A 
BRANCH  18  21
ATOM     21  O   UNL     1       1.235   8.991  20.606  0.00  0.00    +0.000 OA
ATOM     22  C   UNL     1       0.153   8.676  21.476  0.00  0.00    +0.000 C 
ENDBRANCH  18  21
ENDBRANCH  12  15
ENDBRANCH   4  12
BRANCH   1  23
ATOM     23  N   UNL     1       5.411   3.980  14.173  0.00  0.00    +0.000 NA
ATOM     24  H   UNL     1       5.071   3.045  14.397  0.00  0.00    +0.000 HD
BRANCH  23  25
ATOM     25  C   UNL     1       6.354   3.914  13.056  0.00  0.00    +0.000 C 
BRANCH  25  27
ATOM     26  C   UNL     1       4.458   3.336  11.515  0.00  0.00    +0.000 C 
ATOM     27  C   UNL     1       5.848   2.941  11.991  0.00  0.00    +0.000 C 
ENDBRANCH  25  27
ENDBRANCH  23  25
ENDBRANCH   1  23
TORSDOF 8
ENDMDL
