MODEL 1
REMARK VINA RESULT:      -8.8      0.000      0.000
REMARK  Name = 
REMARK  4 active torsions:
REMARK  status: ('A' for Active; 'I' for Inactive)
REMARK    1  A    between atoms: C_2  and  C_4
REMARK    2  A    between atoms: C_7  and  N_8
REMARK    3  A    between atoms: N_8  and  C_9
REMARK    4  A    between atoms: C_17  and  C_18
REMARK                            x       y       z     vdW  Elec       q    Type
REMARK                         _______ _______ _______ _____ _____    ______ ____
ROOT
ATOM      1  C   UNL     1       5.644   4.971  16.576  0.00  0.00    +0.000 A 
ATOM      2  C   UNL     1       5.507   3.613  16.354  0.00  0.00    +0.000 A 
ATOM      3  N   UNL     1       4.405   2.891  16.655  0.00  0.00    +0.000 NA
ATOM      4  C   UNL     1       3.328   3.489  17.214  0.00  0.00    +0.000 A 
ATOM      5  C   UNL     1       3.372   4.889  17.462  0.00  0.00    +0.000 A 
ATOM      6  C   UNL     1       2.392   5.751  18.082  0.00  0.00    +0.000 A 
ATOM      7  C   UNL     1       2.793   7.065  18.205  0.00  0.00    +0.000 A 
ATOM      8  S   UNL     1       4.371   7.258  17.606  0.00  0.00    +0.000 S 
ATOM      9  C   UNL     1       4.534   5.605  17.150  0.00  0.00    +0.000 A 
ENDROOT
BRANCH   7  10
ATOM     10  C   UNL     1       2.057   8.218  18.738  0.00  0.00    +0.000 A 
ATOM     11  C   UNL     1       1.800   9.323  17.908  0.00  0.00    +0.000 A 
ATOM     12  C   UNL     1       1.093  10.430  18.387  0.00  0.00    +0.000 A 
ATOM     13  C   UNL     1       0.645  10.441  19.701  0.00  0.00    +0.000 A 
ATOM     14  F   UNL     1      -0.032  11.503  20.155  0.00  0.00    +0.000 F 
ATOM     15  C   UNL     1       0.897   9.362  20.536  0.00  0.00    +0.000 A 
ATOM     16  F   UNL     1       0.469   9.373  21.805  0.00  0.00    +0.000 F 
ATOM     17  C   UNL     1       1.597   8.257  20.065  0.00  0.00    +0.000 A 
ENDBRANCH   7  10
BRANCH   1  19
ATOM     18  N   UNL     1       7.388   5.537  14.972  0.00  0.00    +0.000 N 
ATOM     19  C   UNL     1       6.920   5.631  16.248  0.00  0.00    +0.000 C 
ATOM     20  O   UNL     1       7.553   6.239  17.105  0.00  0.00    +0.000 OA
ATOM     21  H   UNL     1       8.218   6.060  14.727  0.00  0.00    +0.000 HD
ATOM     22  H   UNL     1       6.843   5.133  14.218  0.00  0.00    +0.000 HD
ENDBRANCH   1  19
BRANCH   4  23
ATOM     23  N   UNL     1       2.233   2.734  17.594  0.00  0.00    +0.000 N 
ATOM     24  H   UNL     1       1.830   2.142  16.881  0.00  0.00    +0.000 HD
BRANCH  23  25
ATOM     25  C   UNL     1       2.066   2.359  18.995  0.00  0.00    +0.000 C 
ATOM     26  C   UNL     1       3.388   2.660  19.721  0.00  0.00    +0.000 C 
ATOM     27  C   UNL     1       3.265   2.400  21.218  0.00  0.00    +0.000 C 
ATOM     28  C   UNL     1       2.081   3.156  21.817  0.00  0.00    +0.000 C 
ATOM     29  N   UNL     1       0.836   2.814  21.134  0.00  0.00    +0.000 NA
ATOM     30  C   UNL     1       0.907   3.105  19.692  0.00  0.00    +0.000 C 
ATOM     31  H   UNL     1       0.060   3.333  21.544  0.00  0.00    +0.000 HD
ENDBRANCH  23  25
ENDBRANCH   4  23
TORSDOF 4
ENDMDL
MODEL 2
REMARK VINA RESULT:      -8.8      2.375      4.937
REMARK  Name = 
REMARK  4 active torsions:
REMARK  status: ('A' for Active; 'I' for Inactive)
REMARK    1  A    between atoms: C_2  and  C_4
REMARK    2  A    between atoms: C_7  and  N_8
REMARK    3  A    between atoms: N_8  and  C_9
REMARK    4  A    between atoms: C_17  and  C_18
REMARK                            x       y       z     vdW  Elec       q    Type
REMARK                         _______ _______ _______ _____ _____    ______ ____
ROOT
ATOM      1  C   UNL     1       2.779   3.268  20.444  0.00  0.00    +0.000 A 
ATOM      2  C   UNL     1       3.942   2.548  20.246  0.00  0.00    +0.000 A 
ATOM      3  N   UNL     1       5.076   3.049  19.708  0.00  0.00    +0.000 NA
ATOM      4  C   UNL     1       5.133   4.344  19.320  0.00  0.00    +0.000 A 
ATOM      5  C   UNL     1       3.988   5.167  19.503  0.00  0.00    +0.000 A 
ATOM      6  C   UNL     1       3.771   6.548  19.137  0.00  0.00    +0.000 A 
ATOM      7  C   UNL     1       2.506   7.018  19.425  0.00  0.00    +0.000 A 
ATOM      8  S   UNL     1       1.560   5.781  20.104  0.00  0.00    +0.000 S 
ATOM      9  C   UNL     1       2.824   4.613  20.051  0.00  0.00    +0.000 A 
ENDROOT
BRANCH   7  10
ATOM     10  C   UNL     1       1.945   8.361  19.238  0.00  0.00    +0.000 A 
ATOM     11  C   UNL     1       2.224   9.073  18.060  0.00  0.00    +0.000 A 
ATOM     12  C   UNL     1       1.695  10.351  17.852  0.00  0.00    +0.000 A 
ATOM     13  C   UNL     1       0.887  10.924  18.824  0.00  0.00    +0.000 A 
ATOM     14  F   UNL     1       0.381  12.147  18.620  0.00  0.00    +0.000 F 
ATOM     15  C   UNL     1       0.607  10.238  19.997  0.00  0.00    +0.000 A 
ATOM     16  F   UNL     1      -0.168  10.792  20.938  0.00  0.00    +0.000 F 
ATOM     17  C   UNL     1       1.129   8.966  20.209  0.00  0.00    +0.000 A 
ENDBRANCH   7  10
BRANCH   1  19
ATOM     18  N   UNL     1       0.506   2.429  20.190  0.00  0.00    +0.000 N 
ATOM     19  C   UNL     1       1.593   2.588  20.995  0.00  0.00    +0.000 C 
ATOM     20  O   UNL     1       1.580   2.186  22.154  0.00  0.00    +0.000 OA
ATOM     21  H   UNL     1      -0.274   1.889  20.540  0.00  0.00    +0.000 HD
ATOM     22  H   UNL     1       0.519   2.655  19.201  0.00  0.00    +0.000 HD
ENDBRANCH   1  19
BRANCH   4  23
ATOM     23  N   UNL     1       6.267   4.833  18.697  0.00  0.00    +0.000 N 
ATOM     24  H   UNL     1       7.043   5.066  19.302  0.00  0.00    +0.000 HD
BRANCH  23  25
ATOM     25  C   UNL     1       6.543   4.471  17.310  0.00  0.00    +0.000 C 
ATOM     26  C   UNL     1       5.198   4.152  16.634  0.00  0.00    +0.000 C 
ATOM     27  C   UNL     1       5.384   3.870  15.147  0.00  0.00    +0.000 C 
ATOM     28  C   UNL     1       6.132   5.007  14.456  0.00  0.00    +0.000 C 
ATOM     29  N   UNL     1       7.423   5.255  15.095  0.00  0.00    +0.000 NA
ATOM     30  C   UNL     1       7.270   5.583  16.522  0.00  0.00    +0.000 C 
ATOM     31  H   UNL     1       7.903   6.020  14.623  0.00  0.00    +0.000 HD
ENDBRANCH  23  25
ENDBRANCH   4  23
TORSDOF 4
ENDMDL
MODEL 3
REMARK VINA RESULT:      -8.7      2.068      4.901
REMARK  Name = 
REMARK  4 active torsions:
REMARK  status: ('A' for Active; 'I' for Inactive)
REMARK    1  A    between atoms: C_2  and  C_4
REMARK    2  A    between atoms: C_7  and  N_8
REMARK    3  A    between atoms: N_8  and  C_9
REMARK    4  A    between atoms: C_17  and  C_18
REMARK                            x       y       z     vdW  Elec       q    Type
REMARK                         _______ _______ _______ _____ _____    ______ ____
ROOT
ATOM      1  C   UNL     1       2.800   3.203  19.957  0.00  0.00    +0.000 A 
ATOM      2  C   UNL     1       3.371   2.333  19.046  0.00  0.00    +0.000 A 
ATOM      3  N   UNL     1       3.774   2.676  17.803  0.00  0.00    +0.000 NA
ATOM      4  C   UNL     1       3.634   3.950  17.367  0.00  0.00    +0.000 A 
ATOM      5  C   UNL     1       3.074   4.919  18.244  0.00  0.00    +0.000 A 
ATOM      6  C   UNL     1       2.776   6.313  18.014  0.00  0.00    +0.000 A 
ATOM      7  C   UNL     1       2.183   6.949  19.086  0.00  0.00    +0.000 A 
ATOM      8  S   UNL     1       1.947   5.853  20.362  0.00  0.00    +0.000 S 
ATOM      9  C   UNL     1       2.654   4.527  19.521  0.00  0.00    +0.000 A 
ENDROOT
BRANCH   7  10
ATOM     10  C   UNL     1       1.784   8.353  19.233  0.00  0.00    +0.000 A 
ATOM     11  C   UNL     1       1.990   9.250  18.170  0.00  0.00    +0.000 A 
ATOM     12  C   UNL     1       1.610  10.592  18.281  0.00  0.00    +0.000 A 
ATOM     13  C   UNL     1       1.026  11.044  19.455  0.00  0.00    +0.000 A 
ATOM     14  F   UNL     1       0.663  12.329  19.555  0.00  0.00    +0.000 F 
ATOM     15  C   UNL     1       0.822  10.174  20.517  0.00  0.00    +0.000 A 
ATOM     16  F   UNL     1       0.263  10.611  21.653  0.00  0.00    +0.000 F 
ATOM     17  C   UNL     1       1.195   8.838  20.413  0.00  0.00    +0.000 A 
ENDBRANCH   7  10
BRANCH   1  19
ATOM     18  N   UNL     1       1.028   2.736  21.562  0.00  0.00    +0.000 N 
ATOM     19  C   UNL     1       2.356   2.690  21.265  0.00  0.00    +0.000 C 
ATOM     20  O   UNL     1       3.166   2.244  22.073  0.00  0.00    +0.000 OA
ATOM     21  H   UNL     1       0.715   2.307  22.423  0.00  0.00    +0.000 HD
ATOM     22  H   UNL     1       0.324   3.000  20.882  0.00  0.00    +0.000 HD
ENDBRANCH   1  19
BRANCH   4  23
ATOM     23  N   UNL     1       3.975   4.280  16.067  0.00  0.00    +0.000 N 
ATOM     24  H   UNL     1       3.359   4.928  15.595  0.00  0.00    +0.000 HD
BRANCH  23  25
ATOM     25  C   UNL     1       5.370   4.203  15.644  0.00  0.00    +0.000 C 
ATOM     26  C   UNL     1       5.387   4.032  14.115  0.00  0.00    +0.000 C 
ATOM     27  C   UNL     1       6.813   4.055  13.576  0.00  0.00    +0.000 C 
ATOM     28  C   UNL     1       7.561   5.304  14.036  0.00  0.00    +0.000 C 
ATOM     29  N   UNL     1       7.563   5.412  15.493  0.00  0.00    +0.000 NA
ATOM     30  C   UNL     1       6.196   5.447  16.039  0.00  0.00    +0.000 C 
ATOM     31  H   UNL     1       8.062   6.254  15.778  0.00  0.00    +0.000 HD
ENDBRANCH  23  25
ENDBRANCH   4  23
TORSDOF 4
ENDMDL
MODEL 4
REMARK VINA RESULT:      -8.6      2.197      5.183
REMARK  Name = 
REMARK  4 active torsions:
REMARK  status: ('A' for Active; 'I' for Inactive)
REMARK    1  A    between atoms: C_2  and  C_4
REMARK    2  A    between atoms: C_7  and  N_8
REMARK    3  A    between atoms: N_8  and  C_9
REMARK    4  A    between atoms: C_17  and  C_18
REMARK                            x       y       z     vdW  Elec       q    Type
REMARK                         _______ _______ _______ _____ _____    ______ ____
ROOT
ATOM      1  C   UNL     1       2.767   3.706  20.068  0.00  0.00    +0.000 A 
ATOM      2  C   UNL     1       3.570   3.065  19.143  0.00  0.00    +0.000 A 
ATOM      3  N   UNL     1       4.137   3.662  18.071  0.00  0.00    +0.000 NA
ATOM      4  C   UNL     1       3.939   4.980  17.840  0.00  0.00    +0.000 A 
ATOM      5  C   UNL     1       3.141   5.726  18.751  0.00  0.00    +0.000 A 
ATOM      6  C   UNL     1       2.741   7.113  18.710  0.00  0.00    +0.000 A 
ATOM      7  C   UNL     1       1.913   7.493  19.747  0.00  0.00    +0.000 A 
ATOM      8  S   UNL     1       1.584   6.164  20.754  0.00  0.00    +0.000 S 
ATOM      9  C   UNL     1       2.557   5.074  19.843  0.00  0.00    +0.000 A 
ENDROOT
BRANCH   7  10
ATOM     10  C   UNL     1       1.349   8.812  20.055  0.00  0.00    +0.000 A 
ATOM     11  C   UNL     1       0.934   9.103  21.366  0.00  0.00    +0.000 A 
ATOM     12  C   UNL     1       0.402  10.356  21.688  0.00  0.00    +0.000 A 
ATOM     13  C   UNL     1       0.277  11.322  20.699  0.00  0.00    +0.000 A 
ATOM     14  F   UNL     1      -0.232  12.520  21.013  0.00  0.00    +0.000 F 
ATOM     15  C   UNL     1       0.674  11.049  19.398  0.00  0.00    +0.000 A 
ATOM     16  F   UNL     1       0.551  11.979  18.443  0.00  0.00    +0.000 F 
ATOM     17  C   UNL     1       1.207   9.806  19.072  0.00  0.00    +0.000 A 
ENDBRANCH   7  10
BRANCH   1  19
ATOM     18  N   UNL     1       0.818   2.745  21.169  0.00  0.00    +0.000 N 
ATOM     19  C   UNL     1       2.167   2.927  21.166  0.00  0.00    +0.000 C 
ATOM     20  O   UNL     1       2.865   2.466  22.064  0.00  0.00    +0.000 OA
ATOM     21  H   UNL     1       0.418   2.141  21.874  0.00  0.00    +0.000 HD
ATOM     22  H   UNL     1       0.227   3.022  20.393  0.00  0.00    +0.000 HD
ENDBRANCH   1  19
BRANCH   4  23
ATOM     23  N   UNL     1       4.455   5.570  16.700  0.00  0.00    +0.000 N 
ATOM     24  H   UNL     1       4.362   6.574  16.635  0.00  0.00    +0.000 HD
BRANCH  23  25
ATOM     25  C   UNL     1       5.546   4.919  15.981  0.00  0.00    +0.000 C 
ATOM     26  C   UNL     1       5.010   4.491  14.604  0.00  0.00    +0.000 C 
ATOM     27  C   UNL     1       6.120   3.899  13.742  0.00  0.00    +0.000 C 
ATOM     28  C   UNL     1       7.309   4.851  13.638  0.00  0.00    +0.000 C 
ATOM     29  N   UNL     1       7.821   5.202  14.960  0.00  0.00    +0.000 NA
ATOM     30  C   UNL     1       6.784   5.826  15.799  0.00  0.00    +0.000 C 
ATOM     31  H   UNL     1       8.610   5.841  14.869  0.00  0.00    +0.000 HD
ENDBRANCH  23  25
ENDBRANCH   4  23
TORSDOF 4
ENDMDL
MODEL 5
REMARK VINA RESULT:      -8.5      2.420      4.833
REMARK  Name = 
REMARK  4 active torsions:
REMARK  status: ('A' for Active; 'I' for Inactive)
REMARK    1  A    between atoms: C_2  and  C_4
REMARK    2  A    between atoms: C_7  and  N_8
REMARK    3  A    between atoms: N_8  and  C_9
REMARK    4  A    between atoms: C_17  and  C_18
REMARK                            x       y       z     vdW  Elec       q    Type
REMARK                         _______ _______ _______ _____ _____    ______ ____
ROOT
ATOM      1  C   UNL     1       2.826   3.608  20.216  0.00  0.00    +0.000 A 
ATOM      2  C   UNL     1       3.780   2.843  19.571  0.00  0.00    +0.000 A 
ATOM      3  N   UNL     1       4.593   3.294  18.591  0.00  0.00    +0.000 NA
ATOM      4  C   UNL     1       4.514   4.578  18.173  0.00  0.00    +0.000 A 
ATOM      5  C   UNL     1       3.573   5.445  18.794  0.00  0.00    +0.000 A 
ATOM      6  C   UNL     1       3.257   6.826  18.509  0.00  0.00    +0.000 A 
ATOM      7  C   UNL     1       2.243   7.346  19.287  0.00  0.00    +0.000 A 
ATOM      8  S   UNL     1       1.641   6.157  20.340  0.00  0.00    +0.000 S 
ATOM      9  C   UNL     1       2.735   4.943  19.797  0.00  0.00    +0.000 A 
ENDROOT
BRANCH   7  10
ATOM     10  C   UNL     1       1.689   8.705  19.310  0.00  0.00    +0.000 A 
ATOM     11  C   UNL     1       1.855   9.543  18.194  0.00  0.00    +0.000 A 
ATOM     12  C   UNL     1       1.329  10.839  18.187  0.00  0.00    +0.000 A 
ATOM     13  C   UNL     1       0.638  11.304  19.297  0.00  0.00    +0.000 A 
ATOM     14  F   UNL     1       0.135  12.545  19.284  0.00  0.00    +0.000 F 
ATOM     15  C   UNL     1       0.472  10.493  20.410  0.00  0.00    +0.000 A 
ATOM     16  F   UNL     1      -0.190  10.944  21.483  0.00  0.00    +0.000 F 
ATOM     17  C   UNL     1       0.991   9.203  20.424  0.00  0.00    +0.000 A 
ENDBRANCH   7  10
BRANCH   1  19
ATOM     18  N   UNL     1       0.663   2.740  20.923  0.00  0.00    +0.000 N 
ATOM     19  C   UNL     1       1.966   2.982  21.236  0.00  0.00    +0.000 C 
ATOM     20  O   UNL     1       2.409   2.697  22.344  0.00  0.00    +0.000 OA
ATOM     21  H   UNL     1       0.096   2.234  21.591  0.00  0.00    +0.000 HD
ATOM     22  H   UNL     1       0.292   2.866  19.988  0.00  0.00    +0.000 HD
ENDBRANCH   1  19
BRANCH   4  23
ATOM     23  N   UNL     1       5.292   5.014  17.116  0.00  0.00    +0.000 N 
ATOM     24  H   UNL     1       4.797   5.286  16.278  0.00  0.00    +0.000 HD
BRANCH  23  25
ATOM     25  C   UNL     1       6.601   5.605  17.380  0.00  0.00    +0.000 C 
ATOM     26  C   UNL     1       6.538   7.086  16.967  0.00  0.00    +0.000 C 
ATOM     27  C   UNL     1       7.835   7.809  17.313  0.00  0.00    +0.000 C 
ATOM     28  C   UNL     1       8.197   7.625  18.785  0.00  0.00    +0.000 C 
ATOM     29  N   UNL     1       8.292   6.209  19.132  0.00  0.00    +0.000 NA
ATOM     30  C   UNL     1       7.034   5.495  18.858  0.00  0.00    +0.000 C 
ATOM     31  H   UNL     1       8.529   6.108  20.119  0.00  0.00    +0.000 HD
ENDBRANCH  23  25
ENDBRANCH   4  23
TORSDOF 4
ENDMDL
MODEL 6
REMARK VINA RESULT:      -8.5      2.264      5.079
REMARK  Name = 
REMARK  4 active torsions:
REMARK  status: ('A' for Active; 'I' for Inactive)
REMARK    1  A    between atoms: C_2  and  C_4
REMARK    2  A    between atoms: C_7  and  N_8
REMARK    3  A    between atoms: N_8  and  C_9
REMARK    4  A    between atoms: C_17  and  C_18
REMARK                            x       y       z     vdW  Elec       q    Type
REMARK                         _______ _______ _______ _____ _____    ______ ____
ROOT
ATOM      1  C   UNL     1       2.732   3.889  20.238  0.00  0.00    +0.000 A 
ATOM      2  C   UNL     1       3.654   3.289  19.401  0.00  0.00    +0.000 A 
ATOM      3  N   UNL     1       4.325   3.924  18.414  0.00  0.00    +0.000 NA
ATOM      4  C   UNL     1       4.121   5.242  18.187  0.00  0.00    +0.000 A 
ATOM      5  C   UNL     1       3.202   5.947  19.013  0.00  0.00    +0.000 A 
ATOM      6  C   UNL     1       2.773   7.325  18.954  0.00  0.00    +0.000 A 
ATOM      7  C   UNL     1       1.821   7.661  19.894  0.00  0.00    +0.000 A 
ATOM      8  S   UNL     1       1.412   6.302  20.829  0.00  0.00    +0.000 S 
ATOM      9  C   UNL     1       2.513   5.256  20.017  0.00  0.00    +0.000 A 
ENDROOT
BRANCH   7  10
ATOM     10  C   UNL     1       1.190   8.959  20.160  0.00  0.00    +0.000 A 
ATOM     11  C   UNL     1       1.028   9.881  19.112  0.00  0.00    +0.000 A 
ATOM     12  C   UNL     1       0.421  11.121  19.336  0.00  0.00    +0.000 A 
ATOM     13  C   UNL     1      -0.022  11.447  20.610  0.00  0.00    +0.000 A 
ATOM     14  F   UNL     1      -0.603  12.636  20.818  0.00  0.00    +0.000 F 
ATOM     15  C   UNL     1       0.137  10.552  21.658  0.00  0.00    +0.000 A 
ATOM     16  F   UNL     1      -0.287  10.867  22.888  0.00  0.00    +0.000 F 
ATOM     17  C   UNL     1       0.737   9.316  21.442  0.00  0.00    +0.000 A 
ENDBRANCH   7  10
BRANCH   1  19
ATOM     18  N   UNL     1       0.724   2.756  21.023  0.00  0.00    +0.000 N 
ATOM     19  C   UNL     1       2.030   3.072  21.243  0.00  0.00    +0.000 C 
ATOM     20  O   UNL     1       2.604   2.697  22.261  0.00  0.00    +0.000 OA
ATOM     21  H   UNL     1       0.268   2.125  21.669  0.00  0.00    +0.000 HD
ATOM     22  H   UNL     1       0.251   2.960  20.149  0.00  0.00    +0.000 HD
ENDBRANCH   1  19
BRANCH   4  23
ATOM     23  N   UNL     1       4.750   5.870  17.127  0.00  0.00    +0.000 N 
ATOM     24  H   UNL     1       4.867   6.870  17.207  0.00  0.00    +0.000 HD
BRANCH  23  25
ATOM     25  C   UNL     1       5.683   5.118  16.294  0.00  0.00    +0.000 C 
ATOM     26  C   UNL     1       4.924   4.659  15.037  0.00  0.00    +0.000 C 
ATOM     27  C   UNL     1       5.857   3.958  14.056  0.00  0.00    +0.000 C 
ATOM     28  C   UNL     1       7.068   4.827  13.725  0.00  0.00    +0.000 C 
ATOM     29  N   UNL     1       7.792   5.208  14.936  0.00  0.00    +0.000 NA
ATOM     30  C   UNL     1       6.927   5.935  15.881  0.00  0.00    +0.000 C 
ATOM     31  H   UNL     1       8.592   5.791  14.694  0.00  0.00    +0.000 HD
ENDBRANCH  23  25
ENDBRANCH   4  23
TORSDOF 4
ENDMDL
MODEL 7
REMARK VINA RESULT:      -8.4      0.535      1.268
REMARK  Name = 
REMARK  4 active torsions:
REMARK  status: ('A' for Active; 'I' for Inactive)
REMARK    1  A    between atoms: C_2  and  C_4
REMARK    2  A    between atoms: C_7  and  N_8
REMARK    3  A    between atoms: N_8  and  C_9
REMARK    4  A    between atoms: C_17  and  C_18
REMARK                            x       y       z     vdW  Elec       q    Type
REMARK                         _______ _______ _______ _____ _____    ______ ____
ROOT
ATOM      1  C   UNL     1       5.529   5.164  16.562  0.00  0.00    +0.000 A 
ATOM      2  C   UNL     1       5.419   3.815  16.279  0.00  0.00    +0.000 A 
ATOM      3  N   UNL     1       4.348   3.049  16.583  0.00  0.00    +0.000 NA
ATOM      4  C   UNL     1       3.276   3.591  17.208  0.00  0.00    +0.000 A 
ATOM      5  C   UNL     1       3.292   4.978  17.522  0.00  0.00    +0.000 A 
ATOM      6  C   UNL     1       2.314   5.781  18.217  0.00  0.00    +0.000 A 
ATOM      7  C   UNL     1       2.684   7.099  18.390  0.00  0.00    +0.000 A 
ATOM      8  S   UNL     1       4.234   7.363  17.746  0.00  0.00    +0.000 S 
ATOM      9  C   UNL     1       4.423   5.740  17.205  0.00  0.00    +0.000 A 
ENDROOT
BRANCH   7  10
ATOM     10  C   UNL     1       1.939   8.204  19.003  0.00  0.00    +0.000 A 
ATOM     11  C   UNL     1       1.592   8.139  20.364  0.00  0.00    +0.000 A 
ATOM     12  C   UNL     1       0.891   9.183  20.975  0.00  0.00    +0.000 A 
ATOM     13  C   UNL     1       0.528  10.295  20.228  0.00  0.00    +0.000 A 
ATOM     14  F   UNL     1      -0.143  11.292  20.818  0.00  0.00    +0.000 F 
ATOM     15  C   UNL     1       0.854  10.372  18.882  0.00  0.00    +0.000 A 
ATOM     16  F   UNL     1       0.500  11.443  18.159  0.00  0.00    +0.000 F 
ATOM     17  C   UNL     1       1.554   9.339  18.268  0.00  0.00    +0.000 A 
ENDBRANCH   7  10
BRANCH   1  19
ATOM     18  N   UNL     1       7.484   5.453  15.139  0.00  0.00    +0.000 N 
ATOM     19  C   UNL     1       6.774   5.875  16.222  0.00  0.00    +0.000 C 
ATOM     20  O   UNL     1       7.169   6.814  16.906  0.00  0.00    +0.000 OA
ATOM     21  H   UNL     1       8.292   5.993  14.857  0.00  0.00    +0.000 HD
ATOM     22  H   UNL     1       7.135   4.752  14.495  0.00  0.00    +0.000 HD
ENDBRANCH   1  19
BRANCH   4  23
ATOM     23  N   UNL     1       2.216   2.788  17.588  0.00  0.00    +0.000 N 
ATOM     24  H   UNL     1       1.829   2.190  16.871  0.00  0.00    +0.000 HD
BRANCH  23  25
ATOM     25  C   UNL     1       2.079   2.388  18.986  0.00  0.00    +0.000 C 
ATOM     26  C   UNL     1       3.409   2.697  19.694  0.00  0.00    +0.000 C 
ATOM     27  C   UNL     1       3.315   2.411  21.189  0.00  0.00    +0.000 C 
ATOM     28  C   UNL     1       2.131   3.139  21.820  0.00  0.00    +0.000 C 
ATOM     29  N   UNL     1       0.879   2.789  21.153  0.00  0.00    +0.000 NA
ATOM     30  C   UNL     1       0.921   3.105  19.715  0.00  0.00    +0.000 C 
ATOM     31  H   UNL     1       0.103   3.289  21.585  0.00  0.00    +0.000 HD
ENDBRANCH  23  25
ENDBRANCH   4  23
TORSDOF 4
ENDMDL
MODEL 8
REMARK VINA RESULT:      -8.3      2.481      5.100
REMARK  Name = 
REMARK  4 active torsions:
REMARK  status: ('A' for Active; 'I' for Inactive)
REMARK    1  A    between atoms: C_2  and  C_4
REMARK    2  A    between atoms: C_7  and  N_8
REMARK    3  A    between atoms: N_8  and  C_9
REMARK    4  A    between atoms: C_17  and  C_18
REMARK                            x       y       z     vdW  Elec       q    Type
REMARK                         _______ _______ _______ _____ _____    ______ ____
ROOT
ATOM      1  C   UNL     1       2.727   3.294  20.451  0.00  0.00    +0.000 A 
ATOM      2  C   UNL     1       3.883   2.567  20.235  0.00  0.00    +0.000 A 
ATOM      3  N   UNL     1       5.020   3.069  19.704  0.00  0.00    +0.000 NA
ATOM      4  C   UNL     1       5.088   4.371  19.342  0.00  0.00    +0.000 A 
ATOM      5  C   UNL     1       3.952   5.201  19.546  0.00  0.00    +0.000 A 
ATOM      6  C   UNL     1       3.748   6.591  19.210  0.00  0.00    +0.000 A 
ATOM      7  C   UNL     1       2.488   7.067  19.512  0.00  0.00    +0.000 A 
ATOM      8  S   UNL     1       1.532   5.825  20.168  0.00  0.00    +0.000 S 
ATOM      9  C   UNL     1       2.785   4.647  20.086  0.00  0.00    +0.000 A 
ENDROOT
BRANCH   7  10
ATOM     10  C   UNL     1       1.940   8.419  19.355  0.00  0.00    +0.000 A 
ATOM     11  C   UNL     1       0.958   8.879  20.249  0.00  0.00    +0.000 A 
ATOM     12  C   UNL     1       0.425  10.167  20.127  0.00  0.00    +0.000 A 
ATOM     13  C   UNL     1       0.868  10.998  19.109  0.00  0.00    +0.000 A 
ATOM     14  F   UNL     1       0.356  12.231  18.997  0.00  0.00    +0.000 F 
ATOM     15  C   UNL     1       1.831  10.558  18.212  0.00  0.00    +0.000 A 
ATOM     16  F   UNL     1       2.256  11.357  17.226  0.00  0.00    +0.000 F 
ATOM     17  C   UNL     1       2.367   9.279  18.329  0.00  0.00    +0.000 A 
ENDBRANCH   7  10
BRANCH   1  19
ATOM     18  N   UNL     1       0.467   2.430  20.169  0.00  0.00    +0.000 N 
ATOM     19  C   UNL     1       1.537   2.614  20.992  0.00  0.00    +0.000 C 
ATOM     20  O   UNL     1       1.505   2.235  22.159  0.00  0.00    +0.000 OA
ATOM     21  H   UNL     1      -0.315   1.890  20.515  0.00  0.00    +0.000 HD
ATOM     22  H   UNL     1       0.498   2.637  19.177  0.00  0.00    +0.000 HD
ENDBRANCH   1  19
BRANCH   4  23
ATOM     23  N   UNL     1       6.225   4.862  18.726  0.00  0.00    +0.000 N 
ATOM     24  H   UNL     1       6.999   5.092  19.335  0.00  0.00    +0.000 HD
BRANCH  23  25
ATOM     25  C   UNL     1       6.506   4.505  17.339  0.00  0.00    +0.000 C 
ATOM     26  C   UNL     1       5.163   4.205  16.651  0.00  0.00    +0.000 C 
ATOM     27  C   UNL     1       5.355   3.930  15.164  0.00  0.00    +0.000 C 
ATOM     28  C   UNL     1       6.122   5.062  14.485  0.00  0.00    +0.000 C 
ATOM     29  N   UNL     1       7.411   5.291  15.134  0.00  0.00    +0.000 NA
ATOM     30  C   UNL     1       7.252   5.613  16.562  0.00  0.00    +0.000 C 
ATOM     31  H   UNL     1       7.903   6.053  14.670  0.00  0.00    +0.000 HD
ENDBRANCH  23  25
ENDBRANCH   4  23
TORSDOF 4
ENDMDL
MODEL 9
REMARK VINA RESULT:      -8.2      2.491      5.006
REMARK  Name = 
REMARK  4 active torsions:
REMARK  status: ('A' for Active; 'I' for Inactive)
REMARK    1  A    between atoms: C_2  and  C_4
REMARK    2  A    between atoms: C_7  and  N_8
REMARK    3  A    between atoms: N_8  and  C_9
REMARK    4  A    between atoms: C_17  and  C_18
REMARK                            x       y       z     vdW  Elec       q    Type
REMARK                         _______ _______ _______ _____ _____    ______ ____
ROOT
ATOM      1  C   UNL     1       2.803   3.714  20.211  0.00  0.00    +0.000 A 
ATOM      2  C   UNL     1       3.745   2.932  19.570  0.00  0.00    +0.000 A 
ATOM      3  N   UNL     1       4.562   3.363  18.583  0.00  0.00    +0.000 NA
ATOM      4  C   UNL     1       4.496   4.645  18.154  0.00  0.00    +0.000 A 
ATOM      5  C   UNL     1       3.568   5.529  18.770  0.00  0.00    +0.000 A 
ATOM      6  C   UNL     1       3.268   6.910  18.474  0.00  0.00    +0.000 A 
ATOM      7  C   UNL     1       2.263   7.450  19.251  0.00  0.00    +0.000 A 
ATOM      8  S   UNL     1       1.649   6.277  20.316  0.00  0.00    +0.000 S 
ATOM      9  C   UNL     1       2.727   5.046  19.781  0.00  0.00    +0.000 A 
ENDROOT
BRANCH   7  10
ATOM     10  C   UNL     1       1.725   8.815  19.264  0.00  0.00    +0.000 A 
ATOM     11  C   UNL     1       0.712   9.156  20.177  0.00  0.00    +0.000 A 
ATOM     12  C   UNL     1       0.189  10.452  20.217  0.00  0.00    +0.000 A 
ATOM     13  C   UNL     1       0.673  11.413  19.340  0.00  0.00    +0.000 A 
ATOM     14  F   UNL     1       0.169  12.653  19.383  0.00  0.00    +0.000 F 
ATOM     15  C   UNL     1       1.667  11.093  18.427  0.00  0.00    +0.000 A 
ATOM     16  F   UNL     1       2.131  12.018  17.577  0.00  0.00    +0.000 F 
ATOM     17  C   UNL     1       2.193   9.806  18.383  0.00  0.00    +0.000 A 
ENDBRANCH   7  10
BRANCH   1  19
ATOM     18  N   UNL     1       0.648   2.822  20.912  0.00  0.00    +0.000 N 
ATOM     19  C   UNL     1       1.939   3.106  21.238  0.00  0.00    +0.000 C 
ATOM     20  O   UNL     1       2.367   2.876  22.365  0.00  0.00    +0.000 OA
ATOM     21  H   UNL     1       0.081   2.328  21.589  0.00  0.00    +0.000 HD
ATOM     22  H   UNL     1       0.292   2.902  19.966  0.00  0.00    +0.000 HD
ENDBRANCH   1  19
BRANCH   4  23
ATOM     23  N   UNL     1       5.277   5.063  17.091  0.00  0.00    +0.000 N 
ATOM     24  H   UNL     1       4.782   5.325  16.250  0.00  0.00    +0.000 HD
BRANCH  23  25
ATOM     25  C   UNL     1       6.589   5.651  17.346  0.00  0.00    +0.000 C 
ATOM     26  C   UNL     1       6.511   7.144  16.984  0.00  0.00    +0.000 C 
ATOM     27  C   UNL     1       7.812   7.861  17.327  0.00  0.00    +0.000 C 
ATOM     28  C   UNL     1       8.206   7.630  18.783  0.00  0.00    +0.000 C 
ATOM     29  N   UNL     1       8.314   6.204  19.082  0.00  0.00    +0.000 NA
ATOM     30  C   UNL     1       7.053   5.493  18.811  0.00  0.00    +0.000 C 
ATOM     31  H   UNL     1       8.572   6.072  20.059  0.00  0.00    +0.000 HD
ENDBRANCH  23  25
ENDBRANCH   4  23
TORSDOF 4
ENDMDL
