MODEL 1
REMARK VINA RESULT:      -8.6      0.000      0.000
REMARK  Name = 
REMARK  7 active torsions:
REMARK  status: ('A' for Active; 'I' for Inactive)
REMARK    1  A    between atoms: C_1  and  C_2
REMARK    2  A    between atoms: C_8  and  N_9
REMARK    3  A    between atoms: C_10  and  C_12
REMARK    4  A    between atoms: C_12  and  C_13
REMARK    5  A    between atoms: C_13  and  S_14
REMARK    6  A    between atoms: S_14  and  C_17
REMARK    7  A    between atoms: C_22  and  C_23
REMARK                            x       y       z     vdW  Elec       q    Type
REMARK                         _______ _______ _______ _____ _____    ______ ____
ROOT
ATOM      1  S   UNL     1       3.898   2.298  19.561  0.00  0.00    +0.000 S 
ATOM      2  O   UNL     1       4.802   1.929  20.635  0.00  0.00    +0.000 OA
ATOM      3  O   UNL     1       3.481   1.284  18.609  0.00  0.00    +0.000 OA
ENDROOT
BRANCH   1   4
ATOM      4  C   UNL     1       4.666   3.627  18.622  0.00  0.00    +0.000 A 
ATOM      5  C   UNL     1       5.795   4.229  19.205  0.00  0.00    +0.000 A 
ATOM      6  C   UNL     1       6.378   5.356  18.627  0.00  0.00    +0.000 A 
ATOM      7  C   UNL     1       5.814   5.922  17.486  0.00  0.00    +0.000 A 
ATOM      8  C   UNL     1       4.702   5.332  16.891  0.00  0.00    +0.000 A 
ATOM      9  C   UNL     1       4.108   4.175  17.445  0.00  0.00    +0.000 A 
ATOM     10  C   UNL     1       2.878   3.644  16.762  0.00  0.00    +0.000 C 
ATOM     11  N   UNL     1       6.313   7.125  16.984  0.00  0.00    +0.000 N 
ATOM     12  C   UNL     1       7.423   7.717  17.535  0.00  0.00    +0.000 C 
ATOM     13  O   UNL     1       7.794   8.838  17.199  0.00  0.00    +0.000 OA
ATOM     14  C   UNL     1       8.192   6.823  18.501  0.00  0.00    +0.000 C 
ATOM     15  O   UNL     1       7.448   5.898  19.286  0.00  0.00    +0.000 OA
ATOM     16  H   UNL     1       5.823   7.643  16.264  0.00  0.00    +0.000 HD
ENDBRANCH   1   4
BRANCH   1  17
ATOM     17  C   UNL     1       2.433   2.954  20.306  0.00  0.00    +0.000 C 
BRANCH  17  18
ATOM     18  C   UNL     1       2.648   4.222  21.112  0.00  0.00    +0.000 C 
BRANCH  18  20
ATOM     19  N   UNL     1       2.003   6.588  21.004  0.00  0.00    +0.000 N 
ATOM     20  C   UNL     1       1.748   5.301  20.550  0.00  0.00    +0.000 C 
ATOM     21  O   UNL     1       0.921   4.975  19.700  0.00  0.00    +0.000 OA
ATOM     22  H   UNL     1       2.662   6.697  21.767  0.00  0.00    +0.000 HD
BRANCH  19  30
ATOM     23  C   UNL     1       2.752   7.722  18.346  0.00  0.00    +0.000 C 
ATOM     24  C   UNL     1       1.719   8.328  19.264  0.00  0.00    +0.000 A 
ATOM     25  C   UNL     1       1.075   9.502  18.810  0.00  0.00    +0.000 A 
ATOM     26  C   UNL     1       0.121  10.145  19.593  0.00  0.00    +0.000 A 
ATOM     27 CL   UNL     1      -0.652  11.571  19.020  0.00  0.00    +0.000 Cl
ATOM     28  C   UNL     1      -0.206   9.634  20.836  0.00  0.00    +0.000 A 
ATOM     29  C   UNL     1       0.420   8.469  21.297  0.00  0.00    +0.000 A 
ATOM     30  C   UNL     1       1.387   7.791  20.533  0.00  0.00    +0.000 A 
ENDBRANCH  19  30
ENDBRANCH  18  20
ENDBRANCH  17  18
ENDBRANCH   1  17
TORSDOF 5
ENDMDL
MODEL 2
REMARK VINA RESULT:      -8.4      4.198      7.470
REMARK  Name = 
REMARK  7 active torsions:
REMARK  status: ('A' for Active; 'I' for Inactive)
REMARK    1  A    between atoms: C_1  and  C_2
REMARK    2  A    between atoms: C_8  and  N_9
REMARK    3  A    between atoms: C_10  and  C_12
REMARK    4  A    between atoms: C_12  and  C_13
REMARK    5  A    between atoms: C_13  and  S_14
REMARK    6  A    between atoms: S_14  and  C_17
REMARK    7  A    between atoms: C_22  and  C_23
REMARK                            x       y       z     vdW  Elec       q    Type
REMARK                         _______ _______ _______ _____ _____    ______ ____
ROOT
ATOM      1  S   UNL     1       7.344   5.098  17.569  0.00  0.00    +0.000 S 
ATOM      2  O   UNL     1       7.942   4.628  16.333  0.00  0.00    +0.000 OA
ATOM      3  O   UNL     1       7.894   4.646  18.836  0.00  0.00    +0.000 OA
ENDROOT
BRANCH   1   4
ATOM      4  C   UNL     1       5.603   4.642  17.551  0.00  0.00    +0.000 A 
ATOM      5  C   UNL     1       4.992   4.467  18.805  0.00  0.00    +0.000 A 
ATOM      6  C   UNL     1       3.690   3.979  18.899  0.00  0.00    +0.000 A 
ATOM      7  C   UNL     1       2.998   3.619  17.745  0.00  0.00    +0.000 A 
ATOM      8  C   UNL     1       3.585   3.796  16.495  0.00  0.00    +0.000 A 
ATOM      9  C   UNL     1       4.895   4.311  16.373  0.00  0.00    +0.000 A 
ATOM     10  C   UNL     1       5.463   4.415  14.984  0.00  0.00    +0.000 C 
ATOM     11  N   UNL     1       1.748   3.006  17.844  0.00  0.00    +0.000 N 
ATOM     12  C   UNL     1       1.134   2.840  19.061  0.00  0.00    +0.000 C 
ATOM     13  O   UNL     1       0.103   2.184  19.183  0.00  0.00    +0.000 OA
ATOM     14  C   UNL     1       1.781   3.623  20.198  0.00  0.00    +0.000 C 
ATOM     15  O   UNL     1       3.192   3.803  20.162  0.00  0.00    +0.000 OA
ATOM     16  H   UNL     1       1.298   2.585  17.039  0.00  0.00    +0.000 HD
ENDBRANCH   1   4
BRANCH   1  17
ATOM     17  C   UNL     1       7.430   6.865  17.560  0.00  0.00    +0.000 C 
BRANCH  17  18
ATOM     18  C   UNL     1       8.314   7.459  18.642  0.00  0.00    +0.000 C 
BRANCH  18  20
ATOM     19  N   UNL     1       9.383   9.611  19.144  0.00  0.00    +0.000 N 
ATOM     20  C   UNL     1       8.399   8.953  18.419  0.00  0.00    +0.000 C 
ATOM     21  O   UNL     1       7.653   9.452  17.578  0.00  0.00    +0.000 OA
ATOM     22  H   UNL     1       9.871   9.085  19.862  0.00  0.00    +0.000 HD
BRANCH  19  30
ATOM     23  C   UNL     1       8.966  11.495  21.421  0.00  0.00    +0.000 C 
ATOM     24  C   UNL     1       9.579  11.888  20.100  0.00  0.00    +0.000 A 
ATOM     25  C   UNL     1       9.979  13.237  19.960  0.00  0.00    +0.000 A 
ATOM     26  C   UNL     1      10.539  13.699  18.772  0.00  0.00    +0.000 A 
ATOM     27 CL   UNL     1      11.021  15.343  18.625  0.00  0.00    +0.000 Cl
ATOM     28  C   UNL     1      10.707  12.831  17.708  0.00  0.00    +0.000 A 
ATOM     29  C   UNL     1      10.320  11.492  17.834  0.00  0.00    +0.000 A 
ATOM     30  C   UNL     1       9.753  10.988  19.018  0.00  0.00    +0.000 A 
ENDBRANCH  19  30
ENDBRANCH  18  20
ENDBRANCH  17  18
ENDBRANCH   1  17
TORSDOF 5
ENDMDL
MODEL 3
REMARK VINA RESULT:      -8.4      0.546      1.359
REMARK  Name = 
REMARK  7 active torsions:
REMARK  status: ('A' for Active; 'I' for Inactive)
REMARK    1  A    between atoms: C_1  and  C_2
REMARK    2  A    between atoms: C_8  and  N_9
REMARK    3  A    between atoms: C_10  and  C_12
REMARK    4  A    between atoms: C_12  and  C_13
REMARK    5  A    between atoms: C_13  and  S_14
REMARK    6  A    between atoms: S_14  and  C_17
REMARK    7  A    between atoms: C_22  and  C_23
REMARK                            x       y       z     vdW  Elec       q    Type
REMARK                         _______ _______ _______ _____ _____    ______ ____
ROOT
ATOM      1  S   UNL     1       3.829   2.320  19.636  0.00  0.00    +0.000 S 
ATOM      2  O   UNL     1       4.711   1.984  20.740  0.00  0.00    +0.000 OA
ATOM      3  O   UNL     1       3.444   1.280  18.698  0.00  0.00    +0.000 OA
ENDROOT
BRANCH   1   4
ATOM      4  C   UNL     1       4.608   3.634  18.685  0.00  0.00    +0.000 A 
ATOM      5  C   UNL     1       5.730   4.246  19.272  0.00  0.00    +0.000 A 
ATOM      6  C   UNL     1       6.319   5.364  18.684  0.00  0.00    +0.000 A 
ATOM      7  C   UNL     1       5.769   5.911  17.527  0.00  0.00    +0.000 A 
ATOM      8  C   UNL     1       4.663   5.311  16.928  0.00  0.00    +0.000 A 
ATOM      9  C   UNL     1       4.063   4.163  17.493  0.00  0.00    +0.000 A 
ATOM     10  C   UNL     1       2.842   3.620  16.804  0.00  0.00    +0.000 C 
ATOM     11  N   UNL     1       6.272   7.107  17.012  0.00  0.00    +0.000 N 
ATOM     12  C   UNL     1       7.376   7.708  17.567  0.00  0.00    +0.000 C 
ATOM     13  O   UNL     1       7.750   8.824  17.218  0.00  0.00    +0.000 OA
ATOM     14  C   UNL     1       8.134   6.830  18.556  0.00  0.00    +0.000 C 
ATOM     15  O   UNL     1       7.381   5.916  19.347  0.00  0.00    +0.000 OA
ATOM     16  H   UNL     1       5.792   7.613  16.278  0.00  0.00    +0.000 HD
ENDBRANCH   1   4
BRANCH   1  17
ATOM     17  C   UNL     1       2.341   2.978  20.330  0.00  0.00    +0.000 C 
BRANCH  17  18
ATOM     18  C   UNL     1       2.525   4.268  21.110  0.00  0.00    +0.000 C 
BRANCH  18  20
ATOM     19  N   UNL     1       2.141   6.672  20.798  0.00  0.00    +0.000 N 
ATOM     20  C   UNL     1       1.880   5.392  20.329  0.00  0.00    +0.000 C 
ATOM     21  O   UNL     1       1.245   5.098  19.317  0.00  0.00    +0.000 OA
ATOM     22  H   UNL     1       2.614   6.759  21.691  0.00  0.00    +0.000 HD
BRANCH  19  30
ATOM     23  C   UNL     1       0.661   8.757  22.338  0.00  0.00    +0.000 C 
ATOM     24  C   UNL     1       1.077   8.907  20.895  0.00  0.00    +0.000 A 
ATOM     25  C   UNL     1       0.739  10.123  20.258  0.00  0.00    +0.000 A 
ATOM     26  C   UNL     1       1.064  10.348  18.923  0.00  0.00    +0.000 A 
ATOM     27 CL   UNL     1       0.645  11.836  18.169  0.00  0.00    +0.000 Cl
ATOM     28  C   UNL     1       1.726   9.370  18.203  0.00  0.00    +0.000 A 
ATOM     29  C   UNL     1       2.071   8.163  18.822  0.00  0.00    +0.000 A 
ATOM     30  C   UNL     1       1.762   7.900  20.168  0.00  0.00    +0.000 A 
ENDBRANCH  19  30
ENDBRANCH  18  20
ENDBRANCH  17  18
ENDBRANCH   1  17
TORSDOF 5
ENDMDL
MODEL 4
REMARK VINA RESULT:      -8.2      4.141      7.374
REMARK  Name = 
REMARK  7 active torsions:
REMARK  status: ('A' for Active; 'I' for Inactive)
REMARK    1  A    between atoms: C_1  and  C_2
REMARK    2  A    between atoms: C_8  and  N_9
REMARK    3  A    between atoms: C_10  and  C_12
REMARK    4  A    between atoms: C_12  and  C_13
REMARK    5  A    between atoms: C_13  and  S_14
REMARK    6  A    between atoms: S_14  and  C_17
REMARK    7  A    between atoms: C_22  and  C_23
REMARK                            x       y       z     vdW  Elec       q    Type
REMARK                         _______ _______ _______ _____ _____    ______ ____
ROOT
ATOM      1  S   UNL     1       7.296   5.468  17.660  0.00  0.00    +0.000 S 
ATOM      2  O   UNL     1       7.448   5.636  16.226  0.00  0.00    +0.000 OA
ATOM      3  O   UNL     1       8.044   4.419  18.331  0.00  0.00    +0.000 OA
ENDROOT
BRANCH   1   4
ATOM      4  C   UNL     1       5.553   5.184  18.004  0.00  0.00    +0.000 A 
ATOM      5  C   UNL     1       5.241   4.008  18.707  0.00  0.00    +0.000 A 
ATOM      6  C   UNL     1       3.914   3.626  18.901  0.00  0.00    +0.000 A 
ATOM      7  C   UNL     1       2.885   4.390  18.356  0.00  0.00    +0.000 A 
ATOM      8  C   UNL     1       3.177   5.563  17.665  0.00  0.00    +0.000 A 
ATOM      9  C   UNL     1       4.513   5.984  17.476  0.00  0.00    +0.000 A 
ATOM     10  C   UNL     1       4.730   7.234  16.670  0.00  0.00    +0.000 C 
ATOM     11  N   UNL     1       1.566   3.939  18.431  0.00  0.00    +0.000 N 
ATOM     12  C   UNL     1       1.246   2.799  19.127  0.00  0.00    +0.000 C 
ATOM     13  O   UNL     1       0.118   2.313  19.091  0.00  0.00    +0.000 OA
ATOM     14  C   UNL     1       2.369   2.271  20.012  0.00  0.00    +0.000 C 
ATOM     15  O   UNL     1       3.708   2.445  19.562  0.00  0.00    +0.000 OA
ATOM     16  H   UNL     1       0.823   4.382  17.905  0.00  0.00    +0.000 HD
ENDBRANCH   1   4
BRANCH   1  17
ATOM     17  C   UNL     1       7.744   7.001  18.422  0.00  0.00    +0.000 C 
BRANCH  17  18
ATOM     18  C   UNL     1       8.331   8.030  17.472  0.00  0.00    +0.000 C 
BRANCH  18  20
ATOM     19  N   UNL     1       9.291   9.598  19.099  0.00  0.00    +0.000 N 
ATOM     20  C   UNL     1       8.297   9.380  18.155  0.00  0.00    +0.000 C 
ATOM     21  O   UNL     1       7.453  10.193  17.780  0.00  0.00    +0.000 OA
ATOM     22  H   UNL     1       9.869   8.808  19.365  0.00  0.00    +0.000 HD
BRANCH  19  30
ATOM     23  C   UNL     1      10.927  11.726  17.794  0.00  0.00    +0.000 C 
ATOM     24  C   UNL     1      10.315  11.853  19.167  0.00  0.00    +0.000 A 
ATOM     25  C   UNL     1      10.538  13.068  19.855  0.00  0.00    +0.000 A 
ATOM     26  C   UNL     1      10.029  13.273  21.134  0.00  0.00    +0.000 A 
ATOM     27 CL   UNL     1      10.311  14.760  21.950  0.00  0.00    +0.000 Cl
ATOM     28  C   UNL     1       9.293  12.275  21.749  0.00  0.00    +0.000 A 
ATOM     29  C   UNL     1       9.059  11.069  21.078  0.00  0.00    +0.000 A 
ATOM     30  C   UNL     1       9.556  10.826  19.785  0.00  0.00    +0.000 A 
ENDBRANCH  19  30
ENDBRANCH  18  20
ENDBRANCH  17  18
ENDBRANCH   1  17
TORSDOF 5
ENDMDL
MODEL 5
REMARK VINA RESULT:      -8.2      4.136      7.438
REMARK  Name = 
REMARK  7 active torsions:
REMARK  status: ('A' for Active; 'I' for Inactive)
REMARK    1  A    between atoms: C_1  and  C_2
REMARK    2  A    between atoms: C_8  and  N_9
REMARK    3  A    between atoms: C_10  and  C_12
REMARK    4  A    between atoms: C_12  and  C_13
REMARK    5  A    between atoms: C_13  and  S_14
REMARK    6  A    between atoms: S_14  and  C_17
REMARK    7  A    between atoms: C_22  and  C_23
REMARK                            x       y       z     vdW  Elec       q    Type
REMARK                         _______ _______ _______ _____ _____    ______ ____
ROOT
ATOM      1  S   UNL     1       7.380   5.236  18.267  0.00  0.00    +0.000 S 
ATOM      2  O   UNL     1       8.178   4.475  17.324  0.00  0.00    +0.000 OA
ATOM      3  O   UNL     1       7.686   5.147  19.684  0.00  0.00    +0.000 OA
ENDROOT
BRANCH   1   4
ATOM      4  C   UNL     1       5.661   4.744  18.061  0.00  0.00    +0.000 A 
ATOM      5  C   UNL     1       4.928   4.535  19.242  0.00  0.00    +0.000 A 
ATOM      6  C   UNL     1       3.634   4.019  19.194  0.00  0.00    +0.000 A 
ATOM      7  C   UNL     1       3.073   3.664  17.969  0.00  0.00    +0.000 A 
ATOM      8  C   UNL     1       3.782   3.874  16.789  0.00  0.00    +0.000 A 
ATOM      9  C   UNL     1       5.087   4.419  16.811  0.00  0.00    +0.000 A 
ATOM     10  C   UNL     1       5.793   4.558  15.491  0.00  0.00    +0.000 C 
ATOM     11  N   UNL     1       1.834   3.023  17.928  0.00  0.00    +0.000 N 
ATOM     12  C   UNL     1       1.101   2.824  19.073  0.00  0.00    +0.000 C 
ATOM     13  O   UNL     1       0.078   2.144  19.077  0.00  0.00    +0.000 OA
ATOM     14  C   UNL     1       1.610   3.600  20.282  0.00  0.00    +0.000 C 
ATOM     15  O   UNL     1       3.013   3.810  20.396  0.00  0.00    +0.000 OA
ATOM     16  H   UNL     1       1.480   2.606  17.076  0.00  0.00    +0.000 HD
ENDBRANCH   1   4
BRANCH   1  17
ATOM     17  C   UNL     1       7.502   6.941  17.810  0.00  0.00    +0.000 C 
BRANCH  17  18
ATOM     18  C   UNL     1       8.476   7.750  18.648  0.00  0.00    +0.000 C 
BRANCH  18  20
ATOM     19  N   UNL     1       9.265  10.067  18.839  0.00  0.00    +0.000 N 
ATOM     20  C   UNL     1       8.352   9.204  18.249  0.00  0.00    +0.000 C 
ATOM     21  O   UNL     1       7.514   9.497  17.396  0.00  0.00    +0.000 OA
ATOM     22  H   UNL     1       9.846   9.699  19.586  0.00  0.00    +0.000 HD
BRANCH  19  30
ATOM     23  C   UNL     1      11.858  11.418  19.438  0.00  0.00    +0.000 C 
ATOM     24  C   UNL     1      10.677  12.102  18.796  0.00  0.00    +0.000 A 
ATOM     25  C   UNL     1      10.835  13.466  18.459  0.00  0.00    +0.000 A 
ATOM     26  C   UNL     1       9.796  14.188  17.879  0.00  0.00    +0.000 A 
ATOM     27 CL   UNL     1      10.012  15.846  17.476  0.00  0.00    +0.000 Cl
ATOM     28  C   UNL     1       8.585  13.567  17.627  0.00  0.00    +0.000 A 
ATOM     29  C   UNL     1       8.415  12.216  17.950  0.00  0.00    +0.000 A 
ATOM     30  C   UNL     1       9.443  11.454  18.535  0.00  0.00    +0.000 A 
ENDBRANCH  19  30
ENDBRANCH  18  20
ENDBRANCH  17  18
ENDBRANCH   1  17
TORSDOF 5
ENDMDL
MODEL 6
REMARK VINA RESULT:      -8.1      4.114      7.386
REMARK  Name = 
REMARK  7 active torsions:
REMARK  status: ('A' for Active; 'I' for Inactive)
REMARK    1  A    between atoms: C_1  and  C_2
REMARK    2  A    between atoms: C_8  and  N_9
REMARK    3  A    between atoms: C_10  and  C_12
REMARK    4  A    between atoms: C_12  and  C_13
REMARK    5  A    between atoms: C_13  and  S_14
REMARK    6  A    between atoms: S_14  and  C_17
REMARK    7  A    between atoms: C_22  and  C_23
REMARK                            x       y       z     vdW  Elec       q    Type
REMARK                         _______ _______ _______ _____ _____    ______ ____
ROOT
ATOM      1  S   UNL     1       7.428   5.190  17.919  0.00  0.00    +0.000 S 
ATOM      2  O   UNL     1       8.184   4.162  17.228  0.00  0.00    +0.000 OA
ATOM      3  O   UNL     1       7.716   5.459  19.317  0.00  0.00    +0.000 OA
ENDROOT
BRANCH   1   4
ATOM      4  C   UNL     1       5.683   4.764  17.807  0.00  0.00    +0.000 A 
ATOM      5  C   UNL     1       5.011   4.566  19.026  0.00  0.00    +0.000 A 
ATOM      6  C   UNL     1       3.698   4.097  19.046  0.00  0.00    +0.000 A 
ATOM      7  C   UNL     1       3.056   3.779  17.852  0.00  0.00    +0.000 A 
ATOM      8  C   UNL     1       3.704   3.979  16.635  0.00  0.00    +0.000 A 
ATOM      9  C   UNL     1       5.027   4.476  16.588  0.00  0.00    +0.000 A 
ATOM     10  C   UNL     1       5.661   4.606  15.232  0.00  0.00    +0.000 C 
ATOM     11  N   UNL     1       1.793   3.184  17.875  0.00  0.00    +0.000 N 
ATOM     12  C   UNL     1       1.120   2.997  19.057  0.00  0.00    +0.000 C 
ATOM     13  O   UNL     1       0.075   2.354  19.113  0.00  0.00    +0.000 OA
ATOM     14  C   UNL     1       1.725   3.738  20.244  0.00  0.00    +0.000 C 
ATOM     15  O   UNL     1       3.139   3.896  20.279  0.00  0.00    +0.000 OA
ATOM     16  H   UNL     1       1.376   2.791  17.039  0.00  0.00    +0.000 HD
ENDBRANCH   1   4
BRANCH   1  17
ATOM     17  C   UNL     1       7.662   6.704  17.034  0.00  0.00    +0.000 C 
BRANCH  17  18
ATOM     18  C   UNL     1       7.058   7.926  17.705  0.00  0.00    +0.000 C 
BRANCH  18  20
ATOM     19  N   UNL     1       8.220  10.088  17.729  0.00  0.00    +0.000 N 
ATOM     20  C   UNL     1       8.188   8.791  18.221  0.00  0.00    +0.000 C 
ATOM     21  O   UNL     1       8.935   8.312  19.074  0.00  0.00    +0.000 OA
ATOM     22  H   UNL     1       7.589  10.320  16.969  0.00  0.00    +0.000 HD
BRANCH  19  30
ATOM     23  C   UNL     1       7.543  12.940  17.167  0.00  0.00    +0.000 C 
ATOM     24  C   UNL     1       8.778  12.495  17.910  0.00  0.00    +0.000 A 
ATOM     25  C   UNL     1       9.649  13.512  18.365  0.00  0.00    +0.000 A 
ATOM     26  C   UNL     1      10.823  13.200  19.044  0.00  0.00    +0.000 A 
ATOM     27 CL   UNL     1      11.866  14.453  19.591  0.00  0.00    +0.000 Cl
ATOM     28  C   UNL     1      11.149  11.876  19.281  0.00  0.00    +0.000 A 
ATOM     29  C   UNL     1      10.294  10.859  18.841  0.00  0.00    +0.000 A 
ATOM     30  C   UNL     1       9.099  11.135  18.153  0.00  0.00    +0.000 A 
ENDBRANCH  19  30
ENDBRANCH  18  20
ENDBRANCH  17  18
ENDBRANCH   1  17
TORSDOF 5
ENDMDL
MODEL 7
REMARK VINA RESULT:      -8.1      2.151      2.615
REMARK  Name = 
REMARK  7 active torsions:
REMARK  status: ('A' for Active; 'I' for Inactive)
REMARK    1  A    between atoms: C_1  and  C_2
REMARK    2  A    between atoms: C_8  and  N_9
REMARK    3  A    between atoms: C_10  and  C_12
REMARK    4  A    between atoms: C_12  and  C_13
REMARK    5  A    between atoms: C_13  and  S_14
REMARK    6  A    between atoms: S_14  and  C_17
REMARK    7  A    between atoms: C_22  and  C_23
REMARK                            x       y       z     vdW  Elec       q    Type
REMARK                         _______ _______ _______ _____ _____    ______ ____
ROOT
ATOM      1  S   UNL     1       4.089   2.668  18.762  0.00  0.00    +0.000 S 
ATOM      2  O   UNL     1       4.865   2.466  19.972  0.00  0.00    +0.000 OA
ATOM      3  O   UNL     1       3.671   1.511  17.990  0.00  0.00    +0.000 OA
ENDROOT
BRANCH   1   4
ATOM      4  C   UNL     1       5.042   3.727  17.663  0.00  0.00    +0.000 A 
ATOM      5  C   UNL     1       5.111   3.325  16.317  0.00  0.00    +0.000 A 
ATOM      6  C   UNL     1       5.936   3.997  15.417  0.00  0.00    +0.000 A 
ATOM      7  C   UNL     1       6.736   5.049  15.858  0.00  0.00    +0.000 A 
ATOM      8  C   UNL     1       6.672   5.465  17.186  0.00  0.00    +0.000 A 
ATOM      9  C   UNL     1       5.825   4.815  18.112  0.00  0.00    +0.000 A 
ATOM     10  C   UNL     1       5.865   5.301  19.534  0.00  0.00    +0.000 C 
ATOM     11  N   UNL     1       7.661   5.634  14.992  0.00  0.00    +0.000 N 
ATOM     12  C   UNL     1       7.730   5.260  13.672  0.00  0.00    +0.000 C 
ATOM     13  O   UNL     1       8.623   5.662  12.931  0.00  0.00    +0.000 OA
ATOM     14  C   UNL     1       6.557   4.408  13.202  0.00  0.00    +0.000 C 
ATOM     15  O   UNL     1       5.971   3.510  14.138  0.00  0.00    +0.000 OA
ATOM     16  H   UNL     1       8.366   6.280  15.326  0.00  0.00    +0.000 HD
ENDBRANCH   1   4
BRANCH   1  17
ATOM     17  C   UNL     1       2.625   3.553  19.214  0.00  0.00    +0.000 C 
BRANCH  17  18
ATOM     18  C   UNL     1       2.694   4.235  20.569  0.00  0.00    +0.000 C 
BRANCH  18  20
ATOM     19  N   UNL     1       2.357   6.666  20.510  0.00  0.00    +0.000 N 
ATOM     20  C   UNL     1       1.751   5.419  20.554  0.00  0.00    +0.000 C 
ATOM     21  O   UNL     1       0.542   5.190  20.512  0.00  0.00    +0.000 OA
ATOM     22  H   UNL     1       3.364   6.705  20.632  0.00  0.00    +0.000 HD
BRANCH  19  30
ATOM     23  C   UNL     1       2.431   8.097  17.891  0.00  0.00    +0.000 C 
ATOM     24  C   UNL     1       1.707   8.606  19.113  0.00  0.00    +0.000 A 
ATOM     25  C   UNL     1       1.022   9.836  18.981  0.00  0.00    +0.000 A 
ATOM     26  C   UNL     1       0.339  10.396  20.057  0.00  0.00    +0.000 A 
ATOM     27 CL   UNL     1      -0.489  11.892  19.873  0.00  0.00    +0.000 Cl
ATOM     28  C   UNL     1       0.328   9.745  21.278  0.00  0.00    +0.000 A 
ATOM     29  C   UNL     1       0.998   8.524  21.422  0.00  0.00    +0.000 A 
ATOM     30  C   UNL     1       1.696   7.927  20.358  0.00  0.00    +0.000 A 
ENDBRANCH  19  30
ENDBRANCH  18  20
ENDBRANCH  17  18
ENDBRANCH   1  17
TORSDOF 5
ENDMDL
MODEL 8
REMARK VINA RESULT:      -7.8      4.183      7.364
REMARK  Name = 
REMARK  7 active torsions:
REMARK  status: ('A' for Active; 'I' for Inactive)
REMARK    1  A    between atoms: C_1  and  C_2
REMARK    2  A    between atoms: C_8  and  N_9
REMARK    3  A    between atoms: C_10  and  C_12
REMARK    4  A    between atoms: C_12  and  C_13
REMARK    5  A    between atoms: C_13  and  S_14
REMARK    6  A    between atoms: S_14  and  C_17
REMARK    7  A    between atoms: C_22  and  C_23
REMARK                            x       y       z     vdW  Elec       q    Type
REMARK                         _______ _______ _______ _____ _____    ______ ____
ROOT
ATOM      1  S   UNL     1       6.754   5.834  16.601  0.00  0.00    +0.000 S 
ATOM      2  O   UNL     1       6.161   5.805  15.277  0.00  0.00    +0.000 OA
ATOM      3  O   UNL     1       7.873   4.955  16.894  0.00  0.00    +0.000 OA
ENDROOT
BRANCH   1   4
ATOM      4  C   UNL     1       5.460   5.466  17.797  0.00  0.00    +0.000 A 
ATOM      5  C   UNL     1       5.576   4.245  18.483  0.00  0.00    +0.000 A 
ATOM      6  C   UNL     1       4.557   3.803  19.325  0.00  0.00    +0.000 A 
ATOM      7  C   UNL     1       3.391   4.553  19.457  0.00  0.00    +0.000 A 
ATOM      8  C   UNL     1       3.264   5.769  18.791  0.00  0.00    +0.000 A 
ATOM      9  C   UNL     1       4.294   6.250  17.951  0.00  0.00    +0.000 A 
ATOM     10  C   UNL     1       4.043   7.547  17.233  0.00  0.00    +0.000 C 
ATOM     11  N   UNL     1       2.315   4.048  20.190  0.00  0.00    +0.000 N 
ATOM     12  C   UNL     1       2.420   2.863  20.876  0.00  0.00    +0.000 C 
ATOM     13  O   UNL     1       1.448   2.337  21.412  0.00  0.00    +0.000 OA
ATOM     14  C   UNL     1       3.845   2.336  20.998  0.00  0.00    +0.000 C 
ATOM     15  O   UNL     1       4.740   2.583  19.919  0.00  0.00    +0.000 OA
ATOM     16  H   UNL     1       1.403   4.488  20.166  0.00  0.00    +0.000 HD
ENDBRANCH   1   4
BRANCH   1  17
ATOM     17  C   UNL     1       7.297   7.491  16.901  0.00  0.00    +0.000 C 
BRANCH  17  18
ATOM     18  C   UNL     1       8.199   7.650  18.113  0.00  0.00    +0.000 C 
BRANCH  18  20
ATOM     19  N   UNL     1       9.205   9.455  19.439  0.00  0.00    +0.000 N 
ATOM     20  C   UNL     1       8.298   9.124  18.441  0.00  0.00    +0.000 C 
ATOM     21  O   UNL     1       7.633   9.910  17.767  0.00  0.00    +0.000 OA
ATOM     22  H   UNL     1       9.624   8.695  19.965  0.00  0.00    +0.000 HD
BRANCH  19  30
ATOM     23  C   UNL     1      10.870  11.161  17.643  0.00  0.00    +0.000 C 
ATOM     24  C   UNL     1      10.353  11.604  18.989  0.00  0.00    +0.000 A 
ATOM     25  C   UNL     1      10.684  12.916  19.399  0.00  0.00    +0.000 A 
ATOM     26  C   UNL     1      10.268  13.408  20.632  0.00  0.00    +0.000 A 
ATOM     27 CL   UNL     1      10.681  15.008  21.110  0.00  0.00    +0.000 Cl
ATOM     28  C   UNL     1       9.518  12.607  21.476  0.00  0.00    +0.000 A 
ATOM     29  C   UNL     1       9.178  11.308  21.081  0.00  0.00    +0.000 A 
ATOM     30  C   UNL     1       9.579  10.776  19.842  0.00  0.00    +0.000 A 
ENDBRANCH  19  30
ENDBRANCH  18  20
ENDBRANCH  17  18
ENDBRANCH   1  17
TORSDOF 5
ENDMDL
MODEL 9
REMARK VINA RESULT:      -7.7      2.322      2.914
REMARK  Name = 
REMARK  7 active torsions:
REMARK  status: ('A' for Active; 'I' for Inactive)
REMARK    1  A    between atoms: C_1  and  C_2
REMARK    2  A    between atoms: C_8  and  N_9
REMARK    3  A    between atoms: C_10  and  C_12
REMARK    4  A    between atoms: C_12  and  C_13
REMARK    5  A    between atoms: C_13  and  S_14
REMARK    6  A    between atoms: S_14  and  C_17
REMARK    7  A    between atoms: C_22  and  C_23
REMARK                            x       y       z     vdW  Elec       q    Type
REMARK                         _______ _______ _______ _____ _____    ______ ____
ROOT
ATOM      1  S   UNL     1       4.214   2.861  18.972  0.00  0.00    +0.000 S 
ATOM      2  O   UNL     1       5.113   2.457  20.037  0.00  0.00    +0.000 OA
ATOM      3  O   UNL     1       3.524   1.840  18.204  0.00  0.00    +0.000 OA
ENDROOT
BRANCH   1   4
ATOM      4  C   UNL     1       5.152   3.863  17.807  0.00  0.00    +0.000 A 
ATOM      5  C   UNL     1       5.057   3.495  16.453  0.00  0.00    +0.000 A 
ATOM      6  C   UNL     1       5.850   4.116  15.490  0.00  0.00    +0.000 A 
ATOM      7  C   UNL     1       6.780   5.080  15.873  0.00  0.00    +0.000 A 
ATOM      8  C   UNL     1       6.880   5.462  17.208  0.00  0.00    +0.000 A 
ATOM      9  C   UNL     1       6.069   4.864  18.199  0.00  0.00    +0.000 A 
ATOM     10  C   UNL     1       6.288   5.304  19.620  0.00  0.00    +0.000 C 
ATOM     11  N   UNL     1       7.669   5.605  14.933  0.00  0.00    +0.000 N 
ATOM     12  C   UNL     1       7.578   5.264  13.606  0.00  0.00    +0.000 C 
ATOM     13  O   UNL     1       8.430   5.606  12.790  0.00  0.00    +0.000 OA
ATOM     14  C   UNL     1       6.293   4.533  13.235  0.00  0.00    +0.000 C 
ATOM     15  O   UNL     1       5.719   3.665  14.205  0.00  0.00    +0.000 OA
ATOM     16  H   UNL     1       8.458   6.176  15.210  0.00  0.00    +0.000 HD
ENDBRANCH   1   4
BRANCH   1  17
ATOM     17  C   UNL     1       2.978   3.903  19.690  0.00  0.00    +0.000 C 
BRANCH  17  18
ATOM     18  C   UNL     1       2.836   5.263  19.029  0.00  0.00    +0.000 C 
BRANCH  18  20
ATOM     19  N   UNL     1       2.156   7.524  19.701  0.00  0.00    +0.000 N 
ATOM     20  C   UNL     1       2.053   6.164  19.959  0.00  0.00    +0.000 C 
ATOM     21  O   UNL     1       1.342   5.632  20.811  0.00  0.00    +0.000 OA
ATOM     22  H   UNL     1       2.844   7.823  19.017  0.00  0.00    +0.000 HD
BRANCH  19  30
ATOM     23  C   UNL     1       0.902   9.696  18.083  0.00  0.00    +0.000 C 
ATOM     24  C   UNL     1       0.802   9.595  19.585  0.00  0.00    +0.000 A 
ATOM     25  C   UNL     1       0.055  10.599  20.243  0.00  0.00    +0.000 A 
ATOM     26  C   UNL     1      -0.079  10.601  21.629  0.00  0.00    +0.000 A 
ATOM     27 CL   UNL     1      -0.994  11.832  22.408  0.00  0.00    +0.000 Cl
ATOM     28  C   UNL     1       0.525   9.609  22.380  0.00  0.00    +0.000 A 
ATOM     29  C   UNL     1       1.263   8.605  21.741  0.00  0.00    +0.000 A 
ATOM     30  C   UNL     1       1.420   8.569  20.344  0.00  0.00    +0.000 A 
ENDBRANCH  19  30
ENDBRANCH  18  20
ENDBRANCH  17  18
ENDBRANCH   1  17
TORSDOF 5
ENDMDL
