MODEL 1
REMARK VINA RESULT:      -9.5      0.000      0.000
REMARK  Name = 
REMARK  5 active torsions:
REMARK  status: ('A' for Active; 'I' for Inactive)
REMARK    1  A    between atoms: C_1  and  C_2
REMARK    2  A    between atoms: C_4  and  C_5
REMARK    3  A    between atoms: C_13  and  C_14
REMARK    4  A    between atoms: N_16  and  N_17
REMARK    5  A    between atoms: N_21  and  C_22
REMARK                            x       y       z     vdW  Elec       q    Type
REMARK                         _______ _______ _______ _____ _____    ______ ____
ROOT
ATOM      1  C   UNL     1       3.287   6.058  19.245  0.00  0.00    +0.000 C 
ATOM      2  O   UNL     1       3.646   5.387  20.204  0.00  0.00    +0.000 OA
ATOM      3  N   UNL     1       2.403   7.121  19.319  0.00  0.00    +0.000 N 
ATOM      4  H   UNL     1       2.176   7.632  18.467  0.00  0.00    +0.000 HD
ENDROOT
BRANCH   3   5
ATOM      5  N   UNL     1       1.841   7.599  20.501  0.00  0.00    +0.000 NA
ATOM      6  C   UNL     1       1.217   8.737  20.372  0.00  0.00    +0.000 C 
ATOM      7  C   UNL     1       1.241   9.601  19.104  0.00  0.00    +0.000 C 
ATOM      8  O   UNL     1       1.704   9.233  18.032  0.00  0.00    +0.000 OA
ATOM      9  N   UNL     1       0.748  10.840  19.450  0.00  0.00    +0.000 N 
ATOM     10  C   UNL     1       1.569  11.979  19.140  0.00  0.00    +0.000 C 
ATOM     11  C   UNL     1       0.144  10.739  20.717  0.00  0.00    +0.000 A 
ATOM     12  C   UNL     1      -0.714  11.672  21.269  0.00  0.00    +0.000 A 
ATOM     13  C   UNL     1      -1.251  11.379  22.519  0.00  0.00    +0.000 A 
ATOM     14  C   UNL     1      -0.865  10.214  23.210  0.00  0.00    +0.000 A 
ATOM     15  C   UNL     1       0.012   9.278  22.629  0.00  0.00    +0.000 A 
ATOM     16  C   UNL     1       0.452   9.528  21.346  0.00  0.00    +0.000 A 
ENDBRANCH   3   5
BRANCH   1  23
ATOM     17  C   UNL     1       3.030   3.368  17.872  0.00  0.00    +0.000 C 
ATOM     18  C   UNL     1       3.789   4.515  17.274  0.00  0.00    +0.000 A 
ATOM     19  N   UNL     1       4.402   4.210  16.089  0.00  0.00    +0.000 NA
ATOM     20  C   UNL     1       5.127   5.149  15.435  0.00  0.00    +0.000 A 
ATOM     21  C   UNL     1       5.180   6.450  15.917  0.00  0.00    +0.000 A 
ATOM     22  C   UNL     1       4.552   6.762  17.135  0.00  0.00    +0.000 A 
ATOM     23  C   UNL     1       3.861   5.781  17.864  0.00  0.00    +0.000 A 
BRANCH  20  24
ATOM     24  C   UNL     1       5.900   4.647  14.271  0.00  0.00    +0.000 A 
ATOM     25  C   UNL     1       7.149   5.210  13.943  0.00  0.00    +0.000 A 
ATOM     26  C   UNL     1       7.844   4.843  12.783  0.00  0.00    +0.000 A 
ATOM     27  C   UNL     1       7.304   3.898  11.918  0.00  0.00    +0.000 A 
ATOM     28  C   UNL     1       6.081   3.309  12.225  0.00  0.00    +0.000 A 
ATOM     29  C   UNL     1       5.391   3.674  13.390  0.00  0.00    +0.000 A 
ENDBRANCH  20  24
ENDBRANCH   1  23
TORSDOF 3
ENDMDL
MODEL 2
REMARK VINA RESULT:      -8.9      0.939      1.315
REMARK  Name = 
REMARK  5 active torsions:
REMARK  status: ('A' for Active; 'I' for Inactive)
REMARK    1  A    between atoms: C_1  and  C_2
REMARK    2  A    between atoms: C_4  and  C_5
REMARK    3  A    between atoms: C_13  and  C_14
REMARK    4  A    between atoms: N_16  and  N_17
REMARK    5  A    between atoms: N_21  and  C_22
REMARK                            x       y       z     vdW  Elec       q    Type
REMARK                         _______ _______ _______ _____ _____    ______ ____
ROOT
ATOM      1  C   UNL     1       3.213   5.333  19.704  0.00  0.00    +0.000 C 
ATOM      2  O   UNL     1       3.184   4.592  20.678  0.00  0.00    +0.000 OA
ATOM      3  N   UNL     1       2.695   6.618  19.681  0.00  0.00    +0.000 N 
ATOM      4  H   UNL     1       2.780   7.167  18.827  0.00  0.00    +0.000 HD
ENDROOT
BRANCH   3   5
ATOM      5  N   UNL     1       2.118   7.255  20.777  0.00  0.00    +0.000 NA
ATOM      6  C   UNL     1       1.451   8.335  20.475  0.00  0.00    +0.000 C 
ATOM      7  C   UNL     1       1.440   8.988  19.087  0.00  0.00    +0.000 C 
ATOM      8  O   UNL     1       1.915   8.473  18.083  0.00  0.00    +0.000 OA
ATOM      9  N   UNL     1       0.901  10.247  19.238  0.00  0.00    +0.000 N 
ATOM     10  C   UNL     1       1.678  11.352  18.745  0.00  0.00    +0.000 C 
ATOM     11  C   UNL     1       0.303  10.325  20.509  0.00  0.00    +0.000 A 
ATOM     12  C   UNL     1      -0.589  11.301  20.913  0.00  0.00    +0.000 A 
ATOM     13  C   UNL     1      -1.112  11.189  22.198  0.00  0.00    +0.000 A 
ATOM     14  C   UNL     1      -0.681  10.163  23.061  0.00  0.00    +0.000 A 
ATOM     15  C   UNL     1       0.229   9.180  22.628  0.00  0.00    +0.000 A 
ATOM     16  C   UNL     1       0.657   9.240  21.318  0.00  0.00    +0.000 A 
ENDBRANCH   3   5
BRANCH   1  23
ATOM     17  C   UNL     1       6.205   5.557  19.275  0.00  0.00    +0.000 C 
ATOM     18  C   UNL     1       5.268   5.053  18.217  0.00  0.00    +0.000 A 
ATOM     19  N   UNL     1       5.885   4.766  17.029  0.00  0.00    +0.000 NA
ATOM     20  C   UNL     1       5.163   4.304  15.981  0.00  0.00    +0.000 A 
ATOM     21  C   UNL     1       3.809   4.034  16.130  0.00  0.00    +0.000 A 
ATOM     22  C   UNL     1       3.176   4.330  17.350  0.00  0.00    +0.000 A 
ATOM     23  C   UNL     1       3.896   4.882  18.423  0.00  0.00    +0.000 A 
BRANCH  20  24
ATOM     24  C   UNL     1       5.904   4.218  14.697  0.00  0.00    +0.000 A 
ATOM     25  C   UNL     1       7.058   4.996  14.482  0.00  0.00    +0.000 A 
ATOM     26  C   UNL     1       7.707   5.028  13.240  0.00  0.00    +0.000 A 
ATOM     27  C   UNL     1       7.215   4.278  12.178  0.00  0.00    +0.000 A 
ATOM     28  C   UNL     1       6.088   3.483  12.366  0.00  0.00    +0.000 A 
ATOM     29  C   UNL     1       5.445   3.448  13.611  0.00  0.00    +0.000 A 
ENDBRANCH  20  24
ENDBRANCH   1  23
TORSDOF 3
ENDMDL
MODEL 3
REMARK VINA RESULT:      -8.3      0.858      1.730
REMARK  Name = 
REMARK  5 active torsions:
REMARK  status: ('A' for Active; 'I' for Inactive)
REMARK    1  A    between atoms: C_1  and  C_2
REMARK    2  A    between atoms: C_4  and  C_5
REMARK    3  A    between atoms: C_13  and  C_14
REMARK    4  A    between atoms: N_16  and  N_17
REMARK    5  A    between atoms: N_21  and  C_22
REMARK                            x       y       z     vdW  Elec       q    Type
REMARK                         _______ _______ _______ _____ _____    ______ ____
ROOT
ATOM      1  C   UNL     1       3.384   5.733  19.218  0.00  0.00    +0.000 C 
ATOM      2  O   UNL     1       3.472   5.104  20.265  0.00  0.00    +0.000 OA
ATOM      3  N   UNL     1       2.679   6.916  19.073  0.00  0.00    +0.000 N 
ATOM      4  H   UNL     1       2.676   7.378  18.164  0.00  0.00    +0.000 HD
ENDROOT
BRANCH   3   5
ATOM      5  N   UNL     1       2.017   7.573  20.108  0.00  0.00    +0.000 NA
ATOM      6  C   UNL     1       1.497   8.719  19.765  0.00  0.00    +0.000 C 
ATOM      7  C   UNL     1       1.733   9.411  18.416  0.00  0.00    +0.000 C 
ATOM      8  O   UNL     1       2.292   8.882  17.464  0.00  0.00    +0.000 OA
ATOM      9  N   UNL     1       1.293  10.709  18.546  0.00  0.00    +0.000 N 
ATOM     10  C   UNL     1       2.226  11.751  18.207  0.00  0.00    +0.000 C 
ATOM     11  C   UNL     1       0.538  10.806  19.729  0.00  0.00    +0.000 A 
ATOM     12  C   UNL     1      -0.310  11.850  20.051  0.00  0.00    +0.000 A 
ATOM     13  C   UNL     1      -1.011  11.750  21.249  0.00  0.00    +0.000 A 
ATOM     14  C   UNL     1      -0.795  10.664  22.118  0.00  0.00    +0.000 A 
ATOM     15  C   UNL     1       0.074   9.612  21.770  0.00  0.00    +0.000 A 
ATOM     16  C   UNL     1       0.680   9.670  20.532  0.00  0.00    +0.000 A 
ENDBRANCH   3   5
BRANCH   1  23
ATOM     17  C   UNL     1       5.575   7.351  17.889  0.00  0.00    +0.000 C 
ATOM     18  C   UNL     1       5.084   6.044  17.340  0.00  0.00    +0.000 A 
ATOM     19  N   UNL     1       5.674   5.689  16.157  0.00  0.00    +0.000 NA
ATOM     20  C   UNL     1       5.327   4.533  15.543  0.00  0.00    +0.000 A 
ATOM     21  C   UNL     1       4.436   3.659  16.152  0.00  0.00    +0.000 A 
ATOM     22  C   UNL     1       3.830   4.025  17.366  0.00  0.00    +0.000 A 
ATOM     23  C   UNL     1       4.122   5.255  17.978  0.00  0.00    +0.000 A 
BRANCH  20  24
ATOM     24  C   UNL     1       5.885   4.355  14.179  0.00  0.00    +0.000 A 
ATOM     25  C   UNL     1       5.274   3.476  13.263  0.00  0.00    +0.000 A 
ATOM     26  C   UNL     1       5.845   3.195  12.015  0.00  0.00    +0.000 A 
ATOM     27  C   UNL     1       7.048   3.789  11.650  0.00  0.00    +0.000 A 
ATOM     28  C   UNL     1       7.666   4.677  12.525  0.00  0.00    +0.000 A 
ATOM     29  C   UNL     1       7.088   4.962  13.771  0.00  0.00    +0.000 A 
ENDBRANCH  20  24
ENDBRANCH   1  23
TORSDOF 3
ENDMDL
MODEL 4
REMARK VINA RESULT:      -8.2      3.207      4.498
REMARK  Name = 
REMARK  5 active torsions:
REMARK  status: ('A' for Active; 'I' for Inactive)
REMARK    1  A    between atoms: C_1  and  C_2
REMARK    2  A    between atoms: C_4  and  C_5
REMARK    3  A    between atoms: C_13  and  C_14
REMARK    4  A    between atoms: N_16  and  N_17
REMARK    5  A    between atoms: N_21  and  C_22
REMARK                            x       y       z     vdW  Elec       q    Type
REMARK                         _______ _______ _______ _____ _____    ______ ____
ROOT
ATOM      1  C   UNL     1       0.902   9.302  19.778  0.00  0.00    +0.000 C 
ATOM      2  O   UNL     1       0.989   9.441  20.992  0.00  0.00    +0.000 OA
ATOM      3  N   UNL     1      -0.005   9.973  18.975  0.00  0.00    +0.000 N 
ATOM      4  H   UNL     1       0.009   9.804  17.970  0.00  0.00    +0.000 HD
ENDROOT
BRANCH   3   5
ATOM      5  N   UNL     1      -0.906  10.932  19.434  0.00  0.00    +0.000 NA
ATOM      6  C   UNL     1      -2.025  10.974  18.764  0.00  0.00    +0.000 C 
ATOM      7  C   UNL     1      -2.290  10.200  17.466  0.00  0.00    +0.000 C 
ATOM      8  O   UNL     1      -1.546   9.336  17.020  0.00  0.00    +0.000 OA
ATOM      9  N   UNL     1      -3.427  10.735  16.903  0.00  0.00    +0.000 N 
ATOM     10  C   UNL     1      -3.330  11.182  15.539  0.00  0.00    +0.000 C 
ATOM     11  C   UNL     1      -4.058  11.548  17.861  0.00  0.00    +0.000 A 
ATOM     12  C   UNL     1      -5.358  12.011  17.784  0.00  0.00    +0.000 A 
ATOM     13  C   UNL     1      -5.826  12.769  18.853  0.00  0.00    +0.000 A 
ATOM     14  C   UNL     1      -4.973  13.105  19.922  0.00  0.00    +0.000 A 
ATOM     15  C   UNL     1      -3.651  12.624  19.979  0.00  0.00    +0.000 A 
ATOM     16  C   UNL     1      -3.234  11.784  18.967  0.00  0.00    +0.000 A 
ENDBRANCH   3   5
BRANCH   1  23
ATOM     17  C   UNL     1       1.623   6.540  20.796  0.00  0.00    +0.000 C 
ATOM     18  C   UNL     1       2.237   7.137  19.564  0.00  0.00    +0.000 A 
ATOM     19  N   UNL     1       3.193   6.345  18.987  0.00  0.00    +0.000 NA
ATOM     20  C   UNL     1       3.835   6.757  17.869  0.00  0.00    +0.000 A 
ATOM     21  C   UNL     1       3.468   7.945  17.250  0.00  0.00    +0.000 A 
ATOM     22  C   UNL     1       2.488   8.759  17.845  0.00  0.00    +0.000 A 
ATOM     23  C   UNL     1       1.866   8.382  19.046  0.00  0.00    +0.000 A 
BRANCH  20  24
ATOM     24  C   UNL     1       4.979   5.907  17.452  0.00  0.00    +0.000 A 
ATOM     25  C   UNL     1       5.989   5.563  18.372  0.00  0.00    +0.000 A 
ATOM     26  C   UNL     1       7.140   4.868  17.980  0.00  0.00    +0.000 A 
ATOM     27  C   UNL     1       7.310   4.496  16.651  0.00  0.00    +0.000 A 
ATOM     28  C   UNL     1       6.320   4.803  15.723  0.00  0.00    +0.000 A 
ATOM     29  C   UNL     1       5.166   5.494  16.119  0.00  0.00    +0.000 A 
ENDBRANCH  20  24
ENDBRANCH   1  23
TORSDOF 3
ENDMDL
MODEL 5
REMARK VINA RESULT:      -8.1      3.369      5.111
REMARK  Name = 
REMARK  5 active torsions:
REMARK  status: ('A' for Active; 'I' for Inactive)
REMARK    1  A    between atoms: C_1  and  C_2
REMARK    2  A    between atoms: C_4  and  C_5
REMARK    3  A    between atoms: C_13  and  C_14
REMARK    4  A    between atoms: N_16  and  N_17
REMARK    5  A    between atoms: N_21  and  C_22
REMARK                            x       y       z     vdW  Elec       q    Type
REMARK                         _______ _______ _______ _____ _____    ______ ____
ROOT
ATOM      1  C   UNL     1       0.407   9.746  20.220  0.00  0.00    +0.000 C 
ATOM      2  O   UNL     1       0.518  10.147  21.372  0.00  0.00    +0.000 OA
ATOM      3  N   UNL     1      -0.590  10.145  19.345  0.00  0.00    +0.000 N 
ATOM      4  H   UNL     1      -0.592   9.768  18.398  0.00  0.00    +0.000 HD
ENDROOT
BRANCH   3   5
ATOM      5  N   UNL     1      -1.568  11.092  19.641  0.00  0.00    +0.000 NA
ATOM      6  C   UNL     1      -2.577  11.092  18.814  0.00  0.00    +0.000 C 
ATOM      7  C   UNL     1      -2.632  10.282  17.512  0.00  0.00    +0.000 C 
ATOM      8  O   UNL     1      -1.814   9.426  17.202  0.00  0.00    +0.000 OA
ATOM      9  N   UNL     1      -3.685  10.776  16.774  0.00  0.00    +0.000 N 
ATOM     10  C   UNL     1      -3.398  11.195  15.428  0.00  0.00    +0.000 C 
ATOM     11  C   UNL     1      -4.466  11.597  17.609  0.00  0.00    +0.000 A 
ATOM     12  C   UNL     1      -5.750  12.026  17.330  0.00  0.00    +0.000 A 
ATOM     13  C   UNL     1      -6.385  12.798  18.298  0.00  0.00    +0.000 A 
ATOM     14  C   UNL     1      -5.705  13.178  19.471  0.00  0.00    +0.000 A 
ATOM     15  C   UNL     1      -4.397  12.731  19.734  0.00  0.00    +0.000 A 
ATOM     16  C   UNL     1      -3.819  11.878  18.816  0.00  0.00    +0.000 A 
ENDBRANCH   3   5
BRANCH   1  23
ATOM     17  C   UNL     1       2.031  10.371  17.738  0.00  0.00    +0.000 C 
ATOM     18  C   UNL     1       2.127   9.061  18.463  0.00  0.00    +0.000 A 
ATOM     19  N   UNL     1       2.965   8.162  17.862  0.00  0.00    +0.000 NA
ATOM     20  C   UNL     1       3.149   6.934  18.404  0.00  0.00    +0.000 A 
ATOM     21  C   UNL     1       2.557   6.612  19.618  0.00  0.00    +0.000 A 
ATOM     22  C   UNL     1       1.695   7.536  20.234  0.00  0.00    +0.000 A 
ATOM     23  C   UNL     1       1.434   8.784  19.646  0.00  0.00    +0.000 A 
BRANCH  20  24
ATOM     24  C   UNL     1       3.920   5.985  17.562  0.00  0.00    +0.000 A 
ATOM     25  C   UNL     1       4.834   6.459  16.600  0.00  0.00    +0.000 A 
ATOM     26  C   UNL     1       5.484   5.594  15.710  0.00  0.00    +0.000 A 
ATOM     27  C   UNL     1       5.236   4.227  15.761  0.00  0.00    +0.000 A 
ATOM     28  C   UNL     1       4.354   3.727  16.714  0.00  0.00    +0.000 A 
ATOM     29  C   UNL     1       3.710   4.594  17.608  0.00  0.00    +0.000 A 
ENDBRANCH  20  24
ENDBRANCH   1  23
TORSDOF 3
ENDMDL
MODEL 6
REMARK VINA RESULT:      -8.0      3.377      5.451
REMARK  Name = 
REMARK  5 active torsions:
REMARK  status: ('A' for Active; 'I' for Inactive)
REMARK    1  A    between atoms: C_1  and  C_2
REMARK    2  A    between atoms: C_4  and  C_5
REMARK    3  A    between atoms: C_13  and  C_14
REMARK    4  A    between atoms: N_16  and  N_17
REMARK    5  A    between atoms: N_21  and  C_22
REMARK                            x       y       z     vdW  Elec       q    Type
REMARK                         _______ _______ _______ _____ _____    ______ ____
ROOT
ATOM      1  C   UNL     1       0.426  10.715  20.035  0.00  0.00    +0.000 C 
ATOM      2  O   UNL     1       1.052  11.484  20.752  0.00  0.00    +0.000 OA
ATOM      3  N   UNL     1      -0.918  10.848  19.728  0.00  0.00    +0.000 N 
ATOM      4  H   UNL     1      -1.351  10.166  19.107  0.00  0.00    +0.000 HD
ENDROOT
BRANCH   3   5
ATOM      5  N   UNL     1      -1.724  11.902  20.154  0.00  0.00    +0.000 NA
ATOM      6  C   UNL     1      -2.922  11.900  19.637  0.00  0.00    +0.000 C 
ATOM      7  C   UNL     1      -3.379  10.962  18.512  0.00  0.00    +0.000 C 
ATOM      8  O   UNL     1      -2.726  10.011  18.104  0.00  0.00    +0.000 OA
ATOM      9  N   UNL     1      -4.568  11.463  18.029  0.00  0.00    +0.000 N 
ATOM     10  C   UNL     1      -4.645  11.707  16.613  0.00  0.00    +0.000 C 
ATOM     11  C   UNL     1      -5.042  12.431  18.932  0.00  0.00    +0.000 A 
ATOM     12  C   UNL     1      -6.329  12.937  18.957  0.00  0.00    +0.000 A 
ATOM     13  C   UNL     1      -6.628  13.860  19.955  0.00  0.00    +0.000 A 
ATOM     14  C   UNL     1      -5.630  14.304  20.843  0.00  0.00    +0.000 A 
ATOM     15  C   UNL     1      -4.325  13.777  20.798  0.00  0.00    +0.000 A 
ATOM     16  C   UNL     1      -4.071  12.784  19.874  0.00  0.00    +0.000 A 
ENDBRANCH   3   5
BRANCH   1  23
ATOM     17  C   UNL     1       1.111   8.156  21.509  0.00  0.00    +0.000 C 
ATOM     18  C   UNL     1       1.501   8.400  20.081  0.00  0.00    +0.000 A 
ATOM     19  N   UNL     1       2.245   7.389  19.534  0.00  0.00    +0.000 NA
ATOM     20  C   UNL     1       2.671   7.474  18.252  0.00  0.00    +0.000 A 
ATOM     21  C   UNL     1       2.282   8.543  17.456  0.00  0.00    +0.000 A 
ATOM     22  C   UNL     1       1.520   9.582  18.018  0.00  0.00    +0.000 A 
ATOM     23  C   UNL     1       1.135   9.547  19.368  0.00  0.00    +0.000 A 
BRANCH  20  24
ATOM     24  C   UNL     1       3.627   6.417  17.837  0.00  0.00    +0.000 A 
ATOM     25  C   UNL     1       4.682   6.712  16.951  0.00  0.00    +0.000 A 
ATOM     26  C   UNL     1       5.525   5.712  16.447  0.00  0.00    +0.000 A 
ATOM     27  C   UNL     1       5.333   4.387  16.819  0.00  0.00    +0.000 A 
ATOM     28  C   UNL     1       4.312   4.067  17.708  0.00  0.00    +0.000 A 
ATOM     29  C   UNL     1       3.474   5.069  18.216  0.00  0.00    +0.000 A 
ENDBRANCH  20  24
ENDBRANCH   1  23
TORSDOF 3
ENDMDL
MODEL 7
REMARK VINA RESULT:      -8.0      2.737     10.374
REMARK  Name = 
REMARK  5 active torsions:
REMARK  status: ('A' for Active; 'I' for Inactive)
REMARK    1  A    between atoms: C_1  and  C_2
REMARK    2  A    between atoms: C_4  and  C_5
REMARK    3  A    between atoms: C_13  and  C_14
REMARK    4  A    between atoms: N_16  and  N_17
REMARK    5  A    between atoms: N_21  and  C_22
REMARK                            x       y       z     vdW  Elec       q    Type
REMARK                         _______ _______ _______ _____ _____    ______ ____
ROOT
ATOM      1  C   UNL     1       1.389   9.137  19.374  0.00  0.00    +0.000 C 
ATOM      2  O   UNL     1       1.753   9.725  18.364  0.00  0.00    +0.000 OA
ATOM      3  N   UNL     1       1.779   7.852  19.716  0.00  0.00    +0.000 N 
ATOM      4  H   UNL     1       1.437   7.450  20.587  0.00  0.00    +0.000 HD
ENDROOT
BRANCH   3   5
ATOM      5  N   UNL     1       2.674   7.078  18.981  0.00  0.00    +0.000 NA
ATOM      6  C   UNL     1       2.536   5.792  19.157  0.00  0.00    +0.000 C 
ATOM      7  C   UNL     1       1.621   5.154  20.211  0.00  0.00    +0.000 C 
ATOM      8  O   UNL     1       0.804   5.777  20.876  0.00  0.00    +0.000 OA
ATOM      9  N   UNL     1       1.978   3.827  20.304  0.00  0.00    +0.000 N 
ATOM     10  C   UNL     1       2.306   3.330  21.613  0.00  0.00    +0.000 C 
ATOM     11  C   UNL     1       2.805   3.512  19.210  0.00  0.00    +0.000 A 
ATOM     12  C   UNL     1       3.117   2.232  18.789  0.00  0.00    +0.000 A 
ATOM     13  C   UNL     1       3.917   2.116  17.656  0.00  0.00    +0.000 A 
ATOM     14  C   UNL     1       4.439   3.261  17.025  0.00  0.00    +0.000 A 
ATOM     15  C   UNL     1       4.108   4.555  17.472  0.00  0.00    +0.000 A 
ATOM     16  C   UNL     1       3.228   4.658  18.530  0.00  0.00    +0.000 A 
ENDBRANCH   3   5
BRANCH   1  23
ATOM     17  C   UNL     1      -0.853  11.003  18.552  0.00  0.00    +0.000 C 
ATOM     18  C   UNL     1      -0.496  10.744  19.986  0.00  0.00    +0.000 A 
ATOM     19  N   UNL     1      -1.235  11.476  20.876  0.00  0.00    +0.000 NA
ATOM     20  C   UNL     1      -1.021  11.348  22.207  0.00  0.00    +0.000 A 
ATOM     21  C   UNL     1      -0.113  10.410  22.681  0.00  0.00    +0.000 A 
ATOM     22  C   UNL     1       0.646   9.659  21.766  0.00  0.00    +0.000 A 
ATOM     23  C   UNL     1       0.491   9.836  20.381  0.00  0.00    +0.000 A 
BRANCH  20  24
ATOM     24  C   UNL     1      -1.740  12.330  23.057  0.00  0.00    +0.000 A 
ATOM     25  C   UNL     1      -3.040  12.057  23.526  0.00  0.00    +0.000 A 
ATOM     26  C   UNL     1      -3.789  13.012  24.225  0.00  0.00    +0.000 A 
ATOM     27  C   UNL     1      -3.254  14.270  24.475  0.00  0.00    +0.000 A 
ATOM     28  C   UNL     1      -1.965  14.564  24.042  0.00  0.00    +0.000 A 
ATOM     29  C   UNL     1      -1.214  13.603  23.348  0.00  0.00    +0.000 A 
ENDBRANCH  20  24
ENDBRANCH   1  23
TORSDOF 3
ENDMDL
MODEL 8
REMARK VINA RESULT:      -8.0      3.673      6.167
REMARK  Name = 
REMARK  5 active torsions:
REMARK  status: ('A' for Active; 'I' for Inactive)
REMARK    1  A    between atoms: C_1  and  C_2
REMARK    2  A    between atoms: C_4  and  C_5
REMARK    3  A    between atoms: C_13  and  C_14
REMARK    4  A    between atoms: N_16  and  N_17
REMARK    5  A    between atoms: N_21  and  C_22
REMARK                            x       y       z     vdW  Elec       q    Type
REMARK                         _______ _______ _______ _____ _____    ______ ____
ROOT
ATOM      1  C   UNL     1       0.466  10.878  19.579  0.00  0.00    +0.000 C 
ATOM      2  O   UNL     1      -0.732  11.054  19.398  0.00  0.00    +0.000 OA
ATOM      3  N   UNL     1       1.354  11.868  19.964  0.00  0.00    +0.000 N 
ATOM      4  H   UNL     1       2.332  11.622  20.107  0.00  0.00    +0.000 HD
ENDROOT
BRANCH   3   5
ATOM      5  N   UNL     1       0.995  13.185  20.243  0.00  0.00    +0.000 NA
ATOM      6  C   UNL     1       1.472  14.058  19.398  0.00  0.00    +0.000 C 
ATOM      7  C   UNL     1       2.497  13.735  18.303  0.00  0.00    +0.000 C 
ATOM      8  O   UNL     1       2.841  12.600  18.000  0.00  0.00    +0.000 OA
ATOM      9  N   UNL     1       2.983  14.937  17.839  0.00  0.00    +0.000 N 
ATOM     10  C   UNL     1       4.411  15.109  17.848  0.00  0.00    +0.000 C 
ATOM     11  C   UNL     1       2.153  15.967  18.317  0.00  0.00    +0.000 A 
ATOM     12  C   UNL     1       2.130  17.263  17.835  0.00  0.00    +0.000 A 
ATOM     13  C   UNL     1       1.206  18.134  18.404  0.00  0.00    +0.000 A 
ATOM     14  C   UNL     1       0.392  17.718  19.475  0.00  0.00    +0.000 A 
ATOM     15  C   UNL     1       0.433  16.394  19.950  0.00  0.00    +0.000 A 
ATOM     16  C   UNL     1       1.275  15.511  19.306  0.00  0.00    +0.000 A 
ENDBRANCH   3   5
BRANCH   1  23
ATOM     17  C   UNL     1       0.532   8.882  21.860  0.00  0.00    +0.000 C 
ATOM     18  C   UNL     1       1.142   8.602  20.518  0.00  0.00    +0.000 A 
ATOM     19  N   UNL     1       1.780   7.394  20.446  0.00  0.00    +0.000 NA
ATOM     20  C   UNL     1       2.380   7.008  19.295  0.00  0.00    +0.000 A 
ATOM     21  C   UNL     1       2.277   7.794  18.156  0.00  0.00    +0.000 A 
ATOM     22  C   UNL     1       1.622   9.036  18.231  0.00  0.00    +0.000 A 
ATOM     23  C   UNL     1       1.061   9.486  19.437  0.00  0.00    +0.000 A 
BRANCH  20  24
ATOM     24  C   UNL     1       3.202   5.775  19.399  0.00  0.00    +0.000 A 
ATOM     25  C   UNL     1       4.447   5.687  18.745  0.00  0.00    +0.000 A 
ATOM     26  C   UNL     1       5.187   4.497  18.723  0.00  0.00    +0.000 A 
ATOM     27  C   UNL     1       4.699   3.361  19.358  0.00  0.00    +0.000 A 
ATOM     28  C   UNL     1       3.481   3.423  20.029  0.00  0.00    +0.000 A 
ATOM     29  C   UNL     1       2.746   4.617  20.055  0.00  0.00    +0.000 A 
ENDBRANCH  20  24
ENDBRANCH   1  23
TORSDOF 3
ENDMDL
MODEL 9
REMARK VINA RESULT:      -8.0      4.143      6.706
REMARK  Name = 
REMARK  5 active torsions:
REMARK  status: ('A' for Active; 'I' for Inactive)
REMARK    1  A    between atoms: C_1  and  C_2
REMARK    2  A    between atoms: C_4  and  C_5
REMARK    3  A    between atoms: C_13  and  C_14
REMARK    4  A    between atoms: N_16  and  N_17
REMARK    5  A    between atoms: N_21  and  C_22
REMARK                            x       y       z     vdW  Elec       q    Type
REMARK                         _______ _______ _______ _____ _____    ______ ____
ROOT
ATOM      1  C   UNL     1      -0.136  10.934  19.587  0.00  0.00    +0.000 C 
ATOM      2  O   UNL     1      -1.255  10.883  19.091  0.00  0.00    +0.000 OA
ATOM      3  N   UNL     1       0.502  12.105  19.961  0.00  0.00    +0.000 N 
ATOM      4  H   UNL     1       1.428  12.046  20.383  0.00  0.00    +0.000 HD
ENDROOT
BRANCH   3   5
ATOM      5  N   UNL     1      -0.063  13.375  19.870  0.00  0.00    +0.000 NA
ATOM      6  C   UNL     1       0.681  14.245  19.243  0.00  0.00    +0.000 C 
ATOM      7  C   UNL     1       2.129  13.992  18.805  0.00  0.00    +0.000 C 
ATOM      8  O   UNL     1       2.677  12.897  18.845  0.00  0.00    +0.000 OA
ATOM      9  N   UNL     1       2.670  15.214  18.473  0.00  0.00    +0.000 N 
ATOM     10  C   UNL     1       3.897  15.583  19.127  0.00  0.00    +0.000 C 
ATOM     11  C   UNL     1       1.624  16.150  18.372  0.00  0.00    +0.000 A 
ATOM     12  C   UNL     1       1.720  17.393  17.775  0.00  0.00    +0.000 A 
ATOM     13  C   UNL     1       0.563  18.166  17.730  0.00  0.00    +0.000 A 
ATOM     14  C   UNL     1      -0.624  17.716  18.339  0.00  0.00    +0.000 A 
ATOM     15  C   UNL     1      -0.698  16.447  18.943  0.00  0.00    +0.000 A 
ATOM     16  C   UNL     1       0.424  15.647  18.886  0.00  0.00    +0.000 A 
ENDBRANCH   3   5
BRANCH   1  23
ATOM     17  C   UNL     1       1.874   9.744  17.656  0.00  0.00    +0.000 C 
ATOM     18  C   UNL     1       1.501   9.083  18.949  0.00  0.00    +0.000 A 
ATOM     19  N   UNL     1       2.105   7.869  19.140  0.00  0.00    +0.000 NA
ATOM     20  C   UNL     1       1.860   7.155  20.265  0.00  0.00    +0.000 A 
ATOM     21  C   UNL     1       1.065   7.688  21.271  0.00  0.00    +0.000 A 
ATOM     22  C   UNL     1       0.443   8.934  21.073  0.00  0.00    +0.000 A 
ATOM     23  C   UNL     1       0.626   9.652  19.880  0.00  0.00    +0.000 A 
BRANCH  20  24
ATOM     24  C   UNL     1       2.414   5.778  20.267  0.00  0.00    +0.000 A 
ATOM     25  C   UNL     1       3.588   5.476  19.550  0.00  0.00    +0.000 A 
ATOM     26  C   UNL     1       4.065   4.163  19.433  0.00  0.00    +0.000 A 
ATOM     27  C   UNL     1       3.378   3.116  20.036  0.00  0.00    +0.000 A 
ATOM     28  C   UNL     1       2.226   3.386  20.769  0.00  0.00    +0.000 A 
ATOM     29  C   UNL     1       1.754   4.701  20.889  0.00  0.00    +0.000 A 
ENDBRANCH  20  24
ENDBRANCH   1  23
TORSDOF 3
ENDMDL
