MODEL 1
REMARK VINA RESULT:      -8.0      0.000      0.000
REMARK  Name = 
REMARK  8 active torsions:
REMARK  status: ('A' for Active; 'I' for Inactive)
REMARK    1  A    between atoms: C_1  and  C_2
REMARK    2  A    between atoms: C_5  and  C_6
REMARK    3  A    between atoms: C_6  and  N_7
REMARK    4  A    between atoms: N_7  and  C_8
REMARK    5  A    between atoms: C_10  and  C_11
REMARK    6  A    between atoms: C_11  and  O_12
REMARK    7  A    between atoms: O_12  and  C_13
REMARK    8  A    between atoms: C_21  and  C_22
REMARK                            x       y       z     vdW  Elec       q    Type
REMARK                         _______ _______ _______ _____ _____    ______ ____
ROOT
ATOM      1  C   UNL     1       2.578   5.400  19.794  0.00  0.00    +0.000 A 
ATOM      2  O   UNL     1       3.034   5.526  18.506  0.00  0.00    +0.000 OA
ATOM      3  C   UNL     1       3.385   4.252  18.135  0.00  0.00    +0.000 A 
ATOM      4  N   UNL     1       3.138   3.332  19.049  0.00  0.00    +0.000 NA
ATOM      5  C   UNL     1       2.628   4.055  20.100  0.00  0.00    +0.000 A 
ENDROOT
BRANCH   1   6
ATOM      6  N   UNL     1       2.260   6.521  20.484  0.00  0.00    +0.000 N 
ATOM      7  H   UNL     1       1.758   6.434  21.364  0.00  0.00    +0.000 HD
BRANCH   6   8
ATOM      8  C   UNL     1       1.978   7.772  19.796  0.00  0.00    +0.000 C 
BRANCH   8  13
ATOM      9  C   UNL     1      -1.334  11.363  22.970  0.00  0.00    +0.000 C 
ATOM     10  C   UNL     1      -0.474  10.442  22.161  0.00  0.00    +0.000 A 
ATOM     11  C   UNL     1      -0.399  10.578  20.771  0.00  0.00    +0.000 A 
ATOM     12  C   UNL     1       0.395   9.712  20.020  0.00  0.00    +0.000 A 
ATOM     13  C   UNL     1       1.136   8.696  20.637  0.00  0.00    +0.000 A 
ATOM     14  C   UNL     1       1.070   8.567  22.029  0.00  0.00    +0.000 A 
ATOM     15  C   UNL     1       0.265   9.429  22.784  0.00  0.00    +0.000 A 
ENDBRANCH   8  13
ENDBRANCH   6   8
ENDBRANCH   1   6
BRANCH   5  16
ATOM     16  C   UNL     1       2.210   3.418  21.304  0.00  0.00    +0.000 C 
ATOM     17  N   UNL     1       1.852   2.902  22.283  0.00  0.00    +0.000 NA
ENDBRANCH   5  16
BRANCH   3  18
ATOM     18  C   UNL     1       4.072   4.069  16.818  0.00  0.00    +0.000 C 
BRANCH  18  19
ATOM     19  O   UNL     1       5.458   3.879  17.091  0.00  0.00    +0.000 OA
BRANCH  19  20
ATOM     20  C   UNL     1       6.243   4.974  17.340  0.00  0.00    +0.000 A 
ATOM     21  C   UNL     1       7.086   4.789  18.450  0.00  0.00    +0.000 A 
ATOM     22  C   UNL     1       7.896   5.820  18.934  0.00  0.00    +0.000 A 
ATOM     23  C   UNL     1       7.874   7.064  18.316  0.00  0.00    +0.000 A 
ATOM     24  C   UNL     1       7.039   7.269  17.220  0.00  0.00    +0.000 A 
ATOM     25  C   UNL     1       6.217   6.238  16.732  0.00  0.00    +0.000 A 
ATOM     26 CL   UNL     1       5.162   6.697  15.446  0.00  0.00    +0.000 Cl
ENDBRANCH  19  20
ENDBRANCH  18  19
ENDBRANCH   3  18
TORSDOF 7
ENDMDL
MODEL 2
REMARK VINA RESULT:      -7.8      2.557      4.722
REMARK  Name = 
REMARK  8 active torsions:
REMARK  status: ('A' for Active; 'I' for Inactive)
REMARK    1  A    between atoms: C_1  and  C_2
REMARK    2  A    between atoms: C_5  and  C_6
REMARK    3  A    between atoms: C_6  and  N_7
REMARK    4  A    between atoms: N_7  and  C_8
REMARK    5  A    between atoms: C_10  and  C_11
REMARK    6  A    between atoms: C_11  and  O_12
REMARK    7  A    between atoms: O_12  and  C_13
REMARK    8  A    between atoms: C_21  and  C_22
REMARK                            x       y       z     vdW  Elec       q    Type
REMARK                         _______ _______ _______ _____ _____    ______ ____
ROOT
ATOM      1  C   UNL     1       3.875   6.779  17.670  0.00  0.00    +0.000 A 
ATOM      2  O   UNL     1       2.962   5.754  17.667  0.00  0.00    +0.000 OA
ATOM      3  C   UNL     1       3.654   4.674  17.178  0.00  0.00    +0.000 A 
ATOM      4  N   UNL     1       4.929   4.912  16.929  0.00  0.00    +0.000 NA
ATOM      5  C   UNL     1       5.072   6.243  17.238  0.00  0.00    +0.000 A 
ENDROOT
BRANCH   1   6
ATOM      6  N   UNL     1       3.454   8.024  17.997  0.00  0.00    +0.000 N 
ATOM      7  H   UNL     1       3.913   8.516  18.760  0.00  0.00    +0.000 HD
BRANCH   6   8
ATOM      8  C   UNL     1       2.063   8.414  17.830  0.00  0.00    +0.000 C 
BRANCH   8  13
ATOM      9  C   UNL     1      -0.344   9.760  22.964  0.00  0.00    +0.000 C 
ATOM     10  C   UNL     1       0.265   9.415  21.639  0.00  0.00    +0.000 A 
ATOM     11  C   UNL     1       1.137   8.327  21.520  0.00  0.00    +0.000 A 
ATOM     12  C   UNL     1       1.708   8.015  20.288  0.00  0.00    +0.000 A 
ATOM     13  C   UNL     1       1.421   8.773  19.146  0.00  0.00    +0.000 A 
ATOM     14  C   UNL     1       0.540   9.855  19.263  0.00  0.00    +0.000 A 
ATOM     15  C   UNL     1      -0.028  10.177  20.502  0.00  0.00    +0.000 A 
ENDBRANCH   8  13
ENDBRANCH   6   8
ENDBRANCH   1   6
BRANCH   5  16
ATOM     16  C   UNL     1       6.330   6.899  17.121  0.00  0.00    +0.000 C 
ATOM     17  N   UNL     1       7.365   7.425  17.038  0.00  0.00    +0.000 NA
ENDBRANCH   5  16
BRANCH   3  18
ATOM     18  C   UNL     1       2.888   3.418  16.903  0.00  0.00    +0.000 C 
BRANCH  18  19
ATOM     19  O   UNL     1       3.271   2.468  17.895  0.00  0.00    +0.000 OA
BRANCH  19  20
ATOM     20  C   UNL     1       2.722   2.556  19.147  0.00  0.00    +0.000 A 
ATOM     21  C   UNL     1       1.404   3.045  19.122  0.00  0.00    +0.000 A 
ATOM     22  C   UNL     1       0.697   3.305  20.299  0.00  0.00    +0.000 A 
ATOM     23  C   UNL     1       1.300   3.083  21.530  0.00  0.00    +0.000 A 
ATOM     24  C   UNL     1       2.609   2.606  21.576  0.00  0.00    +0.000 A 
ATOM     25  C   UNL     1       3.327   2.349  20.395  0.00  0.00    +0.000 A 
ATOM     26 CL   UNL     1       4.970   1.877  20.633  0.00  0.00    +0.000 Cl
ENDBRANCH  19  20
ENDBRANCH  18  19
ENDBRANCH   3  18
TORSDOF 7
ENDMDL
MODEL 3
REMARK VINA RESULT:      -7.6      0.599      1.132
REMARK  Name = 
REMARK  8 active torsions:
REMARK  status: ('A' for Active; 'I' for Inactive)
REMARK    1  A    between atoms: C_1  and  C_2
REMARK    2  A    between atoms: C_5  and  C_6
REMARK    3  A    between atoms: C_6  and  N_7
REMARK    4  A    between atoms: N_7  and  C_8
REMARK    5  A    between atoms: C_10  and  C_11
REMARK    6  A    between atoms: C_11  and  O_12
REMARK    7  A    between atoms: O_12  and  C_13
REMARK    8  A    between atoms: C_21  and  C_22
REMARK                            x       y       z     vdW  Elec       q    Type
REMARK                         _______ _______ _______ _____ _____    ______ ____
ROOT
ATOM      1  C   UNL     1       1.972   5.254  20.051  0.00  0.00    +0.000 A 
ATOM      2  O   UNL     1       2.472   5.473  18.791  0.00  0.00    +0.000 OA
ATOM      3  C   UNL     1       2.891   4.238  18.364  0.00  0.00    +0.000 A 
ATOM      4  N   UNL     1       2.648   3.257  19.214  0.00  0.00    +0.000 NA
ATOM      5  C   UNL     1       2.067   3.896  20.282  0.00  0.00    +0.000 A 
ENDROOT
BRANCH   1   6
ATOM      6  N   UNL     1       1.580   6.319  20.789  0.00  0.00    +0.000 N 
ATOM      7  H   UNL     1       0.698   6.272  21.294  0.00  0.00    +0.000 HD
BRANCH   6   8
ATOM      8  C   UNL     1       1.937   7.674  20.400  0.00  0.00    +0.000 C 
BRANCH   8  13
ATOM      9  C   UNL     1      -1.514  11.619  22.946  0.00  0.00    +0.000 C 
ATOM     10  C   UNL     1      -0.635  10.603  22.284  0.00  0.00    +0.000 A 
ATOM     11  C   UNL     1       0.066   9.664  23.050  0.00  0.00    +0.000 A 
ATOM     12  C   UNL     1       0.890   8.726  22.431  0.00  0.00    +0.000 A 
ATOM     13  C   UNL     1       1.030   8.697  21.037  0.00  0.00    +0.000 A 
ATOM     14  C   UNL     1       0.321   9.629  20.271  0.00  0.00    +0.000 A 
ATOM     15  C   UNL     1      -0.500  10.579  20.892  0.00  0.00    +0.000 A 
ENDBRANCH   8  13
ENDBRANCH   6   8
ENDBRANCH   1   6
BRANCH   5  16
ATOM     16  C   UNL     1       1.631   3.173  21.429  0.00  0.00    +0.000 C 
ATOM     17  N   UNL     1       1.262   2.596  22.370  0.00  0.00    +0.000 NA
ENDBRANCH   5  16
BRANCH   3  18
ATOM     18  C   UNL     1       3.636   4.160  17.068  0.00  0.00    +0.000 C 
BRANCH  18  19
ATOM     19  O   UNL     1       4.968   3.755  17.374  0.00  0.00    +0.000 OA
BRANCH  19  20
ATOM     20  C   UNL     1       5.936   4.712  17.526  0.00  0.00    +0.000 A 
ATOM     21  C   UNL     1       6.396   4.804  18.851  0.00  0.00    +0.000 A 
ATOM     22  C   UNL     1       7.313   5.784  19.242  0.00  0.00    +0.000 A 
ATOM     23  C   UNL     1       7.784   6.699  18.309  0.00  0.00    +0.000 A 
ATOM     24  C   UNL     1       7.334   6.629  16.992  0.00  0.00    +0.000 A 
ATOM     25  C   UNL     1       6.407   5.649  16.595  0.00  0.00    +0.000 A 
ATOM     26 CL   UNL     1       5.868   5.780  14.961  0.00  0.00    +0.000 Cl
ENDBRANCH  19  20
ENDBRANCH  18  19
ENDBRANCH   3  18
TORSDOF 7
ENDMDL
MODEL 4
REMARK VINA RESULT:      -7.6      2.469      6.407
REMARK  Name = 
REMARK  8 active torsions:
REMARK  status: ('A' for Active; 'I' for Inactive)
REMARK    1  A    between atoms: C_1  and  C_2
REMARK    2  A    between atoms: C_5  and  C_6
REMARK    3  A    between atoms: C_6  and  N_7
REMARK    4  A    between atoms: N_7  and  C_8
REMARK    5  A    between atoms: C_10  and  C_11
REMARK    6  A    between atoms: C_11  and  O_12
REMARK    7  A    between atoms: O_12  and  C_13
REMARK    8  A    between atoms: C_21  and  C_22
REMARK                            x       y       z     vdW  Elec       q    Type
REMARK                         _______ _______ _______ _____ _____    ______ ____
ROOT
ATOM      1  C   UNL     1       3.872   3.176  18.684  0.00  0.00    +0.000 A 
ATOM      2  O   UNL     1       2.970   4.210  18.650  0.00  0.00    +0.000 OA
ATOM      3  C   UNL     1       2.564   4.361  19.953  0.00  0.00    +0.000 A 
ATOM      4  N   UNL     1       3.170   3.557  20.808  0.00  0.00    +0.000 NA
ATOM      5  C   UNL     1       3.997   2.806  20.008  0.00  0.00    +0.000 A 
ENDROOT
BRANCH   1   6
ATOM      6  N   UNL     1       4.371   2.709  17.515  0.00  0.00    +0.000 N 
ATOM      7  H   UNL     1       4.979   1.895  17.528  0.00  0.00    +0.000 HD
BRANCH   6   8
ATOM      8  C   UNL     1       4.656   3.609  16.408  0.00  0.00    +0.000 C 
BRANCH   8  13
ATOM      9  C   UNL     1       8.045   8.059  18.039  0.00  0.00    +0.000 C 
ATOM     10  C   UNL     1       7.183   6.911  17.614  0.00  0.00    +0.000 A 
ATOM     11  C   UNL     1       5.939   7.140  17.017  0.00  0.00    +0.000 A 
ATOM     12  C   UNL     1       5.135   6.068  16.632  0.00  0.00    +0.000 A 
ATOM     13  C   UNL     1       5.553   4.745  16.828  0.00  0.00    +0.000 A 
ATOM     14  C   UNL     1       6.803   4.517  17.416  0.00  0.00    +0.000 A 
ATOM     15  C   UNL     1       7.608   5.592  17.812  0.00  0.00    +0.000 A 
ENDBRANCH   8  13
ENDBRANCH   6   8
ENDBRANCH   1   6
BRANCH   5  16
ATOM     16  C   UNL     1       4.854   1.811  20.559  0.00  0.00    +0.000 C 
ATOM     17  N   UNL     1       5.543   0.985  21.004  0.00  0.00    +0.000 NA
ENDBRANCH   5  16
BRANCH   3  18
ATOM     18  C   UNL     1       1.451   5.321  20.233  0.00  0.00    +0.000 C 
BRANCH  18  19
ATOM     19  O   UNL     1       2.050   6.560  20.606  0.00  0.00    +0.000 OA
BRANCH  19  20
ATOM     20  C   UNL     1       1.748   7.687  19.889  0.00  0.00    +0.000 A 
ATOM     21  C   UNL     1       2.386   7.713  18.636  0.00  0.00    +0.000 A 
ATOM     22  C   UNL     1       2.292   8.820  17.789  0.00  0.00    +0.000 A 
ATOM     23  C   UNL     1       1.556   9.930  18.182  0.00  0.00    +0.000 A 
ATOM     24  C   UNL     1       0.923   9.927  19.424  0.00  0.00    +0.000 A 
ATOM     25  C   UNL     1       1.020   8.819  20.284  0.00  0.00    +0.000 A 
ATOM     26 CL   UNL     1       0.276   9.029  21.826  0.00  0.00    +0.000 Cl
ENDBRANCH  19  20
ENDBRANCH  18  19
ENDBRANCH   3  18
TORSDOF 7
ENDMDL
MODEL 5
REMARK VINA RESULT:      -7.5      3.648      7.911
REMARK  Name = 
REMARK  8 active torsions:
REMARK  status: ('A' for Active; 'I' for Inactive)
REMARK    1  A    between atoms: C_1  and  C_2
REMARK    2  A    between atoms: C_5  and  C_6
REMARK    3  A    between atoms: C_6  and  N_7
REMARK    4  A    between atoms: N_7  and  C_8
REMARK    5  A    between atoms: C_10  and  C_11
REMARK    6  A    between atoms: C_11  and  O_12
REMARK    7  A    between atoms: O_12  and  C_13
REMARK    8  A    between atoms: C_21  and  C_22
REMARK                            x       y       z     vdW  Elec       q    Type
REMARK                         _______ _______ _______ _____ _____    ______ ____
ROOT
ATOM      1  C   UNL     1       5.799   6.350  17.301  0.00  0.00    +0.000 A 
ATOM      2  O   UNL     1       4.486   6.629  17.016  0.00  0.00    +0.000 OA
ATOM      3  C   UNL     1       3.805   6.305  18.163  0.00  0.00    +0.000 A 
ATOM      4  N   UNL     1       4.575   5.903  19.158  0.00  0.00    +0.000 NA
ATOM      5  C   UNL     1       5.838   5.930  18.616  0.00  0.00    +0.000 A 
ENDROOT
BRANCH   1   6
ATOM      6  N   UNL     1       6.717   6.461  16.312  0.00  0.00    +0.000 N 
ATOM      7  H   UNL     1       6.585   7.166  15.592  0.00  0.00    +0.000 HD
BRANCH   6   8
ATOM      8  C   UNL     1       7.451   5.298  15.834  0.00  0.00    +0.000 C 
BRANCH   8  13
ATOM      9  C   UNL     1       4.808   2.905  11.226  0.00  0.00    +0.000 C 
ATOM     10  C   UNL     1       5.497   3.514  12.408  0.00  0.00    +0.000 A 
ATOM     11  C   UNL     1       4.881   3.519  13.664  0.00  0.00    +0.000 A 
ATOM     12  C   UNL     1       5.521   4.096  14.760  0.00  0.00    +0.000 A 
ATOM     13  C   UNL     1       6.790   4.675  14.631  0.00  0.00    +0.000 A 
ATOM     14  C   UNL     1       7.410   4.661  13.377  0.00  0.00    +0.000 A 
ATOM     15  C   UNL     1       6.765   4.091  12.272  0.00  0.00    +0.000 A 
ENDBRANCH   8  13
ENDBRANCH   6   8
ENDBRANCH   1   6
BRANCH   5  16
ATOM     16  C   UNL     1       6.982   5.575  19.386  0.00  0.00    +0.000 C 
ATOM     17  N   UNL     1       7.907   5.273  20.024  0.00  0.00    +0.000 NA
ENDBRANCH   5  16
BRANCH   3  18
ATOM     18  C   UNL     1       2.310   6.351  18.127  0.00  0.00    +0.000 C 
BRANCH  18  19
ATOM     19  O   UNL     1       1.857   5.038  17.807  0.00  0.00    +0.000 OA
BRANCH  19  20
ATOM     20  C   UNL     1       1.913   4.063  18.768  0.00  0.00    +0.000 A 
ATOM     21  C   UNL     1       1.164   4.393  19.911  0.00  0.00    +0.000 A 
ATOM     22  C   UNL     1       1.167   3.579  21.048  0.00  0.00    +0.000 A 
ATOM     23  C   UNL     1       1.926   2.417  21.064  0.00  0.00    +0.000 A 
ATOM     24  C   UNL     1       2.682   2.077  19.943  0.00  0.00    +0.000 A 
ATOM     25  C   UNL     1       2.688   2.894  18.799  0.00  0.00    +0.000 A 
ATOM     26 CL   UNL     1       3.766   2.388  17.551  0.00  0.00    +0.000 Cl
ENDBRANCH  19  20
ENDBRANCH  18  19
ENDBRANCH   3  18
TORSDOF 7
ENDMDL
MODEL 6
REMARK VINA RESULT:      -7.5      3.869      6.084
REMARK  Name = 
REMARK  8 active torsions:
REMARK  status: ('A' for Active; 'I' for Inactive)
REMARK    1  A    between atoms: C_1  and  C_2
REMARK    2  A    between atoms: C_5  and  C_6
REMARK    3  A    between atoms: C_6  and  N_7
REMARK    4  A    between atoms: N_7  and  C_8
REMARK    5  A    between atoms: C_10  and  C_11
REMARK    6  A    between atoms: C_11  and  O_12
REMARK    7  A    between atoms: O_12  and  C_13
REMARK    8  A    between atoms: C_21  and  C_22
REMARK                            x       y       z     vdW  Elec       q    Type
REMARK                         _______ _______ _______ _____ _____    ______ ____
ROOT
ATOM      1  C   UNL     1       5.590   6.803  16.781  0.00  0.00    +0.000 A 
ATOM      2  O   UNL     1       6.138   7.807  17.540  0.00  0.00    +0.000 OA
ATOM      3  C   UNL     1       7.485   7.545  17.542  0.00  0.00    +0.000 A 
ATOM      4  N   UNL     1       7.838   6.505  16.809  0.00  0.00    +0.000 NA
ATOM      5  C   UNL     1       6.642   6.033  16.327  0.00  0.00    +0.000 A 
ENDROOT
BRANCH   1   6
ATOM      6  N   UNL     1       4.241   6.721  16.686  0.00  0.00    +0.000 N 
ATOM      7  H   UNL     1       3.809   6.739  15.766  0.00  0.00    +0.000 HD
BRANCH   6   8
ATOM      8  C   UNL     1       3.381   7.269  17.724  0.00  0.00    +0.000 C 
BRANCH   8  13
ATOM      9  C   UNL     1       1.031   3.007  20.928  0.00  0.00    +0.000 C 
ATOM     10  C   UNL     1       1.627   4.110  20.108  0.00  0.00    +0.000 A 
ATOM     11  C   UNL     1       1.963   3.895  18.767  0.00  0.00    +0.000 A 
ATOM     12  C   UNL     1       2.527   4.921  18.009  0.00  0.00    +0.000 A 
ATOM     13  C   UNL     1       2.762   6.184  18.568  0.00  0.00    +0.000 A 
ATOM     14  C   UNL     1       2.416   6.401  19.907  0.00  0.00    +0.000 A 
ATOM     15  C   UNL     1       1.859   5.369  20.672  0.00  0.00    +0.000 A 
ENDBRANCH   8  13
ENDBRANCH   6   8
ENDBRANCH   1   6
BRANCH   5  16
ATOM     16  C   UNL     1       6.586   4.904  15.461  0.00  0.00    +0.000 C 
ATOM     17  N   UNL     1       6.523   3.982  14.753  0.00  0.00    +0.000 NA
ENDBRANCH   5  16
BRANCH   3  18
ATOM     18  C   UNL     1       8.360   8.382  18.421  0.00  0.00    +0.000 C 
BRANCH  18  19
ATOM     19  O   UNL     1       8.578   9.617  17.742  0.00  0.00    +0.000 OA
BRANCH  19  20
ATOM     20  C   UNL     1       8.962  10.715  18.465  0.00  0.00    +0.000 A 
ATOM     21  C   UNL     1       9.661  10.370  19.635  0.00  0.00    +0.000 A 
ATOM     22  C   UNL     1      10.056  11.336  20.565  0.00  0.00    +0.000 A 
ATOM     23  C   UNL     1       9.753  12.673  20.341  0.00  0.00    +0.000 A 
ATOM     24  C   UNL     1       9.054  13.034  19.191  0.00  0.00    +0.000 A 
ATOM     25  C   UNL     1       8.649  12.066  18.256  0.00  0.00    +0.000 A 
ATOM     26 CL   UNL     1       7.693  12.670  16.952  0.00  0.00    +0.000 Cl
ENDBRANCH  19  20
ENDBRANCH  18  19
ENDBRANCH   3  18
TORSDOF 7
ENDMDL
MODEL 7
REMARK VINA RESULT:      -7.4      4.676      7.196
REMARK  Name = 
REMARK  8 active torsions:
REMARK  status: ('A' for Active; 'I' for Inactive)
REMARK    1  A    between atoms: C_1  and  C_2
REMARK    2  A    between atoms: C_5  and  C_6
REMARK    3  A    between atoms: C_6  and  N_7
REMARK    4  A    between atoms: N_7  and  C_8
REMARK    5  A    between atoms: C_10  and  C_11
REMARK    6  A    between atoms: C_11  and  O_12
REMARK    7  A    between atoms: O_12  and  C_13
REMARK    8  A    between atoms: C_21  and  C_22
REMARK                            x       y       z     vdW  Elec       q    Type
REMARK                         _______ _______ _______ _____ _____    ______ ____
ROOT
ATOM      1  C   UNL     1       6.719   7.362  17.154  0.00  0.00    +0.000 A 
ATOM      2  O   UNL     1       7.076   8.686  17.076  0.00  0.00    +0.000 OA
ATOM      3  C   UNL     1       8.120   8.817  17.957  0.00  0.00    +0.000 A 
ATOM      4  N   UNL     1       8.488   7.689  18.536  0.00  0.00    +0.000 NA
ATOM      5  C   UNL     1       7.604   6.767  18.031  0.00  0.00    +0.000 A 
ENDROOT
BRANCH   1   6
ATOM      6  N   UNL     1       5.626   6.942  16.475  0.00  0.00    +0.000 N 
ATOM      7  H   UNL     1       5.639   6.961  15.458  0.00  0.00    +0.000 HD
BRANCH   6   8
ATOM      8  C   UNL     1       4.290   7.108  17.026  0.00  0.00    +0.000 C 
BRANCH   8  13
ATOM      9  C   UNL     1       1.846   2.050  18.573  0.00  0.00    +0.000 C 
ATOM     10  C   UNL     1       2.484   3.347  18.179  0.00  0.00    +0.000 A 
ATOM     11  C   UNL     1       1.900   4.565  18.542  0.00  0.00    +0.000 A 
ATOM     12  C   UNL     1       2.492   5.770  18.166  0.00  0.00    +0.000 A 
ATOM     13  C   UNL     1       3.681   5.789  17.424  0.00  0.00    +0.000 A 
ATOM     14  C   UNL     1       4.270   4.570  17.070  0.00  0.00    +0.000 A 
ATOM     15  C   UNL     1       3.672   3.359  17.439  0.00  0.00    +0.000 A 
ENDBRANCH   8  13
ENDBRANCH   6   8
ENDBRANCH   1   6
BRANCH   5  16
ATOM     16  C   UNL     1       7.674   5.394  18.401  0.00  0.00    +0.000 C 
ATOM     17  N   UNL     1       7.732   4.276  18.722  0.00  0.00    +0.000 NA
ENDBRANCH   5  16
BRANCH   3  18
ATOM     18  C   UNL     1       8.644  10.193  18.223  0.00  0.00    +0.000 C 
BRANCH  18  19
ATOM     19  O   UNL     1       9.430  10.121  19.410  0.00  0.00    +0.000 OA
BRANCH  19  20
ATOM     20  C   UNL     1       9.854  11.283  19.999  0.00  0.00    +0.000 A 
ATOM     21  C   UNL     1       9.069  11.640  21.109  0.00  0.00    +0.000 A 
ATOM     22  C   UNL     1       9.272  12.843  21.792  0.00  0.00    +0.000 A 
ATOM     23  C   UNL     1      10.266  13.717  21.372  0.00  0.00    +0.000 A 
ATOM     24  C   UNL     1      11.049  13.384  20.268  0.00  0.00    +0.000 A 
ATOM     25  C   UNL     1      10.845  12.179  19.573  0.00  0.00    +0.000 A 
ATOM     26 CL   UNL     1      11.821  11.980  18.164  0.00  0.00    +0.000 Cl
ENDBRANCH  19  20
ENDBRANCH  18  19
ENDBRANCH   3  18
TORSDOF 7
ENDMDL
MODEL 8
REMARK VINA RESULT:      -7.4      2.013      3.245
REMARK  Name = 
REMARK  8 active torsions:
REMARK  status: ('A' for Active; 'I' for Inactive)
REMARK    1  A    between atoms: C_1  and  C_2
REMARK    2  A    between atoms: C_5  and  C_6
REMARK    3  A    between atoms: C_6  and  N_7
REMARK    4  A    between atoms: N_7  and  C_8
REMARK    5  A    between atoms: C_10  and  C_11
REMARK    6  A    between atoms: C_11  and  O_12
REMARK    7  A    between atoms: O_12  and  C_13
REMARK    8  A    between atoms: C_21  and  C_22
REMARK                            x       y       z     vdW  Elec       q    Type
REMARK                         _______ _______ _______ _____ _____    ______ ____
ROOT
ATOM      1  C   UNL     1       2.359   7.077  19.962  0.00  0.00    +0.000 A 
ATOM      2  O   UNL     1       2.803   5.783  20.074  0.00  0.00    +0.000 OA
ATOM      3  C   UNL     1       3.137   5.419  18.793  0.00  0.00    +0.000 A 
ATOM      4  N   UNL     1       2.998   6.382  17.900  0.00  0.00    +0.000 NA
ATOM      5  C   UNL     1       2.505   7.432  18.636  0.00  0.00    +0.000 A 
ENDROOT
BRANCH   1   6
ATOM      6  N   UNL     1       1.843   7.684  21.058  0.00  0.00    +0.000 N 
ATOM      7  H   UNL     1       2.359   7.646  21.933  0.00  0.00    +0.000 HD
BRANCH   6   8
ATOM      8  C   UNL     1       0.404   7.780  21.255  0.00  0.00    +0.000 C 
BRANCH   8  13
ATOM      9  C   UNL     1      -1.219  13.183  22.713  0.00  0.00    +0.000 C 
ATOM     10  C   UNL     1      -0.808  11.795  22.329  0.00  0.00    +0.000 A 
ATOM     11  C   UNL     1      -0.946  10.737  23.234  0.00  0.00    +0.000 A 
ATOM     12  C   UNL     1      -0.553   9.448  22.875  0.00  0.00    +0.000 A 
ATOM     13  C   UNL     1      -0.019   9.183  21.607  0.00  0.00    +0.000 A 
ATOM     14  C   UNL     1       0.109  10.240  20.699  0.00  0.00    +0.000 A 
ATOM     15  C   UNL     1      -0.276  11.537  21.060  0.00  0.00    +0.000 A 
ENDBRANCH   8  13
ENDBRANCH   6   8
ENDBRANCH   1   6
BRANCH   5  16
ATOM     16  C   UNL     1       2.229   8.692  18.035  0.00  0.00    +0.000 C 
ATOM     17  N   UNL     1       1.993   9.714  17.530  0.00  0.00    +0.000 NA
ENDBRANCH   5  16
BRANCH   3  18
ATOM     18  C   UNL     1       3.518   3.993  18.547  0.00  0.00    +0.000 C 
BRANCH  18  19
ATOM     19  O   UNL     1       4.942   3.934  18.543  0.00  0.00    +0.000 OA
BRANCH  19  20
ATOM     20  C   UNL     1       5.622   4.356  17.431  0.00  0.00    +0.000 A 
ATOM     21  C   UNL     1       5.127   3.780  16.249  0.00  0.00    +0.000 A 
ATOM     22  C   UNL     1       5.742   4.001  15.013  0.00  0.00    +0.000 A 
ATOM     23  C   UNL     1       6.874   4.803  14.939  0.00  0.00    +0.000 A 
ATOM     24  C   UNL     1       7.385   5.376  16.102  0.00  0.00    +0.000 A 
ATOM     25  C   UNL     1       6.774   5.152  17.348  0.00  0.00    +0.000 A 
ATOM     26 CL   UNL     1       7.603   5.839  18.696  0.00  0.00    +0.000 Cl
ENDBRANCH  19  20
ENDBRANCH  18  19
ENDBRANCH   3  18
TORSDOF 7
ENDMDL
MODEL 9
REMARK VINA RESULT:      -7.4      2.425      6.722
REMARK  Name = 
REMARK  8 active torsions:
REMARK  status: ('A' for Active; 'I' for Inactive)
REMARK    1  A    between atoms: C_1  and  C_2
REMARK    2  A    between atoms: C_5  and  C_6
REMARK    3  A    between atoms: C_6  and  N_7
REMARK    4  A    between atoms: N_7  and  C_8
REMARK    5  A    between atoms: C_10  and  C_11
REMARK    6  A    between atoms: C_11  and  O_12
REMARK    7  A    between atoms: O_12  and  C_13
REMARK    8  A    between atoms: C_21  and  C_22
REMARK                            x       y       z     vdW  Elec       q    Type
REMARK                         _______ _______ _______ _____ _____    ______ ____
ROOT
ATOM      1  C   UNL     1       3.189   3.995  18.536  0.00  0.00    +0.000 A 
ATOM      2  O   UNL     1       2.385   5.087  18.750  0.00  0.00    +0.000 OA
ATOM      3  C   UNL     1       2.238   5.149  20.113  0.00  0.00    +0.000 A 
ATOM      4  N   UNL     1       2.921   4.234  20.776  0.00  0.00    +0.000 NA
ATOM      5  C   UNL     1       3.523   3.502  19.782  0.00  0.00    +0.000 A 
ENDROOT
BRANCH   1   6
ATOM      6  N   UNL     1       3.426   3.601  17.263  0.00  0.00    +0.000 N 
ATOM      7  H   UNL     1       2.784   2.948  16.820  0.00  0.00    +0.000 HD
BRANCH   6   8
ATOM      8  C   UNL     1       4.784   3.490  16.751  0.00  0.00    +0.000 C 
BRANCH   8  13
ATOM      9  C   UNL     1       7.978   8.239  17.843  0.00  0.00    +0.000 C 
ATOM     10  C   UNL     1       7.148   7.024  17.566  0.00  0.00    +0.000 A 
ATOM     11  C   UNL     1       7.511   5.780  18.093  0.00  0.00    +0.000 A 
ATOM     12  C   UNL     1       6.741   4.650  17.824  0.00  0.00    +0.000 A 
ATOM     13  C   UNL     1       5.590   4.734  17.030  0.00  0.00    +0.000 A 
ATOM     14  C   UNL     1       5.221   5.980  16.511  0.00  0.00    +0.000 A 
ATOM     15  C   UNL     1       5.999   7.115  16.772  0.00  0.00    +0.000 A 
ENDBRANCH   8  13
ENDBRANCH   6   8
ENDBRANCH   1   6
BRANCH   5  16
ATOM     16  C   UNL     1       4.382   2.407  20.085  0.00  0.00    +0.000 C 
ATOM     17  N   UNL     1       5.074   1.509  20.349  0.00  0.00    +0.000 NA
ENDBRANCH   5  16
BRANCH   3  18
ATOM     18  C   UNL     1       1.278   6.153  20.669  0.00  0.00    +0.000 C 
BRANCH  18  19
ATOM     19  O   UNL     1       1.969   7.398  20.743  0.00  0.00    +0.000 OA
BRANCH  19  20
ATOM     20  C   UNL     1       1.411   8.504  20.158  0.00  0.00    +0.000 A 
ATOM     21  C   UNL     1       1.783   8.644  18.810  0.00  0.00    +0.000 A 
ATOM     22  C   UNL     1       1.403   9.758  18.057  0.00  0.00    +0.000 A 
ATOM     23  C   UNL     1       0.644  10.762  18.644  0.00  0.00    +0.000 A 
ATOM     24  C   UNL     1       0.272  10.646  19.983  0.00  0.00    +0.000 A 
ATOM     25  C   UNL     1       0.657   9.530  20.747  0.00  0.00    +0.000 A 
ATOM     26 CL   UNL     1       0.214   9.603  22.413  0.00  0.00    +0.000 Cl
ENDBRANCH  19  20
ENDBRANCH  18  19
ENDBRANCH   3  18
TORSDOF 7
ENDMDL
