MODEL 1
REMARK VINA RESULT:      -7.7      0.000      0.000
REMARK  Name = 
REMARK  6 active torsions:
REMARK  status: ('A' for Active; 'I' for Inactive)
REMARK    1  A    between atoms: C_1  and  C_2
REMARK    2  A    between atoms: C_2  and  C_3
REMARK    3  A    between atoms: C_3  and  C_4
REMARK    4  A    between atoms: C_4  and  N_5
REMARK    5  A    between atoms: C_6  and  C_7
REMARK    6  A    between atoms: C_11  and  C_12
REMARK                            x       y       z     vdW  Elec       q    Type
REMARK                         _______ _______ _______ _____ _____    ______ ____
ROOT
ATOM      1  C   UNL     1       5.839   4.668  15.831  0.00  0.00    +0.000 A 
ATOM      2  C   UNL     1       4.728   4.024  16.226  0.00  0.00    +0.000 A 
ATOM      3  C   UNL     1       4.081   4.359  17.491  0.00  0.00    +0.000 A 
ATOM      4  C   UNL     1       2.910   3.711  17.898  0.00  0.00    +0.000 A 
ATOM      5  C   UNL     1       2.282   4.075  19.096  0.00  0.00    +0.000 A 
ATOM      6  C   UNL     1       1.017   3.399  19.536  0.00  0.00    +0.000 C 
ATOM      7  C   UNL     1       2.843   5.092  19.881  0.00  0.00    +0.000 A 
ATOM      8  C   UNL     1       4.018   5.735  19.484  0.00  0.00    +0.000 A 
ATOM      9  C   UNL     1       4.632   5.366  18.289  0.00  0.00    +0.000 A 
ATOM     10  N   UNL     1       5.806   6.007  17.870  0.00  0.00    +0.000 N 
ATOM     11  C   UNL     1       6.449   5.717  16.692  0.00  0.00    +0.000 A 
ATOM     12  O   UNL     1       7.475   6.305  16.362  0.00  0.00    +0.000 OA
ATOM     13  H   UNL     1       6.222   6.730  18.440  0.00  0.00    +0.000 HD
ENDROOT
BRANCH   1  15
ATOM     14  N   UNL     1       5.752   3.643  13.630  0.00  0.00    +0.000 NA
ATOM     15  C   UNL     1       6.398   4.343  14.495  0.00  0.00    +0.000 C 
BRANCH  14  16
ATOM     16  C   UNL     1       6.391   3.494  12.327  0.00  0.00    +0.000 C 
BRANCH  16  17
ATOM     17  C   UNL     1       5.405   2.775  11.402  0.00  0.00    +0.000 C 
BRANCH  17  19
ATOM     18  C   UNL     1       3.366   3.597  10.159  0.00  0.00    +0.000 C 
ATOM     19  C   UNL     1       3.979   3.327  11.524  0.00  0.00    +0.000 C 
ENDBRANCH  17  19
ENDBRANCH  16  17
ENDBRANCH  14  16
ENDBRANCH   1  15
TORSDOF 4
ENDMDL
MODEL 2
REMARK VINA RESULT:      -7.6      1.054      1.085
REMARK  Name = 
REMARK  6 active torsions:
REMARK  status: ('A' for Active; 'I' for Inactive)
REMARK    1  A    between atoms: C_1  and  C_2
REMARK    2  A    between atoms: C_2  and  C_3
REMARK    3  A    between atoms: C_3  and  C_4
REMARK    4  A    between atoms: C_4  and  N_5
REMARK    5  A    between atoms: C_6  and  C_7
REMARK    6  A    between atoms: C_11  and  C_12
REMARK                            x       y       z     vdW  Elec       q    Type
REMARK                         _______ _______ _______ _____ _____    ______ ____
ROOT
ATOM      1  C   UNL     1       5.087   4.652  16.226  0.00  0.00    +0.000 A 
ATOM      2  C   UNL     1       4.376   3.834  17.021  0.00  0.00    +0.000 A 
ATOM      3  C   UNL     1       3.541   4.373  18.089  0.00  0.00    +0.000 A 
ATOM      4  C   UNL     1       2.778   3.530  18.905  0.00  0.00    +0.000 A 
ATOM      5  C   UNL     1       1.951   4.070  19.899  0.00  0.00    +0.000 A 
ATOM      6  C   UNL     1       1.117   3.178  20.770  0.00  0.00    +0.000 C 
ATOM      7  C   UNL     1       1.901   5.461  20.067  0.00  0.00    +0.000 A 
ATOM      8  C   UNL     1       2.668   6.306  19.260  0.00  0.00    +0.000 A 
ATOM      9  C   UNL     1       3.484   5.758  18.274  0.00  0.00    +0.000 A 
ATOM     10  N   UNL     1       4.253   6.591  17.450  0.00  0.00    +0.000 N 
ATOM     11  C   UNL     1       5.057   6.125  16.439  0.00  0.00    +0.000 A 
ATOM     12  O   UNL     1       5.713   6.890  15.739  0.00  0.00    +0.000 OA
ATOM     13  H   UNL     1       4.231   7.594  17.577  0.00  0.00    +0.000 HD
ENDROOT
BRANCH   1  15
ATOM     14  N   UNL     1       5.423   4.085  13.887  0.00  0.00    +0.000 NA
ATOM     15  C   UNL     1       5.846   4.050  15.103  0.00  0.00    +0.000 C 
BRANCH  14  16
ATOM     16  C   UNL     1       6.328   3.539  12.882  0.00  0.00    +0.000 C 
BRANCH  16  17
ATOM     17  C   UNL     1       5.475   2.924  11.770  0.00  0.00    +0.000 C 
BRANCH  17  19
ATOM     18  C   UNL     1       3.364   3.140  10.399  0.00  0.00    +0.000 C 
ATOM     19  C   UNL     1       4.099   3.592  11.650  0.00  0.00    +0.000 C 
ENDBRANCH  17  19
ENDBRANCH  16  17
ENDBRANCH  14  16
ENDBRANCH   1  15
TORSDOF 4
ENDMDL
MODEL 3
REMARK VINA RESULT:      -7.4      0.891      1.405
REMARK  Name = 
REMARK  6 active torsions:
REMARK  status: ('A' for Active; 'I' for Inactive)
REMARK    1  A    between atoms: C_1  and  C_2
REMARK    2  A    between atoms: C_2  and  C_3
REMARK    3  A    between atoms: C_3  and  C_4
REMARK    4  A    between atoms: C_4  and  N_5
REMARK    5  A    between atoms: C_6  and  C_7
REMARK    6  A    between atoms: C_11  and  C_12
REMARK                            x       y       z     vdW  Elec       q    Type
REMARK                         _______ _______ _______ _____ _____    ______ ____
ROOT
ATOM      1  C   UNL     1       5.768   4.403  15.844  0.00  0.00    +0.000 A 
ATOM      2  C   UNL     1       4.664   3.803  16.320  0.00  0.00    +0.000 A 
ATOM      3  C   UNL     1       4.013   4.292  17.532  0.00  0.00    +0.000 A 
ATOM      4  C   UNL     1       2.850   3.689  18.022  0.00  0.00    +0.000 A 
ATOM      5  C   UNL     1       2.218   4.198  19.164  0.00  0.00    +0.000 A 
ATOM      6  C   UNL     1       0.961   3.571  19.690  0.00  0.00    +0.000 C 
ATOM      7  C   UNL     1       2.767   5.315  19.809  0.00  0.00    +0.000 A 
ATOM      8  C   UNL     1       3.935   5.916  19.329  0.00  0.00    +0.000 A 
ATOM      9  C   UNL     1       4.552   5.401  18.192  0.00  0.00    +0.000 A 
ATOM     10  N   UNL     1       5.718   5.996  17.691  0.00  0.00    +0.000 N 
ATOM     11  C   UNL     1       6.365   5.563  16.560  0.00  0.00    +0.000 A 
ATOM     12  O   UNL     1       7.383   6.115  16.154  0.00  0.00    +0.000 OA
ATOM     13  H   UNL     1       6.126   6.792  18.162  0.00  0.00    +0.000 HD
ENDROOT
BRANCH   1  15
ATOM     14  N   UNL     1       5.652   3.916  13.466  0.00  0.00    +0.000 NA
ATOM     15  C   UNL     1       6.330   3.915  14.560  0.00  0.00    +0.000 C 
BRANCH  14  16
ATOM     16  C   UNL     1       6.374   3.500  12.269  0.00  0.00    +0.000 C 
BRANCH  16  17
ATOM     17  C   UNL     1       5.643   2.291  11.679  0.00  0.00    +0.000 C 
BRANCH  17  19
ATOM     18  C   UNL     1       6.133  -0.154  11.279  0.00  0.00    +0.000 C 
ATOM     19  C   UNL     1       6.604   1.273  11.052  0.00  0.00    +0.000 C 
ENDBRANCH  17  19
ENDBRANCH  16  17
ENDBRANCH  14  16
ENDBRANCH   1  15
TORSDOF 4
ENDMDL
MODEL 4
REMARK VINA RESULT:      -7.4      1.593      1.753
REMARK  Name = 
REMARK  6 active torsions:
REMARK  status: ('A' for Active; 'I' for Inactive)
REMARK    1  A    between atoms: C_1  and  C_2
REMARK    2  A    between atoms: C_2  and  C_3
REMARK    3  A    between atoms: C_3  and  C_4
REMARK    4  A    between atoms: C_4  and  N_5
REMARK    5  A    between atoms: C_6  and  C_7
REMARK    6  A    between atoms: C_11  and  C_12
REMARK                            x       y       z     vdW  Elec       q    Type
REMARK                         _______ _______ _______ _____ _____    ______ ____
ROOT
ATOM      1  C   UNL     1       5.936   4.380  16.361  0.00  0.00    +0.000 A 
ATOM      2  C   UNL     1       4.657   3.969  16.344  0.00  0.00    +0.000 A 
ATOM      3  C   UNL     1       3.987   3.564  17.576  0.00  0.00    +0.000 A 
ATOM      4  C   UNL     1       2.648   3.158  17.571  0.00  0.00    +0.000 A 
ATOM      5  C   UNL     1       2.012   2.811  18.770  0.00  0.00    +0.000 A 
ATOM      6  C   UNL     1       0.572   2.390  18.781  0.00  0.00    +0.000 C 
ATOM      7  C   UNL     1       2.733   2.874  19.971  0.00  0.00    +0.000 A 
ATOM      8  C   UNL     1       4.073   3.270  19.980  0.00  0.00    +0.000 A 
ATOM      9  C   UNL     1       4.694   3.614  18.782  0.00  0.00    +0.000 A 
ATOM     10  N   UNL     1       6.035   4.023  18.773  0.00  0.00    +0.000 N 
ATOM     11  C   UNL     1       6.704   4.404  17.636  0.00  0.00    +0.000 A 
ATOM     12  O   UNL     1       7.879   4.757  17.673  0.00  0.00    +0.000 OA
ATOM     13  H   UNL     1       6.563   4.054  19.634  0.00  0.00    +0.000 HD
ENDROOT
BRANCH   1  15
ATOM     14  N   UNL     1       6.685   4.098  14.067  0.00  0.00    +0.000 NA
ATOM     15  C   UNL     1       6.532   4.863  15.091  0.00  0.00    +0.000 C 
BRANCH  14  16
ATOM     16  C   UNL     1       7.192   4.742  12.861  0.00  0.00    +0.000 C 
BRANCH  16  17
ATOM     17  C   UNL     1       6.957   3.788  11.687  0.00  0.00    +0.000 C 
BRANCH  17  19
ATOM     18  C   UNL     1       5.966   1.493  11.324  0.00  0.00    +0.000 C 
ATOM     19  C   UNL     1       5.741   2.880  11.905  0.00  0.00    +0.000 C 
ENDBRANCH  17  19
ENDBRANCH  16  17
ENDBRANCH  14  16
ENDBRANCH   1  15
TORSDOF 4
ENDMDL
MODEL 5
REMARK VINA RESULT:      -7.4      1.287      1.677
REMARK  Name = 
REMARK  6 active torsions:
REMARK  status: ('A' for Active; 'I' for Inactive)
REMARK    1  A    between atoms: C_1  and  C_2
REMARK    2  A    between atoms: C_2  and  C_3
REMARK    3  A    between atoms: C_3  and  C_4
REMARK    4  A    between atoms: C_4  and  N_5
REMARK    5  A    between atoms: C_6  and  C_7
REMARK    6  A    between atoms: C_11  and  C_12
REMARK                            x       y       z     vdW  Elec       q    Type
REMARK                         _______ _______ _______ _____ _____    ______ ____
ROOT
ATOM      1  C   UNL     1       5.005   4.619  16.421  0.00  0.00    +0.000 A 
ATOM      2  C   UNL     1       4.329   3.788  17.231  0.00  0.00    +0.000 A 
ATOM      3  C   UNL     1       3.531   4.309  18.337  0.00  0.00    +0.000 A 
ATOM      4  C   UNL     1       2.804   3.452  19.170  0.00  0.00    +0.000 A 
ATOM      5  C   UNL     1       2.012   3.975  20.201  0.00  0.00    +0.000 A 
ATOM      6  C   UNL     1       1.216   3.068  21.092  0.00  0.00    +0.000 C 
ATOM      7  C   UNL     1       1.960   5.364  20.387  0.00  0.00    +0.000 A 
ATOM      8  C   UNL     1       2.692   6.223  19.563  0.00  0.00    +0.000 A 
ATOM      9  C   UNL     1       3.474   5.691  18.541  0.00  0.00    +0.000 A 
ATOM     10  N   UNL     1       4.207   6.539  17.698  0.00  0.00    +0.000 N 
ATOM     11  C   UNL     1       4.975   6.089  16.652  0.00  0.00    +0.000 A 
ATOM     12  O   UNL     1       5.600   6.867  15.938  0.00  0.00    +0.000 OA
ATOM     13  H   UNL     1       4.184   7.539  17.838  0.00  0.00    +0.000 HD
ENDROOT
BRANCH   1  15
ATOM     14  N   UNL     1       5.356   4.239  14.046  0.00  0.00    +0.000 NA
ATOM     15  C   UNL     1       5.726   4.035  15.263  0.00  0.00    +0.000 C 
BRANCH  14  16
ATOM     16  C   UNL     1       6.223   3.680  13.015  0.00  0.00    +0.000 C 
BRANCH  16  17
ATOM     17  C   UNL     1       5.329   3.140  11.896  0.00  0.00    +0.000 C 
BRANCH  17  19
ATOM     18  C   UNL     1       7.267   1.745  11.073  0.00  0.00    +0.000 C 
ATOM     19  C   UNL     1       5.782   1.763  11.396  0.00  0.00    +0.000 C 
ENDBRANCH  17  19
ENDBRANCH  16  17
ENDBRANCH  14  16
ENDBRANCH   1  15
TORSDOF 4
ENDMDL
MODEL 6
REMARK VINA RESULT:      -7.2      1.402      6.117
REMARK  Name = 
REMARK  6 active torsions:
REMARK  status: ('A' for Active; 'I' for Inactive)
REMARK    1  A    between atoms: C_1  and  C_2
REMARK    2  A    between atoms: C_2  and  C_3
REMARK    3  A    between atoms: C_3  and  C_4
REMARK    4  A    between atoms: C_4  and  N_5
REMARK    5  A    between atoms: C_6  and  C_7
REMARK    6  A    between atoms: C_11  and  C_12
REMARK                            x       y       z     vdW  Elec       q    Type
REMARK                         _______ _______ _______ _____ _____    ______ ____
ROOT
ATOM      1  C   UNL     1       5.648   5.245  16.965  0.00  0.00    +0.000 A 
ATOM      2  C   UNL     1       5.066   4.530  15.987  0.00  0.00    +0.000 A 
ATOM      3  C   UNL     1       5.707   4.388  14.684  0.00  0.00    +0.000 A 
ATOM      4  C   UNL     1       5.120   3.624  13.669  0.00  0.00    +0.000 A 
ATOM      5  C   UNL     1       5.770   3.467  12.438  0.00  0.00    +0.000 A 
ATOM      6  C   UNL     1       5.160   2.638  11.347  0.00  0.00    +0.000 C 
ATOM      7  C   UNL     1       7.012   4.087  12.236  0.00  0.00    +0.000 A 
ATOM      8  C   UNL     1       7.598   4.858  13.244  0.00  0.00    +0.000 A 
ATOM      9  C   UNL     1       6.942   5.005  14.463  0.00  0.00    +0.000 A 
ATOM     10  N   UNL     1       7.519   5.767  15.489  0.00  0.00    +0.000 N 
ATOM     11  C   UNL     1       6.947   5.932  16.726  0.00  0.00    +0.000 A 
ATOM     12  O   UNL     1       7.488   6.607  17.596  0.00  0.00    +0.000 OA
ATOM     13  H   UNL     1       8.407   6.228  15.342  0.00  0.00    +0.000 HD
ENDROOT
BRANCH   1  15
ATOM     14  N   UNL     1       3.716   5.404  18.430  0.00  0.00    +0.000 NA
ATOM     15  C   UNL     1       4.990   5.278  18.294  0.00  0.00    +0.000 C 
BRANCH  14  16
ATOM     16  C   UNL     1       3.210   5.318  19.795  0.00  0.00    +0.000 C 
BRANCH  16  17
ATOM     17  C   UNL     1       1.851   4.614  19.746  0.00  0.00    +0.000 C 
BRANCH  17  19
ATOM     18  C   UNL     1       0.916   2.506  18.715  0.00  0.00    +0.000 C 
ATOM     19  C   UNL     1       1.655   3.809  18.456  0.00  0.00    +0.000 C 
ENDBRANCH  17  19
ENDBRANCH  16  17
ENDBRANCH  14  16
ENDBRANCH   1  15
TORSDOF 4
ENDMDL
MODEL 7
REMARK VINA RESULT:      -7.2      1.763      2.682
REMARK  Name = 
REMARK  6 active torsions:
REMARK  status: ('A' for Active; 'I' for Inactive)
REMARK    1  A    between atoms: C_1  and  C_2
REMARK    2  A    between atoms: C_2  and  C_3
REMARK    3  A    between atoms: C_3  and  C_4
REMARK    4  A    between atoms: C_4  and  N_5
REMARK    5  A    between atoms: C_6  and  C_7
REMARK    6  A    between atoms: C_11  and  C_12
REMARK                            x       y       z     vdW  Elec       q    Type
REMARK                         _______ _______ _______ _____ _____    ______ ____
ROOT
ATOM      1  C   UNL     1       6.227   4.227  13.905  0.00  0.00    +0.000 A 
ATOM      2  C   UNL     1       5.467   3.856  14.949  0.00  0.00    +0.000 A 
ATOM      3  C   UNL     1       5.717   4.392  16.283  0.00  0.00    +0.000 A 
ATOM      4  C   UNL     1       4.915   4.031  17.370  0.00  0.00    +0.000 A 
ATOM      5  C   UNL     1       5.147   4.588  18.634  0.00  0.00    +0.000 A 
ATOM      6  C   UNL     1       4.284   4.221  19.805  0.00  0.00    +0.000 C 
ATOM      7  C   UNL     1       6.193   5.508  18.795  0.00  0.00    +0.000 A 
ATOM      8  C   UNL     1       7.003   5.866  17.714  0.00  0.00    +0.000 A 
ATOM      9  C   UNL     1       6.761   5.306  16.462  0.00  0.00    +0.000 A 
ATOM     10  N   UNL     1       7.557   5.660  15.363  0.00  0.00    +0.000 N 
ATOM     11  C   UNL     1       7.360   5.173  14.095  0.00  0.00    +0.000 A 
ATOM     12  O   UNL     1       8.080   5.511  13.161  0.00  0.00    +0.000 OA
ATOM     13  H   UNL     1       8.322   6.312  15.478  0.00  0.00    +0.000 HD
ENDROOT
BRANCH   1  15
ATOM     14  N   UNL     1       4.684   3.290  12.278  0.00  0.00    +0.000 NA
ATOM     15  C   UNL     1       5.866   3.715  12.560  0.00  0.00    +0.000 C 
BRANCH  14  16
ATOM     16  C   UNL     1       4.457   2.912  10.888  0.00  0.00    +0.000 C 
BRANCH  16  17
ATOM     17  C   UNL     1       3.099   3.480  10.466  0.00  0.00    +0.000 C 
BRANCH  17  19
ATOM     18  C   UNL     1       2.004   5.140   8.909  0.00  0.00    +0.000 C 
ATOM     19  C   UNL     1       3.149   4.157   9.091  0.00  0.00    +0.000 C 
ENDBRANCH  17  19
ENDBRANCH  16  17
ENDBRANCH  14  16
ENDBRANCH   1  15
TORSDOF 4
ENDMDL
MODEL 8
REMARK VINA RESULT:      -7.0      1.010      1.331
REMARK  Name = 
REMARK  6 active torsions:
REMARK  status: ('A' for Active; 'I' for Inactive)
REMARK    1  A    between atoms: C_1  and  C_2
REMARK    2  A    between atoms: C_2  and  C_3
REMARK    3  A    between atoms: C_3  and  C_4
REMARK    4  A    between atoms: C_4  and  N_5
REMARK    5  A    between atoms: C_6  and  C_7
REMARK    6  A    between atoms: C_11  and  C_12
REMARK                            x       y       z     vdW  Elec       q    Type
REMARK                         _______ _______ _______ _____ _____    ______ ____
ROOT
ATOM      1  C   UNL     1       6.075   4.621  16.551  0.00  0.00    +0.000 A 
ATOM      2  C   UNL     1       4.954   3.880  16.577  0.00  0.00    +0.000 A 
ATOM      3  C   UNL     1       4.009   3.994  17.683  0.00  0.00    +0.000 A 
ATOM      4  C   UNL     1       2.828   3.245  17.706  0.00  0.00    +0.000 A 
ATOM      5  C   UNL     1       1.915   3.399  18.758  0.00  0.00    +0.000 A 
ATOM      6  C   UNL     1       0.638   2.613  18.786  0.00  0.00    +0.000 C 
ATOM      7  C   UNL     1       2.201   4.309  19.785  0.00  0.00    +0.000 A 
ATOM      8  C   UNL     1       3.384   5.053  19.772  0.00  0.00    +0.000 A 
ATOM      9  C   UNL     1       4.283   4.892  18.720  0.00  0.00    +0.000 A 
ATOM     10  N   UNL     1       5.470   5.637  18.685  0.00  0.00    +0.000 N 
ATOM     11  C   UNL     1       6.388   5.554  17.667  0.00  0.00    +0.000 A 
ATOM     12  O   UNL     1       7.415   6.226  17.675  0.00  0.00    +0.000 OA
ATOM     13  H   UNL     1       5.688   6.283  19.431  0.00  0.00    +0.000 HD
ENDROOT
BRANCH   1  15
ATOM     14  N   UNL     1       6.640   5.064  14.229  0.00  0.00    +0.000 NA
ATOM     15  C   UNL     1       6.950   4.524  15.356  0.00  0.00    +0.000 C 
BRANCH  14  16
ATOM     16  C   UNL     1       7.647   4.967  13.179  0.00  0.00    +0.000 C 
BRANCH  16  17
ATOM     17  C   UNL     1       7.011   4.248  11.987  0.00  0.00    +0.000 C 
BRANCH  17  19
ATOM     18  C   UNL     1       4.677   3.350  11.628  0.00  0.00    +0.000 C 
ATOM     19  C   UNL     1       5.968   3.209  12.417  0.00  0.00    +0.000 C 
ENDBRANCH  17  19
ENDBRANCH  16  17
ENDBRANCH  14  16
ENDBRANCH   1  15
TORSDOF 4
ENDMDL
MODEL 9
REMARK VINA RESULT:      -6.9      1.898      6.170
REMARK  Name = 
REMARK  6 active torsions:
REMARK  status: ('A' for Active; 'I' for Inactive)
REMARK    1  A    between atoms: C_1  and  C_2
REMARK    2  A    between atoms: C_2  and  C_3
REMARK    3  A    between atoms: C_3  and  C_4
REMARK    4  A    between atoms: C_4  and  N_5
REMARK    5  A    between atoms: C_6  and  C_7
REMARK    6  A    between atoms: C_11  and  C_12
REMARK                            x       y       z     vdW  Elec       q    Type
REMARK                         _______ _______ _______ _____ _____    ______ ____
ROOT
ATOM      1  C   UNL     1       4.931   4.823  18.618  0.00  0.00    +0.000 A 
ATOM      2  C   UNL     1       4.447   4.517  17.402  0.00  0.00    +0.000 A 
ATOM      3  C   UNL     1       5.319   4.511  16.231  0.00  0.00    +0.000 A 
ATOM      4  C   UNL     1       4.829   4.170  14.966  0.00  0.00    +0.000 A 
ATOM      5  C   UNL     1       5.691   4.131  13.863  0.00  0.00    +0.000 A 
ATOM      6  C   UNL     1       5.181   3.752  12.504  0.00  0.00    +0.000 C 
ATOM      7  C   UNL     1       7.047   4.441  14.041  0.00  0.00    +0.000 A 
ATOM      8  C   UNL     1       7.539   4.792  15.302  0.00  0.00    +0.000 A 
ATOM      9  C   UNL     1       6.673   4.825  16.391  0.00  0.00    +0.000 A 
ATOM     10  N   UNL     1       7.151   5.165  17.665  0.00  0.00    +0.000 N 
ATOM     11  C   UNL     1       6.363   5.190  18.789  0.00  0.00    +0.000 A 
ATOM     12  O   UNL     1       6.824   5.492  19.886  0.00  0.00    +0.000 OA
ATOM     13  H   UNL     1       8.124   5.404  17.795  0.00  0.00    +0.000 HD
ENDROOT
BRANCH   1  15
ATOM     14  N   UNL     1       2.820   5.204  19.758  0.00  0.00    +0.000 NA
ATOM     15  C   UNL     1       4.015   4.725  19.780  0.00  0.00    +0.000 C 
BRANCH  14  16
ATOM     16  C   UNL     1       2.007   4.940  20.940  0.00  0.00    +0.000 C 
BRANCH  16  17
ATOM     17  C   UNL     1       1.622   3.459  20.922  0.00  0.00    +0.000 C 
BRANCH  17  19
ATOM     18  C   UNL     1       1.448   2.071  18.819  0.00  0.00    +0.000 C 
ATOM     19  C   UNL     1       0.758   3.092  19.709  0.00  0.00    +0.000 C 
ENDBRANCH  17  19
ENDBRANCH  16  17
ENDBRANCH  14  16
ENDBRANCH   1  15
TORSDOF 4
ENDMDL
