MODEL 1
REMARK VINA RESULT:      -7.9      0.000      0.000
REMARK  Name = 
REMARK  10 active torsions:
REMARK  status: ('A' for Active; 'I' for Inactive)
REMARK    1  A    between atoms: C_6  and  C_7
REMARK    2  A    between atoms: C_13  and  C_14
REMARK    3  A    between atoms: C_14  and  N_15
REMARK    4  A    between atoms: N_15  and  C_16
REMARK    5  A    between atoms: N_15  and  C_17
REMARK    6  A    between atoms: C_17  and  C_18
REMARK    7  A    between atoms: C_18  and  O_19
REMARK    8  A    between atoms: C_18  and  O_21
REMARK    9  A    between atoms: O_19  and  C_20
REMARK   10  A    between atoms: O_21  and  C_22
REMARK                            x       y       z     vdW  Elec       q    Type
REMARK                         _______ _______ _______ _____ _____    ______ ____
ROOT
ATOM      1  C   UNL     1       0.415   2.497  18.607  0.00  0.00    +0.000 C 
ATOM      2  C   UNL     1       1.240   3.472  19.034  0.00  0.00    +0.000 C 
ATOM      3  C   UNL     1       1.030   3.940  20.459  0.00  0.00    +0.000 C 
ATOM      4  C   UNL     1       2.089   3.238  21.296  0.00  0.00    +0.000 C 
ATOM      5  C   UNL     1       3.441   3.672  20.784  0.00  0.00    +0.000 C 
ATOM      6  C   UNL     1       3.740   3.345  19.292  0.00  0.00    +0.000 C 
ATOM      7  C   UNL     1       3.895   1.826  19.002  0.00  0.00    +0.000 C 
ATOM      8  C   UNL     1       5.114   3.994  19.068  0.00  0.00    +0.000 C 
ATOM      9  C   UNL     1       5.040   5.499  18.904  0.00  0.00    +0.000 C 
ATOM     10  O   UNL     1       6.347   6.013  18.589  0.00  0.00    +0.000 OA
ATOM     11  C   UNL     1       6.334   6.456  17.287  0.00  0.00    +0.000 C 
ATOM     12  O   UNL     1       7.228   7.177  16.838  0.00  0.00    +0.000 OA
ATOM     13  C   UNL     1       5.121   5.952  16.564  0.00  0.00    +0.000 C 
ATOM     14  C   UNL     1       4.141   5.934  17.769  0.00  0.00    +0.000 C 
ATOM     15  C   UNL     1       2.745   5.266  17.756  0.00  0.00    +0.000 C 
ATOM     16  C   UNL     1       2.591   3.832  18.340  0.00  0.00    +0.000 C 
ENDROOT
BRANCH  13  17
ATOM     17  C   UNL     1       5.391   4.625  15.815  0.00  0.00    +0.000 C 
BRANCH  17  18
ATOM     18  N   UNL     1       5.762   4.596  14.391  0.00  0.00    +0.000 NA
ATOM     19  C   UNL     1       7.159   4.977  14.175  0.00  0.00    +0.000 C 
BRANCH  18  20
ATOM     20  C   UNL     1       5.447   3.392  13.572  0.00  0.00    +0.000 C 
BRANCH  20  21
ATOM     21  C   UNL     1       5.616   3.364  12.015  0.00  0.00    +0.000 C 
BRANCH  21  22
ATOM     22  O   UNL     1       6.768   2.577  11.685  0.00  0.00    +0.000 OA
ATOM     23  C   UNL     1       6.433   1.318  11.116  0.00  0.00    +0.000 C 
ENDBRANCH  21  22
BRANCH  21  24
ATOM     24  O   UNL     1       4.470   2.755  11.394  0.00  0.00    +0.000 OA
ATOM     25  C   UNL     1       3.628   3.657  10.693  0.00  0.00    +0.000 C 
ENDBRANCH  21  24
ENDBRANCH  20  21
ENDBRANCH  18  20
ENDBRANCH  17  18
ENDBRANCH  13  17
TORSDOF 6
ENDMDL
MODEL 2
REMARK VINA RESULT:      -7.0      0.885      1.422
REMARK  Name = 
REMARK  10 active torsions:
REMARK  status: ('A' for Active; 'I' for Inactive)
REMARK    1  A    between atoms: C_6  and  C_7
REMARK    2  A    between atoms: C_13  and  C_14
REMARK    3  A    between atoms: C_14  and  N_15
REMARK    4  A    between atoms: N_15  and  C_16
REMARK    5  A    between atoms: N_15  and  C_17
REMARK    6  A    between atoms: C_17  and  C_18
REMARK    7  A    between atoms: C_18  and  O_19
REMARK    8  A    between atoms: C_18  and  O_21
REMARK    9  A    between atoms: O_19  and  C_20
REMARK   10  A    between atoms: O_21  and  C_22
REMARK                            x       y       z     vdW  Elec       q    Type
REMARK                         _______ _______ _______ _____ _____    ______ ____
ROOT
ATOM      1  C   UNL     1       0.427   2.324  18.593  0.00  0.00    +0.000 C 
ATOM      2  C   UNL     1       1.237   3.255  19.135  0.00  0.00    +0.000 C 
ATOM      3  C   UNL     1       1.122   3.441  20.633  0.00  0.00    +0.000 C 
ATOM      4  C   UNL     1       2.279   2.666  21.246  0.00  0.00    +0.000 C 
ATOM      5  C   UNL     1       3.562   3.271  20.729  0.00  0.00    +0.000 C 
ATOM      6  C   UNL     1       3.752   3.240  19.184  0.00  0.00    +0.000 C 
ATOM      7  C   UNL     1       3.956   1.813  18.605  0.00  0.00    +0.000 C 
ATOM      8  C   UNL     1       5.070   4.005  18.987  0.00  0.00    +0.000 C 
ATOM      9  C   UNL     1       4.910   5.507  19.113  0.00  0.00    +0.000 C 
ATOM     10  O   UNL     1       6.160   6.151  18.807  0.00  0.00    +0.000 OA
ATOM     11  C   UNL     1       6.019   6.822  17.616  0.00  0.00    +0.000 C 
ATOM     12  O   UNL     1       6.837   7.668  17.246  0.00  0.00    +0.000 OA
ATOM     13  C   UNL     1       4.777   6.384  16.900  0.00  0.00    +0.000 C 
ATOM     14  C   UNL     1       3.900   6.084  18.147  0.00  0.00    +0.000 C 
ATOM     15  C   UNL     1       2.543   5.343  18.109  0.00  0.00    +0.000 C 
ATOM     16  C   UNL     1       2.507   3.820  18.425  0.00  0.00    +0.000 C 
ENDROOT
BRANCH  13  17
ATOM     17  C   UNL     1       5.048   5.235  15.898  0.00  0.00    +0.000 C 
BRANCH  17  18
ATOM     18  N   UNL     1       6.377   5.019  15.303  0.00  0.00    +0.000 NA
ATOM     19  C   UNL     1       7.131   3.974  15.998  0.00  0.00    +0.000 C 
BRANCH  18  20
ATOM     20  C   UNL     1       6.502   4.821  13.832  0.00  0.00    +0.000 C 
BRANCH  20  21
ATOM     21  C   UNL     1       5.964   3.543  13.105  0.00  0.00    +0.000 C 
BRANCH  21  22
ATOM     22  O   UNL     1       4.634   3.800  12.634  0.00  0.00    +0.000 OA
ATOM     23  C   UNL     1       4.301   3.044  11.477  0.00  0.00    +0.000 C 
ENDBRANCH  21  22
BRANCH  21  24
ATOM     24  O   UNL     1       6.784   3.227  11.965  0.00  0.00    +0.000 OA
ATOM     25  C   UNL     1       7.532   4.320  11.454  0.00  0.00    +0.000 C 
ENDBRANCH  21  24
ENDBRANCH  20  21
ENDBRANCH  18  20
ENDBRANCH  17  18
ENDBRANCH  13  17
TORSDOF 6
ENDMDL
MODEL 3
REMARK VINA RESULT:      -6.8      0.412      1.285
REMARK  Name = 
REMARK  10 active torsions:
REMARK  status: ('A' for Active; 'I' for Inactive)
REMARK    1  A    between atoms: C_6  and  C_7
REMARK    2  A    between atoms: C_13  and  C_14
REMARK    3  A    between atoms: C_14  and  N_15
REMARK    4  A    between atoms: N_15  and  C_16
REMARK    5  A    between atoms: N_15  and  C_17
REMARK    6  A    between atoms: C_17  and  C_18
REMARK    7  A    between atoms: C_18  and  O_19
REMARK    8  A    between atoms: C_18  and  O_21
REMARK    9  A    between atoms: O_19  and  C_20
REMARK   10  A    between atoms: O_21  and  C_22
REMARK                            x       y       z     vdW  Elec       q    Type
REMARK                         _______ _______ _______ _____ _____    ______ ____
ROOT
ATOM      1  C   UNL     1       0.500   2.664  18.536  0.00  0.00    +0.000 C 
ATOM      2  C   UNL     1       1.344   3.629  18.949  0.00  0.00    +0.000 C 
ATOM      3  C   UNL     1       1.103   4.169  20.343  0.00  0.00    +0.000 C 
ATOM      4  C   UNL     1       2.108   3.471  21.247  0.00  0.00    +0.000 C 
ATOM      5  C   UNL     1       3.491   3.835  20.765  0.00  0.00    +0.000 C 
ATOM      6  C   UNL     1       3.828   3.430  19.299  0.00  0.00    +0.000 C 
ATOM      7  C   UNL     1       3.939   1.895  19.084  0.00  0.00    +0.000 C 
ATOM      8  C   UNL     1       5.230   4.022  19.095  0.00  0.00    +0.000 C 
ATOM      9  C   UNL     1       5.216   5.519  18.862  0.00  0.00    +0.000 C 
ATOM     10  O   UNL     1       6.549   5.974  18.570  0.00  0.00    +0.000 OA
ATOM     11  C   UNL     1       6.596   6.356  17.251  0.00  0.00    +0.000 C 
ATOM     12  O   UNL     1       7.529   7.026  16.801  0.00  0.00    +0.000 OA
ATOM     13  C   UNL     1       5.391   5.861  16.509  0.00  0.00    +0.000 C 
ATOM     14  C   UNL     1       4.370   5.931  17.678  0.00  0.00    +0.000 C 
ATOM     15  C   UNL     1       2.954   5.311  17.645  0.00  0.00    +0.000 C 
ATOM     16  C   UNL     1       2.729   3.911  18.287  0.00  0.00    +0.000 C 
ENDROOT
BRANCH  13  17
ATOM     17  C   UNL     1       5.639   4.493  15.829  0.00  0.00    +0.000 C 
BRANCH  17  18
ATOM     18  N   UNL     1       5.983   4.382  14.402  0.00  0.00    +0.000 NA
ATOM     19  C   UNL     1       7.192   5.136  14.065  0.00  0.00    +0.000 C 
BRANCH  18  20
ATOM     20  C   UNL     1       6.045   3.039  13.761  0.00  0.00    +0.000 C 
BRANCH  20  21
ATOM     21  C   UNL     1       5.592   2.790  12.283  0.00  0.00    +0.000 C 
BRANCH  21  22
ATOM     22  O   UNL     1       4.686   3.830  11.891  0.00  0.00    +0.000 OA
ATOM     23  C   UNL     1       3.822   3.440  10.832  0.00  0.00    +0.000 C 
ENDBRANCH  21  22
BRANCH  21  24
ATOM     24  O   UNL     1       6.724   2.829  11.394  0.00  0.00    +0.000 OA
ATOM     25  C   UNL     1       7.161   1.559  10.939  0.00  0.00    +0.000 C 
ENDBRANCH  21  24
ENDBRANCH  20  21
ENDBRANCH  18  20
ENDBRANCH  17  18
ENDBRANCH  13  17
TORSDOF 6
ENDMDL
MODEL 4
REMARK VINA RESULT:      -6.6      1.167      1.744
REMARK  Name = 
REMARK  10 active torsions:
REMARK  status: ('A' for Active; 'I' for Inactive)
REMARK    1  A    between atoms: C_6  and  C_7
REMARK    2  A    between atoms: C_13  and  C_14
REMARK    3  A    between atoms: C_14  and  N_15
REMARK    4  A    between atoms: N_15  and  C_16
REMARK    5  A    between atoms: N_15  and  C_17
REMARK    6  A    between atoms: C_17  and  C_18
REMARK    7  A    between atoms: C_18  and  O_19
REMARK    8  A    between atoms: C_18  and  O_21
REMARK    9  A    between atoms: O_19  and  C_20
REMARK   10  A    between atoms: O_21  and  C_22
REMARK                            x       y       z     vdW  Elec       q    Type
REMARK                         _______ _______ _______ _____ _____    ______ ____
ROOT
ATOM      1  C   UNL     1       0.185   3.248  19.576  0.00  0.00    +0.000 C 
ATOM      2  C   UNL     1       1.366   3.725  20.015  0.00  0.00    +0.000 C 
ATOM      3  C   UNL     1       1.670   3.495  21.481  0.00  0.00    +0.000 C 
ATOM      4  C   UNL     1       2.600   2.292  21.536  0.00  0.00    +0.000 C 
ATOM      5  C   UNL     1       3.857   2.647  20.778  0.00  0.00    +0.000 C 
ATOM      6  C   UNL     1       3.664   3.013  19.277  0.00  0.00    +0.000 C 
ATOM      7  C   UNL     1       3.228   1.815  18.391  0.00  0.00    +0.000 C 
ATOM      8  C   UNL     1       5.081   3.414  18.838  0.00  0.00    +0.000 C 
ATOM      9  C   UNL     1       5.479   4.799  19.306  0.00  0.00    +0.000 C 
ATOM     10  O   UNL     1       6.767   5.139  18.762  0.00  0.00    +0.000 OA
ATOM     11  C   UNL     1       6.593   6.137  17.833  0.00  0.00    +0.000 C 
ATOM     12  O   UNL     1       7.543   6.798  17.405  0.00  0.00    +0.000 OA
ATOM     13  C   UNL     1       5.147   6.279  17.466  0.00  0.00    +0.000 C 
ATOM     14  C   UNL     1       4.534   5.882  18.837  0.00  0.00    +0.000 C 
ATOM     15  C   UNL     1       3.035   5.583  19.075  0.00  0.00    +0.000 C 
ATOM     16  C   UNL     1       2.553   4.103  19.074  0.00  0.00    +0.000 C 
ENDROOT
BRANCH  13  17
ATOM     17  C   UNL     1       4.770   5.440  16.221  0.00  0.00    +0.000 C 
BRANCH  17  18
ATOM     18  N   UNL     1       5.789   4.774  15.393  0.00  0.00    +0.000 NA
ATOM     19  C   UNL     1       5.875   3.339  15.671  0.00  0.00    +0.000 C 
BRANCH  18  20
ATOM     20  C   UNL     1       5.800   4.992  13.920  0.00  0.00    +0.000 C 
BRANCH  20  21
ATOM     21  C   UNL     1       6.487   3.997  12.926  0.00  0.00    +0.000 C 
BRANCH  21  22
ATOM     22  O   UNL     1       5.483   3.405  12.089  0.00  0.00    +0.000 OA
ATOM     23  C   UNL     1       5.857   2.126  11.597  0.00  0.00    +0.000 C 
ENDBRANCH  21  22
BRANCH  21  24
ATOM     24  O   UNL     1       7.417   4.693  12.076  0.00  0.00    +0.000 OA
ATOM     25  C   UNL     1       8.388   5.462  12.769  0.00  0.00    +0.000 C 
ENDBRANCH  21  24
ENDBRANCH  20  21
ENDBRANCH  18  20
ENDBRANCH  17  18
ENDBRANCH  13  17
TORSDOF 6
ENDMDL
MODEL 5
REMARK VINA RESULT:      -6.6      1.745      2.786
REMARK  Name = 
REMARK  10 active torsions:
REMARK  status: ('A' for Active; 'I' for Inactive)
REMARK    1  A    between atoms: C_6  and  C_7
REMARK    2  A    between atoms: C_13  and  C_14
REMARK    3  A    between atoms: C_14  and  N_15
REMARK    4  A    between atoms: N_15  and  C_16
REMARK    5  A    between atoms: N_15  and  C_17
REMARK    6  A    between atoms: C_17  and  C_18
REMARK    7  A    between atoms: C_18  and  O_19
REMARK    8  A    between atoms: C_18  and  O_21
REMARK    9  A    between atoms: O_19  and  C_20
REMARK   10  A    between atoms: O_21  and  C_22
REMARK                            x       y       z     vdW  Elec       q    Type
REMARK                         _______ _______ _______ _____ _____    ______ ____
ROOT
ATOM      1  C   UNL     1       0.949   8.297  17.628  0.00  0.00    +0.000 C 
ATOM      2  C   UNL     1       2.035   7.867  18.299  0.00  0.00    +0.000 C 
ATOM      3  C   UNL     1       2.002   8.053  19.802  0.00  0.00    +0.000 C 
ATOM      4  C   UNL     1       1.611   6.704  20.387  0.00  0.00    +0.000 C 
ATOM      5  C   UNL     1       2.674   5.707  19.994  0.00  0.00    +0.000 C 
ATOM      6  C   UNL     1       2.883   5.504  18.464  0.00  0.00    +0.000 C 
ATOM      7  C   UNL     1       1.688   4.811  17.755  0.00  0.00    +0.000 C 
ATOM      8  C   UNL     1       4.073   4.533  18.408  0.00  0.00    +0.000 C 
ATOM      9  C   UNL     1       5.403   5.206  18.678  0.00  0.00    +0.000 C 
ATOM     10  O   UNL     1       6.469   4.256  18.497  0.00  0.00    +0.000 OA
ATOM     11  C   UNL     1       7.178   4.612  17.374  0.00  0.00    +0.000 C 
ATOM     12  O   UNL     1       8.289   4.136  17.131  0.00  0.00    +0.000 OA
ATOM     13  C   UNL     1       6.421   5.617  16.561  0.00  0.00    +0.000 C 
ATOM     14  C   UNL     1       5.700   6.345  17.729  0.00  0.00    +0.000 C 
ATOM     15  C   UNL     1       4.546   7.360  17.553  0.00  0.00    +0.000 C 
ATOM     16  C   UNL     1       3.079   6.867  17.710  0.00  0.00    +0.000 C 
ENDROOT
BRANCH  13  17
ATOM     17  C   UNL     1       5.555   4.954  15.462  0.00  0.00    +0.000 C 
BRANCH  17  18
ATOM     18  N   UNL     1       6.091   4.652  14.125  0.00  0.00    +0.000 NA
ATOM     19  C   UNL     1       7.354   5.345  13.866  0.00  0.00    +0.000 C 
BRANCH  18  20
ATOM     20  C   UNL     1       6.207   3.235  13.680  0.00  0.00    +0.000 C 
BRANCH  20  21
ATOM     21  C   UNL     1       5.586   2.719  12.340  0.00  0.00    +0.000 C 
BRANCH  21  22
ATOM     22  O   UNL     1       4.859   3.789  11.720  0.00  0.00    +0.000 OA
ATOM     23  C   UNL     1       3.731   3.337  10.984  0.00  0.00    +0.000 C 
ENDBRANCH  21  22
BRANCH  21  24
ATOM     24  O   UNL     1       6.621   2.301  11.431  0.00  0.00    +0.000 OA
ATOM     25  C   UNL     1       6.506   0.961  10.980  0.00  0.00    +0.000 C 
ENDBRANCH  21  24
ENDBRANCH  20  21
ENDBRANCH  18  20
ENDBRANCH  17  18
ENDBRANCH  13  17
TORSDOF 6
ENDMDL
MODEL 6
REMARK VINA RESULT:      -6.5      1.168      1.670
REMARK  Name = 
REMARK  10 active torsions:
REMARK  status: ('A' for Active; 'I' for Inactive)
REMARK    1  A    between atoms: C_6  and  C_7
REMARK    2  A    between atoms: C_13  and  C_14
REMARK    3  A    between atoms: C_14  and  N_15
REMARK    4  A    between atoms: N_15  and  C_16
REMARK    5  A    between atoms: N_15  and  C_17
REMARK    6  A    between atoms: C_17  and  C_18
REMARK    7  A    between atoms: C_18  and  O_19
REMARK    8  A    between atoms: C_18  and  O_21
REMARK    9  A    between atoms: O_19  and  C_20
REMARK   10  A    between atoms: O_21  and  C_22
REMARK                            x       y       z     vdW  Elec       q    Type
REMARK                         _______ _______ _______ _____ _____    ______ ____
ROOT
ATOM      1  C   UNL     1       0.301   2.585  18.444  0.00  0.00    +0.000 C 
ATOM      2  C   UNL     1       1.193   3.311  19.146  0.00  0.00    +0.000 C 
ATOM      3  C   UNL     1       0.901   3.470  20.624  0.00  0.00    +0.000 C 
ATOM      4  C   UNL     1       1.778   2.455  21.341  0.00  0.00    +0.000 C 
ATOM      5  C   UNL     1       3.217   2.796  21.040  0.00  0.00    +0.000 C 
ATOM      6  C   UNL     1       3.620   2.774  19.536  0.00  0.00    +0.000 C 
ATOM      7  C   UNL     1       3.616   1.354  18.907  0.00  0.00    +0.000 C 
ATOM      8  C   UNL     1       5.079   3.256  19.567  0.00  0.00    +0.000 C 
ATOM      9  C   UNL     1       5.207   4.753  19.760  0.00  0.00    +0.000 C 
ATOM     10  O   UNL     1       6.592   5.134  19.665  0.00  0.00    +0.000 OA
ATOM     11  C   UNL     1       6.762   5.856  18.508  0.00  0.00    +0.000 C 
ATOM     12  O   UNL     1       7.778   6.525  18.304  0.00  0.00    +0.000 OA
ATOM     13  C   UNL     1       5.575   5.707  17.605  0.00  0.00    +0.000 C 
ATOM     14  C   UNL     1       4.485   5.556  18.702  0.00  0.00    +0.000 C 
ATOM     15  C   UNL     1       3.026   5.114  18.435  0.00  0.00    +0.000 C 
ATOM     16  C   UNL     1       2.640   3.622  18.651  0.00  0.00    +0.000 C 
ENDROOT
BRANCH  13  17
ATOM     17  C   UNL     1       5.754   4.558  16.583  0.00  0.00    +0.000 C 
BRANCH  17  18
ATOM     18  N   UNL     1       5.700   4.792  15.131  0.00  0.00    +0.000 NA
ATOM     19  C   UNL     1       5.323   6.169  14.806  0.00  0.00    +0.000 C 
BRANCH  18  20
ATOM     20  C   UNL     1       6.849   4.382  14.275  0.00  0.00    +0.000 C 
BRANCH  20  21
ATOM     21  C   UNL     1       6.667   3.533  12.972  0.00  0.00    +0.000 C 
BRANCH  21  22
ATOM     22  O   UNL     1       5.309   3.079  12.896  0.00  0.00    +0.000 OA
ATOM     23  C   UNL     1       4.664   3.462  11.690  0.00  0.00    +0.000 C 
ENDBRANCH  21  22
BRANCH  21  24
ATOM     24  O   UNL     1       6.932   4.335  11.806  0.00  0.00    +0.000 OA
ATOM     25  C   UNL     1       7.779   5.450  12.036  0.00  0.00    +0.000 C 
ENDBRANCH  21  24
ENDBRANCH  20  21
ENDBRANCH  18  20
ENDBRANCH  17  18
ENDBRANCH  13  17
TORSDOF 6
ENDMDL
MODEL 7
REMARK VINA RESULT:      -6.4      2.400      3.669
REMARK  Name = 
REMARK  10 active torsions:
REMARK  status: ('A' for Active; 'I' for Inactive)
REMARK    1  A    between atoms: C_6  and  C_7
REMARK    2  A    between atoms: C_13  and  C_14
REMARK    3  A    between atoms: C_14  and  N_15
REMARK    4  A    between atoms: N_15  and  C_16
REMARK    5  A    between atoms: N_15  and  C_17
REMARK    6  A    between atoms: C_17  and  C_18
REMARK    7  A    between atoms: C_18  and  O_19
REMARK    8  A    between atoms: C_18  and  O_21
REMARK    9  A    between atoms: O_19  and  C_20
REMARK   10  A    between atoms: O_21  and  C_22
REMARK                            x       y       z     vdW  Elec       q    Type
REMARK                         _______ _______ _______ _____ _____    ______ ____
ROOT
ATOM      1  C   UNL     1       2.914   1.464  18.155  0.00  0.00    +0.000 C 
ATOM      2  C   UNL     1       2.201   2.519  18.595  0.00  0.00    +0.000 C 
ATOM      3  C   UNL     1       1.099   2.206  19.586  0.00  0.00    +0.000 C 
ATOM      4  C   UNL     1       1.661   2.533  20.961  0.00  0.00    +0.000 C 
ATOM      5  C   UNL     1       1.998   4.004  20.983  0.00  0.00    +0.000 C 
ATOM      6  C   UNL     1       3.045   4.476  19.931  0.00  0.00    +0.000 C 
ATOM      7  C   UNL     1       4.479   3.939  20.191  0.00  0.00    +0.000 C 
ATOM      8  C   UNL     1       3.082   5.997  20.145  0.00  0.00    +0.000 C 
ATOM      9  C   UNL     1       1.892   6.712  19.538  0.00  0.00    +0.000 C 
ATOM     10  O   UNL     1       2.058   8.134  19.685  0.00  0.00    +0.000 OA
ATOM     11  C   UNL     1       2.278   8.673  18.439  0.00  0.00    +0.000 C 
ATOM     12  O   UNL     1       2.194   9.886  18.233  0.00  0.00    +0.000 OA
ATOM     13  C   UNL     1       2.604   7.601  17.444  0.00  0.00    +0.000 C 
ATOM     14  C   UNL     1       1.739   6.464  18.055  0.00  0.00    +0.000 C 
ATOM     15  C   UNL     1       1.817   4.978  17.634  0.00  0.00    +0.000 C 
ATOM     16  C   UNL     1       2.681   4.000  18.481  0.00  0.00    +0.000 C 
ENDROOT
BRANCH  13  17
ATOM     17  C   UNL     1       4.129   7.371  17.304  0.00  0.00    +0.000 C 
BRANCH  17  18
ATOM     18  N   UNL     1       4.683   6.343  16.408  0.00  0.00    +0.000 NA
ATOM     19  C   UNL     1       5.096   6.900  15.118  0.00  0.00    +0.000 C 
BRANCH  18  20
ATOM     20  C   UNL     1       5.740   5.421  16.908  0.00  0.00    +0.000 C 
BRANCH  20  21
ATOM     21  C   UNL     1       6.836   4.808  15.972  0.00  0.00    +0.000 C 
BRANCH  21  22
ATOM     22  O   UNL     1       7.939   4.365  16.774  0.00  0.00    +0.000 OA
ATOM     23  C   UNL     1       7.810   4.729  18.142  0.00  0.00    +0.000 C 
ENDBRANCH  21  22
BRANCH  21  24
ATOM     24  O   UNL     1       6.315   3.668  15.264  0.00  0.00    +0.000 OA
ATOM     25  C   UNL     1       6.216   3.840  13.859  0.00  0.00    +0.000 C 
ENDBRANCH  21  24
ENDBRANCH  20  21
ENDBRANCH  18  20
ENDBRANCH  17  18
ENDBRANCH  13  17
TORSDOF 6
ENDMDL
MODEL 8
REMARK VINA RESULT:      -6.3      2.606      4.233
REMARK  Name = 
REMARK  10 active torsions:
REMARK  status: ('A' for Active; 'I' for Inactive)
REMARK    1  A    between atoms: C_6  and  C_7
REMARK    2  A    between atoms: C_13  and  C_14
REMARK    3  A    between atoms: C_14  and  N_15
REMARK    4  A    between atoms: N_15  and  C_16
REMARK    5  A    between atoms: N_15  and  C_17
REMARK    6  A    between atoms: C_17  and  C_18
REMARK    7  A    between atoms: C_18  and  O_19
REMARK    8  A    between atoms: C_18  and  O_21
REMARK    9  A    between atoms: O_19  and  C_20
REMARK   10  A    between atoms: O_21  and  C_22
REMARK                            x       y       z     vdW  Elec       q    Type
REMARK                         _______ _______ _______ _____ _____    ______ ____
ROOT
ATOM      1  C   UNL     1       3.414   1.618  17.980  0.00  0.00    +0.000 C 
ATOM      2  C   UNL     1       2.566   2.579  18.395  0.00  0.00    +0.000 C 
ATOM      3  C   UNL     1       1.399   2.112  19.240  0.00  0.00    +0.000 C 
ATOM      4  C   UNL     1       1.782   2.397  20.685  0.00  0.00    +0.000 C 
ATOM      5  C   UNL     1       1.981   3.887  20.822  0.00  0.00    +0.000 C 
ATOM      6  C   UNL     1       3.086   4.511  19.920  0.00  0.00    +0.000 C 
ATOM      7  C   UNL     1       4.527   4.081  20.306  0.00  0.00    +0.000 C 
ATOM      8  C   UNL     1       2.962   6.013  20.218  0.00  0.00    +0.000 C 
ATOM      9  C   UNL     1       1.782   6.663  19.524  0.00  0.00    +0.000 C 
ATOM     10  O   UNL     1       1.803   8.082  19.764  0.00  0.00    +0.000 OA
ATOM     11  C   UNL     1       2.103   8.715  18.581  0.00  0.00    +0.000 C 
ATOM     12  O   UNL     1       1.932   9.927  18.432  0.00  0.00    +0.000 OA
ATOM     13  C   UNL     1       2.627   7.739  17.571  0.00  0.00    +0.000 C 
ATOM     14  C   UNL     1       1.809   6.498  18.021  0.00  0.00    +0.000 C 
ATOM     15  C   UNL     1       2.065   5.053  17.531  0.00  0.00    +0.000 C 
ATOM     16  C   UNL     1       2.920   4.099  18.414  0.00  0.00    +0.000 C 
ENDROOT
BRANCH  13  17
ATOM     17  C   UNL     1       4.173   7.647  17.588  0.00  0.00    +0.000 C 
BRANCH  17  18
ATOM     18  N   UNL     1       4.899   6.601  16.850  0.00  0.00    +0.000 NA
ATOM     19  C   UNL     1       4.882   6.830  15.405  0.00  0.00    +0.000 C 
BRANCH  18  20
ATOM     20  C   UNL     1       6.276   6.222  17.273  0.00  0.00    +0.000 C 
BRANCH  20  21
ATOM     21  C   UNL     1       6.789   4.743  17.248  0.00  0.00    +0.000 C 
BRANCH  21  22
ATOM     22  O   UNL     1       7.462   4.504  16.005  0.00  0.00    +0.000 OA
ATOM     23  C   UNL     1       6.624   3.903  15.028  0.00  0.00    +0.000 C 
ENDBRANCH  21  22
BRANCH  21  24
ATOM     24  O   UNL     1       7.730   4.517  18.313  0.00  0.00    +0.000 OA
ATOM     25  C   UNL     1       7.901   5.616  19.194  0.00  0.00    +0.000 C 
ENDBRANCH  21  24
ENDBRANCH  20  21
ENDBRANCH  18  20
ENDBRANCH  17  18
ENDBRANCH  13  17
TORSDOF 6
ENDMDL
MODEL 9
REMARK VINA RESULT:      -6.2      2.922      6.075
REMARK  Name = 
REMARK  10 active torsions:
REMARK  status: ('A' for Active; 'I' for Inactive)
REMARK    1  A    between atoms: C_6  and  C_7
REMARK    2  A    between atoms: C_13  and  C_14
REMARK    3  A    between atoms: C_14  and  N_15
REMARK    4  A    between atoms: N_15  and  C_16
REMARK    5  A    between atoms: N_15  and  C_17
REMARK    6  A    between atoms: C_17  and  C_18
REMARK    7  A    between atoms: C_18  and  O_19
REMARK    8  A    between atoms: C_18  and  O_21
REMARK    9  A    between atoms: O_19  and  C_20
REMARK   10  A    between atoms: O_21  and  C_22
REMARK                            x       y       z     vdW  Elec       q    Type
REMARK                         _______ _______ _______ _____ _____    ______ ____
ROOT
ATOM      1  C   UNL     1       2.536   4.262  21.285  0.00  0.00    +0.000 C 
ATOM      2  C   UNL     1       2.990   3.731  20.133  0.00  0.00    +0.000 C 
ATOM      3  C   UNL     1       2.264   2.497  19.640  0.00  0.00    +0.000 C 
ATOM      4  C   UNL     1       1.300   2.975  18.564  0.00  0.00    +0.000 C 
ATOM      5  C   UNL     1       2.117   3.593  17.456  0.00  0.00    +0.000 C 
ATOM      6  C   UNL     1       2.998   4.811  17.860  0.00  0.00    +0.000 C 
ATOM      7  C   UNL     1       2.182   6.078  18.236  0.00  0.00    +0.000 C 
ATOM      8  C   UNL     1       3.760   5.127  16.563  0.00  0.00    +0.000 C 
ATOM      9  C   UNL     1       4.901   4.168  16.295  0.00  0.00    +0.000 C 
ATOM     10  O   UNL     1       5.627   4.597  15.129  0.00  0.00    +0.000 OA
ATOM     11  C   UNL     1       6.865   5.041  15.531  0.00  0.00    +0.000 C 
ATOM     12  O   UNL     1       7.783   5.219  14.727  0.00  0.00    +0.000 OA
ATOM     13  C   UNL     1       6.903   5.245  17.015  0.00  0.00    +0.000 C 
ATOM     14  C   UNL     1       5.914   4.116  17.417  0.00  0.00    +0.000 C 
ATOM     15  C   UNL     1       5.309   3.939  18.829  0.00  0.00    +0.000 C 
ATOM     16  C   UNL     1       3.888   4.504  19.116  0.00  0.00    +0.000 C 
ENDROOT
BRANCH  13  17
ATOM     17  C   UNL     1       6.561   6.700  17.419  0.00  0.00    +0.000 C 
BRANCH  17  18
ATOM     18  N   UNL     1       7.441   7.494  18.291  0.00  0.00    +0.000 NA
ATOM     19  C   UNL     1       8.351   6.653  19.071  0.00  0.00    +0.000 C 
BRANCH  18  20
ATOM     20  C   UNL     1       8.198   8.645  17.724  0.00  0.00    +0.000 C 
BRANCH  20  21
ATOM     21  C   UNL     1       8.270  10.038  18.434  0.00  0.00    +0.000 C 
BRANCH  21  22
ATOM     22  O   UNL     1       9.549  10.173  19.068  0.00  0.00    +0.000 OA
ATOM     23  C   UNL     1       9.461  10.707  20.382  0.00  0.00    +0.000 C 
ENDBRANCH  21  22
BRANCH  21  24
ATOM     24  O   UNL     1       8.136  11.102  17.473  0.00  0.00    +0.000 OA
ATOM     25  C   UNL     1       8.922  12.250  17.750  0.00  0.00    +0.000 C 
ENDBRANCH  21  24
ENDBRANCH  20  21
ENDBRANCH  18  20
ENDBRANCH  17  18
ENDBRANCH  13  17
TORSDOF 6
ENDMDL
