MODEL 1
REMARK VINA RESULT:      -8.6      0.000      0.000
REMARK  Name = 
REMARK  5 active torsions:
REMARK  status: ('A' for Active; 'I' for Inactive)
REMARK    1  A    between atoms: C_1  and  O_2
REMARK    2  A    between atoms: O_2  and  C_3
REMARK    3  A    between atoms: C_6  and  C_7
REMARK    4  A    between atoms: C_12  and  C_14
REMARK    5  A    between atoms: C_14  and  N_15
REMARK                            x       y       z     vdW  Elec       q    Type
REMARK                         _______ _______ _______ _____ _____    ______ ____
ROOT
ATOM      1  C   UNL     1       1.222   8.922  19.964  0.00  0.00    +0.000 A 
ATOM      2  C   UNL     1       1.575   9.365  18.702  0.00  0.00    +0.000 A 
ATOM      3  S   UNL     1       2.573   8.189  17.932  0.00  0.00    +0.000 S 
ATOM      4  C   UNL     1       2.374   7.167  19.283  0.00  0.00    +0.000 A 
ATOM      5  N   UNL     1       2.979   5.940  19.190  0.00  0.00    +0.000 N 
ATOM      6  C   UNL     1       2.753   4.966  20.150  0.00  0.00    +0.000 C 
ATOM      7  O   UNL     1       2.044   5.083  21.146  0.00  0.00    +0.000 OA
ATOM      8  N   UNL     1       1.667   7.646  20.265  0.00  0.00    +0.000 NA
ATOM      9  H   UNL     1       3.590   5.780  18.403  0.00  0.00    +0.000 HD
ENDROOT
BRANCH   1  13
ATOM     10  C   UNL     1      -1.209  11.093  22.730  0.00  0.00    +0.000 A 
ATOM     11  C   UNL     1      -1.024  11.551  21.427  0.00  0.00    +0.000 A 
ATOM     12  C   UNL     1      -0.216  10.840  20.536  0.00  0.00    +0.000 A 
ATOM     13  C   UNL     1       0.443   9.670  20.942  0.00  0.00    +0.000 A 
ATOM     14  C   UNL     1       0.276   9.232  22.262  0.00  0.00    +0.000 A 
ATOM     15  C   UNL     1      -0.546   9.940  23.151  0.00  0.00    +0.000 A 
BRANCH  10  17
ATOM     16  C   UNL     1      -3.150  12.434  22.838  0.00  0.00    +0.000 C 
ATOM     17  O   UNL     1      -2.033  11.860  23.506  0.00  0.00    +0.000 OA
ENDBRANCH  10  17
ENDBRANCH   1  13
BRANCH   6  18
ATOM     18  C   UNL     1       3.566   3.686  19.938  0.00  0.00    +0.000 C 
BRANCH  18  19
ATOM     19  N   UNL     1       4.412   3.933  18.783  0.00  0.00    +0.000 N 
ATOM     20  C   UNL     1       5.641   4.503  18.878  0.00  0.00    +0.000 C 
ATOM     21  O   UNL     1       6.117   4.988  19.896  0.00  0.00    +0.000 OA
ATOM     22  C   UNL     1       6.352   4.362  17.552  0.00  0.00    +0.000 C 
ATOM     23  C   UNL     1       7.058   5.642  17.113  0.00  0.00    +0.000 C 
ATOM     24  C   UNL     1       6.579   6.257  15.839  0.00  0.00    +0.000 C 
ATOM     25  C   UNL     1       5.676   5.701  15.029  0.00  0.00    +0.000 C 
ATOM     26  C   UNL     1       5.015   4.386  15.278  0.00  0.00    +0.000 C 
ATOM     27  C   UNL     1       5.297   3.738  16.631  0.00  0.00    +0.000 C 
ATOM     28  C   UNL     1       4.063   3.631  17.503  0.00  0.00    +0.000 C 
ATOM     29  O   UNL     1       2.952   3.305  17.111  0.00  0.00    +0.000 OA
ENDBRANCH  18  19
ENDBRANCH   6  18
TORSDOF 4
ENDMDL
MODEL 2
REMARK VINA RESULT:      -8.5      0.928      1.933
REMARK  Name = 
REMARK  5 active torsions:
REMARK  status: ('A' for Active; 'I' for Inactive)
REMARK    1  A    between atoms: C_1  and  O_2
REMARK    2  A    between atoms: O_2  and  C_3
REMARK    3  A    between atoms: C_6  and  C_7
REMARK    4  A    between atoms: C_12  and  C_14
REMARK    5  A    between atoms: C_14  and  N_15
REMARK                            x       y       z     vdW  Elec       q    Type
REMARK                         _______ _______ _______ _____ _____    ______ ____
ROOT
ATOM      1  C   UNL     1       0.786   9.629  20.019  0.00  0.00    +0.000 A 
ATOM      2  C   UNL     1       1.068  10.087  18.745  0.00  0.00    +0.000 A 
ATOM      3  S   UNL     1       2.077   8.951  17.930  0.00  0.00    +0.000 S 
ATOM      4  C   UNL     1       1.974   7.920  19.285  0.00  0.00    +0.000 A 
ATOM      5  N   UNL     1       2.620   6.717  19.163  0.00  0.00    +0.000 N 
ATOM      6  C   UNL     1       2.472   5.734  20.127  0.00  0.00    +0.000 C 
ATOM      7  O   UNL     1       1.802   5.823  21.153  0.00  0.00    +0.000 OA
ATOM      8  N   UNL     1       1.291   8.371  20.297  0.00  0.00    +0.000 NA
ATOM      9  H   UNL     1       3.204   6.582  18.350  0.00  0.00    +0.000 HD
ENDROOT
BRANCH   1  13
ATOM     10  C   UNL     1      -1.598  11.732  22.876  0.00  0.00    +0.000 A 
ATOM     11  C   UNL     1      -1.299  12.299  21.639  0.00  0.00    +0.000 A 
ATOM     12  C   UNL     1      -0.507  11.607  20.718  0.00  0.00    +0.000 A 
ATOM     13  C   UNL     1       0.021  10.346  21.031  0.00  0.00    +0.000 A 
ATOM     14  C   UNL     1      -0.259   9.796  22.288  0.00  0.00    +0.000 A 
ATOM     15  C   UNL     1      -1.066  10.485  23.206  0.00  0.00    +0.000 A 
BRANCH  10  17
ATOM     16  C   UNL     1      -3.755  12.600  23.289  0.00  0.00    +0.000 C 
ATOM     17  O   UNL     1      -2.395  12.491  23.688  0.00  0.00    +0.000 OA
ENDBRANCH  10  17
ENDBRANCH   1  13
BRANCH   6  18
ATOM     18  C   UNL     1       3.323   4.486  19.877  0.00  0.00    +0.000 C 
BRANCH  18  19
ATOM     19  N   UNL     1       4.155   4.790  18.726  0.00  0.00    +0.000 N 
ATOM     20  C   UNL     1       3.720   4.655  17.446  0.00  0.00    +0.000 C 
ATOM     21  O   UNL     1       2.658   4.149  17.111  0.00  0.00    +0.000 OA
ATOM     22  C   UNL     1       4.718   5.308  16.517  0.00  0.00    +0.000 C 
ATOM     23  C   UNL     1       5.028   4.462  15.285  0.00  0.00    +0.000 C 
ATOM     24  C   UNL     1       6.445   4.014  15.132  0.00  0.00    +0.000 C 
ATOM     25  C   UNL     1       7.446   4.398  15.927  0.00  0.00    +0.000 C 
ATOM     26  C   UNL     1       7.295   5.331  17.082  0.00  0.00    +0.000 C 
ATOM     27  C   UNL     1       5.865   5.728  17.443  0.00  0.00    +0.000 C 
ATOM     28  C   UNL     1       5.441   5.228  18.808  0.00  0.00    +0.000 C 
ATOM     29  O   UNL     1       6.140   5.241  19.810  0.00  0.00    +0.000 OA
ENDBRANCH  18  19
ENDBRANCH   6  18
TORSDOF 4
ENDMDL
MODEL 3
REMARK VINA RESULT:      -7.8      2.658      4.485
REMARK  Name = 
REMARK  5 active torsions:
REMARK  status: ('A' for Active; 'I' for Inactive)
REMARK    1  A    between atoms: C_1  and  O_2
REMARK    2  A    between atoms: O_2  and  C_3
REMARK    3  A    between atoms: C_6  and  C_7
REMARK    4  A    between atoms: C_12  and  C_14
REMARK    5  A    between atoms: C_14  and  N_15
REMARK                            x       y       z     vdW  Elec       q    Type
REMARK                         _______ _______ _______ _____ _____    ______ ____
ROOT
ATOM      1  C   UNL     1       0.995   9.775  19.910  0.00  0.00    +0.000 A 
ATOM      2  C   UNL     1       0.749   9.146  21.116  0.00  0.00    +0.000 A 
ATOM      3  S   UNL     1       1.351   7.532  21.063  0.00  0.00    +0.000 S 
ATOM      4  C   UNL     1       1.962   7.835  19.499  0.00  0.00    +0.000 A 
ATOM      5  N   UNL     1       2.655   6.800  18.925  0.00  0.00    +0.000 N 
ATOM      6  C   UNL     1       3.335   6.981  17.731  0.00  0.00    +0.000 C 
ATOM      7  O   UNL     1       3.381   8.019  17.076  0.00  0.00    +0.000 OA
ATOM      8  N   UNL     1       1.718   9.014  19.007  0.00  0.00    +0.000 NA
ATOM      9  H   UNL     1       2.644   5.911  19.402  0.00  0.00    +0.000 HD
ENDROOT
BRANCH   1  13
ATOM     10  C   UNL     1      -0.084  13.754  18.778  0.00  0.00    +0.000 A 
ATOM     11  C   UNL     1       0.979  13.521  19.648  0.00  0.00    +0.000 A 
ATOM     12  C   UNL     1       1.314  12.217  20.021  0.00  0.00    +0.000 A 
ATOM     13  C   UNL     1       0.573  11.123  19.551  0.00  0.00    +0.000 A 
ATOM     14  C   UNL     1      -0.514  11.367  18.701  0.00  0.00    +0.000 A 
ATOM     15  C   UNL     1      -0.840  12.675  18.316  0.00  0.00    +0.000 A 
BRANCH  10  17
ATOM     16  C   UNL     1       0.733  15.969  18.821  0.00  0.00    +0.000 C 
ATOM     17  O   UNL     1      -0.309  15.067  18.470  0.00  0.00    +0.000 OA
ENDBRANCH  10  17
ENDBRANCH   1  13
BRANCH   6  18
ATOM     18  C   UNL     1       3.987   5.706  17.189  0.00  0.00    +0.000 C 
BRANCH  18  19
ATOM     19  N   UNL     1       3.515   4.622  18.034  0.00  0.00    +0.000 N 
ATOM     20  C   UNL     1       2.246   4.142  17.976  0.00  0.00    +0.000 C 
ATOM     21  O   UNL     1       1.333   4.635  17.326  0.00  0.00    +0.000 OA
ATOM     22  C   UNL     1       2.169   2.860  18.772  0.00  0.00    +0.000 C 
ATOM     23  C   UNL     1       0.933   2.782  19.663  0.00  0.00    +0.000 C 
ATOM     24  C   UNL     1       1.183   2.694  21.133  0.00  0.00    +0.000 C 
ATOM     25  C   UNL     1       2.391   2.566  21.684  0.00  0.00    +0.000 C 
ATOM     26  C   UNL     1       3.666   2.490  20.912  0.00  0.00    +0.000 C 
ATOM     27  C   UNL     1       3.558   2.737  19.409  0.00  0.00    +0.000 C 
ATOM     28  C   UNL     1       4.282   3.989  18.962  0.00  0.00    +0.000 C 
ATOM     29  O   UNL     1       5.380   4.347  19.362  0.00  0.00    +0.000 OA
ENDBRANCH  18  19
ENDBRANCH   6  18
TORSDOF 4
ENDMDL
MODEL 4
REMARK VINA RESULT:      -7.8      3.377      4.951
REMARK  Name = 
REMARK  5 active torsions:
REMARK  status: ('A' for Active; 'I' for Inactive)
REMARK    1  A    between atoms: C_1  and  O_2
REMARK    2  A    between atoms: O_2  and  C_3
REMARK    3  A    between atoms: C_6  and  C_7
REMARK    4  A    between atoms: C_12  and  C_14
REMARK    5  A    between atoms: C_14  and  N_15
REMARK                            x       y       z     vdW  Elec       q    Type
REMARK                         _______ _______ _______ _____ _____    ______ ____
ROOT
ATOM      1  C   UNL     1      -0.809  11.310  18.503  0.00  0.00    +0.000 A 
ATOM      2  C   UNL     1      -0.128  12.446  18.900  0.00  0.00    +0.000 A 
ATOM      3  S   UNL     1       1.549  12.087  19.077  0.00  0.00    +0.000 S 
ATOM      4  C   UNL     1       1.244  10.501  18.527  0.00  0.00    +0.000 A 
ATOM      5  N   UNL     1       2.346   9.693  18.411  0.00  0.00    +0.000 N 
ATOM      6  C   UNL     1       2.248   8.443  17.823  0.00  0.00    +0.000 C 
ATOM      7  O   UNL     1       1.223   7.931  17.379  0.00  0.00    +0.000 OA
ATOM      8  N   UNL     1       0.002  10.213  18.267  0.00  0.00    +0.000 NA
ATOM      9  H   UNL     1       3.221  10.044  18.772  0.00  0.00    +0.000 HD
ENDROOT
BRANCH   1  13
ATOM     10  C   UNL     1      -5.041  11.169  17.918  0.00  0.00    +0.000 A 
ATOM     11  C   UNL     1      -4.483  11.968  18.914  0.00  0.00    +0.000 A 
ATOM     12  C   UNL     1      -3.099  11.995  19.105  0.00  0.00    +0.000 A 
ATOM     13  C   UNL     1      -2.250  11.203  18.318  0.00  0.00    +0.000 A 
ATOM     14  C   UNL     1      -2.821  10.379  17.338  0.00  0.00    +0.000 A 
ATOM     15  C   UNL     1      -4.209  10.364  17.139  0.00  0.00    +0.000 A 
BRANCH  10  17
ATOM     16  C   UNL     1      -6.937  12.524  17.535  0.00  0.00    +0.000 C 
ATOM     17  O   UNL     1      -6.403  11.235  17.812  0.00  0.00    +0.000 OA
ENDBRANCH  10  17
ENDBRANCH   1  13
BRANCH   6  18
ATOM     18  C   UNL     1       3.553   7.642  17.846  0.00  0.00    +0.000 C 
BRANCH  18  19
ATOM     19  N   UNL     1       3.232   6.368  18.468  0.00  0.00    +0.000 N 
ATOM     20  C   UNL     1       3.516   5.173  17.890  0.00  0.00    +0.000 C 
ATOM     21  O   UNL     1       3.940   5.023  16.751  0.00  0.00    +0.000 OA
ATOM     22  C   UNL     1       3.309   4.074  18.906  0.00  0.00    +0.000 C 
ATOM     23  C   UNL     1       2.563   2.869  18.339  0.00  0.00    +0.000 C 
ATOM     24  C   UNL     1       1.246   2.552  18.969  0.00  0.00    +0.000 C 
ATOM     25  C   UNL     1       0.757   3.173  20.045  0.00  0.00    +0.000 C 
ATOM     26  C   UNL     1       1.455   4.273  20.772  0.00  0.00    +0.000 C 
ATOM     27  C   UNL     1       2.734   4.802  20.126  0.00  0.00    +0.000 C 
ATOM     28  C   UNL     1       2.615   6.242  19.674  0.00  0.00    +0.000 C 
ATOM     29  O   UNL     1       2.072   7.135  20.308  0.00  0.00    +0.000 OA
ENDBRANCH  18  19
ENDBRANCH   6  18
TORSDOF 4
ENDMDL
MODEL 5
REMARK VINA RESULT:      -7.7      3.225      4.825
REMARK  Name = 
REMARK  5 active torsions:
REMARK  status: ('A' for Active; 'I' for Inactive)
REMARK    1  A    between atoms: C_1  and  O_2
REMARK    2  A    between atoms: O_2  and  C_3
REMARK    3  A    between atoms: C_6  and  C_7
REMARK    4  A    between atoms: C_12  and  C_14
REMARK    5  A    between atoms: C_14  and  N_15
REMARK                            x       y       z     vdW  Elec       q    Type
REMARK                         _______ _______ _______ _____ _____    ______ ____
ROOT
ATOM      1  C   UNL     1      -0.625  11.328  18.497  0.00  0.00    +0.000 A 
ATOM      2  C   UNL     1       0.105  12.454  18.831  0.00  0.00    +0.000 A 
ATOM      3  S   UNL     1       1.777  12.050  18.945  0.00  0.00    +0.000 S 
ATOM      4  C   UNL     1       1.403  10.459  18.455  0.00  0.00    +0.000 A 
ATOM      5  N   UNL     1       2.476   9.617  18.315  0.00  0.00    +0.000 N 
ATOM      6  C   UNL     1       2.316   8.354  17.767  0.00  0.00    +0.000 C 
ATOM      7  O   UNL     1       1.258   7.861  17.384  0.00  0.00    +0.000 OA
ATOM      8  N   UNL     1       0.143  10.201  18.258  0.00  0.00    +0.000 NA
ATOM      9  H   UNL     1       3.376   9.952  18.627  0.00  0.00    +0.000 HD
ENDROOT
BRANCH   1  13
ATOM     10  C   UNL     1      -4.874  10.957  18.216  0.00  0.00    +0.000 A 
ATOM     11  C   UNL     1      -4.033  10.108  17.500  0.00  0.00    +0.000 A 
ATOM     12  C   UNL     1      -2.645  10.248  17.589  0.00  0.00    +0.000 A 
ATOM     13  C   UNL     1      -2.075  11.258  18.378  0.00  0.00    +0.000 A 
ATOM     14  C   UNL     1      -2.928  12.127  19.072  0.00  0.00    +0.000 A 
ATOM     15  C   UNL     1      -4.320  11.976  18.991  0.00  0.00    +0.000 A 
BRANCH  10  17
ATOM     16  C   UNL     1      -7.009  10.925  19.224  0.00  0.00    +0.000 C 
ATOM     17  O   UNL     1      -6.212  10.716  18.065  0.00  0.00    +0.000 OA
ENDBRANCH  10  17
ENDBRANCH   1  13
BRANCH   6  18
ATOM     18  C   UNL     1       3.597   7.515  17.757  0.00  0.00    +0.000 C 
BRANCH  18  19
ATOM     19  N   UNL     1       3.264   6.263  18.413  0.00  0.00    +0.000 N 
ATOM     20  C   UNL     1       3.514   5.049  17.855  0.00  0.00    +0.000 C 
ATOM     21  O   UNL     1       3.912   4.866  16.713  0.00  0.00    +0.000 OA
ATOM     22  C   UNL     1       3.304   3.977  18.899  0.00  0.00    +0.000 C 
ATOM     23  C   UNL     1       2.524   2.775  18.373  0.00  0.00    +0.000 C 
ATOM     24  C   UNL     1       1.214   2.498  19.035  0.00  0.00    +0.000 C 
ATOM     25  C   UNL     1       0.758   3.152  20.106  0.00  0.00    +0.000 C 
ATOM     26  C   UNL     1       1.491   4.254  20.795  0.00  0.00    +0.000 C 
ATOM     27  C   UNL     1       2.767   4.743  20.114  0.00  0.00    +0.000 C 
ATOM     28  C   UNL     1       2.668   6.175  19.633  0.00  0.00    +0.000 C 
ATOM     29  O   UNL     1       2.155   7.092  20.257  0.00  0.00    +0.000 OA
ENDBRANCH  18  19
ENDBRANCH   6  18
TORSDOF 4
ENDMDL
MODEL 6
REMARK VINA RESULT:      -7.6      0.875      1.252
REMARK  Name = 
REMARK  5 active torsions:
REMARK  status: ('A' for Active; 'I' for Inactive)
REMARK    1  A    between atoms: C_1  and  O_2
REMARK    2  A    between atoms: O_2  and  C_3
REMARK    3  A    between atoms: C_6  and  C_7
REMARK    4  A    between atoms: C_12  and  C_14
REMARK    5  A    between atoms: C_14  and  N_15
REMARK                            x       y       z     vdW  Elec       q    Type
REMARK                         _______ _______ _______ _____ _____    ______ ____
ROOT
ATOM      1  C   UNL     1       1.218   9.384  19.162  0.00  0.00    +0.000 A 
ATOM      2  C   UNL     1       1.835   9.717  17.970  0.00  0.00    +0.000 A 
ATOM      3  S   UNL     1       2.924   8.462  17.510  0.00  0.00    +0.000 S 
ATOM      4  C   UNL     1       2.418   7.556  18.863  0.00  0.00    +0.000 A 
ATOM      5  N   UNL     1       2.983   6.313  18.987  0.00  0.00    +0.000 N 
ATOM      6  C   UNL     1       2.532   5.424  19.950  0.00  0.00    +0.000 C 
ATOM      7  O   UNL     1       1.642   5.636  20.769  0.00  0.00    +0.000 OA
ATOM      8  N   UNL     1       1.546   8.127  19.642  0.00  0.00    +0.000 NA
ATOM      9  H   UNL     1       3.735   6.078  18.356  0.00  0.00    +0.000 HD
ENDROOT
BRANCH   1  13
ATOM     10  C   UNL     1      -1.385  11.969  21.356  0.00  0.00    +0.000 A 
ATOM     11  C   UNL     1      -0.260  11.409  21.957  0.00  0.00    +0.000 A 
ATOM     12  C   UNL     1       0.576  10.555  21.233  0.00  0.00    +0.000 A 
ATOM     13  C   UNL     1       0.286  10.225  19.901  0.00  0.00    +0.000 A 
ATOM     14  C   UNL     1      -0.864  10.767  19.313  0.00  0.00    +0.000 A 
ATOM     15  C   UNL     1      -1.694  11.635  20.036  0.00  0.00    +0.000 A 
BRANCH  10  17
ATOM     16  C   UNL     1      -1.492  13.205  23.365  0.00  0.00    +0.000 C 
ATOM     17  O   UNL     1      -2.119  12.802  22.154  0.00  0.00    +0.000 OA
ENDBRANCH  10  17
ENDBRANCH   1  13
BRANCH   6  18
ATOM     18  C   UNL     1       3.323   4.114  20.004  0.00  0.00    +0.000 C 
BRANCH  18  19
ATOM     19  N   UNL     1       4.233   4.146  18.871  0.00  0.00    +0.000 N 
ATOM     20  C   UNL     1       5.518   4.575  18.969  0.00  0.00    +0.000 C 
ATOM     21  O   UNL     1       6.013   5.098  19.958  0.00  0.00    +0.000 OA
ATOM     22  C   UNL     1       6.252   4.222  17.696  0.00  0.00    +0.000 C 
ATOM     23  C   UNL     1       7.122   5.361  17.172  0.00  0.00    +0.000 C 
ATOM     24  C   UNL     1       6.765   5.899  15.826  0.00  0.00    +0.000 C 
ATOM     25  C   UNL     1       5.830   5.376  15.030  0.00  0.00    +0.000 C 
ATOM     26  C   UNL     1       5.007   4.178  15.370  0.00  0.00    +0.000 C 
ATOM     27  C   UNL     1       5.161   3.638  16.790  0.00  0.00    +0.000 C 
ATOM     28  C   UNL     1       3.894   3.762  17.610  0.00  0.00    +0.000 C 
ATOM     29  O   UNL     1       2.766   3.531  17.201  0.00  0.00    +0.000 OA
ENDBRANCH  18  19
ENDBRANCH   6  18
TORSDOF 4
ENDMDL
MODEL 7
REMARK VINA RESULT:      -7.6      3.386      4.835
REMARK  Name = 
REMARK  5 active torsions:
REMARK  status: ('A' for Active; 'I' for Inactive)
REMARK    1  A    between atoms: C_1  and  O_2
REMARK    2  A    between atoms: O_2  and  C_3
REMARK    3  A    between atoms: C_6  and  C_7
REMARK    4  A    between atoms: C_12  and  C_14
REMARK    5  A    between atoms: C_14  and  N_15
REMARK                            x       y       z     vdW  Elec       q    Type
REMARK                         _______ _______ _______ _____ _____    ______ ____
ROOT
ATOM      1  C   UNL     1      -1.188  10.816  19.450  0.00  0.00    +0.000 A 
ATOM      2  C   UNL     1      -0.858  11.405  20.656  0.00  0.00    +0.000 A 
ATOM      3  S   UNL     1       0.593  10.703  21.269  0.00  0.00    +0.000 S 
ATOM      4  C   UNL     1       0.706   9.758  19.853  0.00  0.00    +0.000 A 
ATOM      5  N   UNL     1       1.814   8.954  19.766  0.00  0.00    +0.000 N 
ATOM      6  C   UNL     1       2.099   8.266  18.598  0.00  0.00    +0.000 C 
ATOM      7  O   UNL     1       1.426   8.278  17.569  0.00  0.00    +0.000 OA
ATOM      8  N   UNL     1      -0.261   9.894  18.993  0.00  0.00    +0.000 NA
ATOM      9  H   UNL     1       2.403   8.883  20.583  0.00  0.00    +0.000 HD
ENDROOT
BRANCH   1  13
ATOM     10  C   UNL     1      -4.657  11.814  17.160  0.00  0.00    +0.000 A 
ATOM     11  C   UNL     1      -4.532  12.224  18.486  0.00  0.00    +0.000 A 
ATOM     12  C   UNL     1      -3.400  11.880  19.228  0.00  0.00    +0.000 A 
ATOM     13  C   UNL     1      -2.382  11.096  18.664  0.00  0.00    +0.000 A 
ATOM     14  C   UNL     1      -2.528  10.662  17.340  0.00  0.00    +0.000 A 
ATOM     15  C   UNL     1      -3.659  11.020  16.592  0.00  0.00    +0.000 A 
BRANCH  10  17
ATOM     16  C   UNL     1      -6.587  13.172  17.234  0.00  0.00    +0.000 C 
ATOM     17  O   UNL     1      -5.798  12.223  16.527  0.00  0.00    +0.000 OA
ENDBRANCH  10  17
ENDBRANCH   1  13
BRANCH   6  18
ATOM     18  C   UNL     1       3.325   7.354  18.697  0.00  0.00    +0.000 C 
BRANCH  18  19
ATOM     19  N   UNL     1       2.820   5.993  18.634  0.00  0.00    +0.000 N 
ATOM     20  C   UNL     1       1.991   5.470  19.574  0.00  0.00    +0.000 C 
ATOM     21  O   UNL     1       1.684   6.015  20.626  0.00  0.00    +0.000 OA
ATOM     22  C   UNL     1       1.445   4.154  19.070  0.00  0.00    +0.000 C 
ATOM     23  C   UNL     1       1.462   3.055  20.129  0.00  0.00    +0.000 C 
ATOM     24  C   UNL     1       2.307   1.861  19.827  0.00  0.00    +0.000 C 
ATOM     25  C   UNL     1       2.934   1.657  18.667  0.00  0.00    +0.000 C 
ATOM     26  C   UNL     1       2.882   2.591  17.504  0.00  0.00    +0.000 C 
ATOM     27  C   UNL     1       2.187   3.929  17.747  0.00  0.00    +0.000 C 
ATOM     28  C   UNL     1       3.128   5.111  17.645  0.00  0.00    +0.000 C 
ATOM     29  O   UNL     1       3.998   5.245  16.798  0.00  0.00    +0.000 OA
ENDBRANCH  18  19
ENDBRANCH   6  18
TORSDOF 4
ENDMDL
MODEL 8
REMARK VINA RESULT:      -7.6      4.522     11.277
REMARK  Name = 
REMARK  5 active torsions:
REMARK  status: ('A' for Active; 'I' for Inactive)
REMARK    1  A    between atoms: C_1  and  O_2
REMARK    2  A    between atoms: O_2  and  C_3
REMARK    3  A    between atoms: C_6  and  C_7
REMARK    4  A    between atoms: C_12  and  C_14
REMARK    5  A    between atoms: C_14  and  N_15
REMARK                            x       y       z     vdW  Elec       q    Type
REMARK                         _______ _______ _______ _____ _____    ______ ____
ROOT
ATOM      1  C   UNL     1      -0.307  11.154  19.525  0.00  0.00    +0.000 A 
ATOM      2  C   UNL     1      -0.001  12.311  20.217  0.00  0.00    +0.000 A 
ATOM      3  S   UNL     1      -1.335  13.401  20.144  0.00  0.00    +0.000 S 
ATOM      4  C   UNL     1      -2.225  12.220  19.293  0.00  0.00    +0.000 A 
ATOM      5  N   UNL     1      -3.515  12.564  18.981  0.00  0.00    +0.000 N 
ATOM      6  C   UNL     1      -4.383  11.631  18.438  0.00  0.00    +0.000 C 
ATOM      7  O   UNL     1      -4.114  10.462  18.170  0.00  0.00    +0.000 OA
ATOM      8  N   UNL     1      -1.598  11.111  19.028  0.00  0.00    +0.000 NA
ATOM      9  H   UNL     1      -3.800  13.516  19.159  0.00  0.00    +0.000 HD
ENDROOT
BRANCH   1  13
ATOM     10  C   UNL     1       2.204   7.746  18.930  0.00  0.00    +0.000 A 
ATOM     11  C   UNL     1       1.680   8.038  20.187  0.00  0.00    +0.000 A 
ATOM     12  C   UNL     1       0.872   9.162  20.372  0.00  0.00    +0.000 A 
ATOM     13  C   UNL     1       0.594  10.030  19.306  0.00  0.00    +0.000 A 
ATOM     14  C   UNL     1       1.149   9.747  18.051  0.00  0.00    +0.000 A 
ATOM     15  C   UNL     1       1.949   8.611  17.864  0.00  0.00    +0.000 A 
BRANCH  10  17
ATOM     16  C   UNL     1       2.381   5.518  18.170  0.00  0.00    +0.000 C 
ATOM     17  O   UNL     1       2.966   6.613  18.864  0.00  0.00    +0.000 OA
ENDBRANCH  10  17
ENDBRANCH   1  13
BRANCH   6  18
ATOM     18  C   UNL     1      -5.758  12.199  18.075  0.00  0.00    +0.000 C 
BRANCH  18  19
ATOM     19  N   UNL     1      -6.427  12.470  19.337  0.00  0.00    +0.000 N 
ATOM     20  C   UNL     1      -6.420  13.695  19.926  0.00  0.00    +0.000 C 
ATOM     21  O   UNL     1      -5.760  14.654  19.551  0.00  0.00    +0.000 OA
ATOM     22  C   UNL     1      -7.421  13.700  21.058  0.00  0.00    +0.000 C 
ATOM     23  C   UNL     1      -6.885  14.358  22.327  0.00  0.00    +0.000 C 
ATOM     24  C   UNL     1      -6.787  13.483  23.533  0.00  0.00    +0.000 C 
ATOM     25  C   UNL     1      -7.238  12.228  23.591  0.00  0.00    +0.000 C 
ATOM     26  C   UNL     1      -7.906  11.519  22.461  0.00  0.00    +0.000 C 
ATOM     27  C   UNL     1      -7.916  12.250  21.120  0.00  0.00    +0.000 C 
ATOM     28  C   UNL     1      -7.112  11.539  20.053  0.00  0.00    +0.000 C 
ATOM     29  O   UNL     1      -7.106  10.331  19.866  0.00  0.00    +0.000 OA
ENDBRANCH  18  19
ENDBRANCH   6  18
TORSDOF 4
ENDMDL
MODEL 9
REMARK VINA RESULT:      -7.5      3.867     10.052
REMARK  Name = 
REMARK  5 active torsions:
REMARK  status: ('A' for Active; 'I' for Inactive)
REMARK    1  A    between atoms: C_1  and  O_2
REMARK    2  A    between atoms: O_2  and  C_3
REMARK    3  A    between atoms: C_6  and  C_7
REMARK    4  A    between atoms: C_12  and  C_14
REMARK    5  A    between atoms: C_14  and  N_15
REMARK                            x       y       z     vdW  Elec       q    Type
REMARK                         _______ _______ _______ _____ _____    ______ ____
ROOT
ATOM      1  C   UNL     1       1.346   8.158  20.513  0.00  0.00    +0.000 A 
ATOM      2  C   UNL     1       1.383   8.691  21.788  0.00  0.00    +0.000 A 
ATOM      3  S   UNL     1       0.576  10.214  21.805  0.00  0.00    +0.000 S 
ATOM      4  C   UNL     1       0.170   9.992  20.163  0.00  0.00    +0.000 A 
ATOM      5  N   UNL     1      -0.595  10.983  19.604  0.00  0.00    +0.000 N 
ATOM      6  C   UNL     1      -1.122  10.837  18.331  0.00  0.00    +0.000 C 
ATOM      7  O   UNL     1      -0.962   9.871  17.589  0.00  0.00    +0.000 OA
ATOM      8  N   UNL     1       0.620   8.907  19.603  0.00  0.00    +0.000 NA
ATOM      9  H   UNL     1      -0.753  11.815  20.153  0.00  0.00    +0.000 HD
ENDROOT
BRANCH   1  13
ATOM     10  C   UNL     1       3.368   4.592  19.299  0.00  0.00    +0.000 A 
ATOM     11  C   UNL     1       3.519   5.779  18.584  0.00  0.00    +0.000 A 
ATOM     12  C   UNL     1       2.842   6.935  18.983  0.00  0.00    +0.000 A 
ATOM     13  C   UNL     1       1.981   6.916  20.090  0.00  0.00    +0.000 A 
ATOM     14  C   UNL     1       1.811   5.712  20.786  0.00  0.00    +0.000 A 
ATOM     15  C   UNL     1       2.502   4.557  20.392  0.00  0.00    +0.000 A 
BRANCH  10  17
ATOM     16  C   UNL     1       4.375   2.511  19.776  0.00  0.00    +0.000 C 
ATOM     17  O   UNL     1       4.091   3.532  18.828  0.00  0.00    +0.000 OA
ENDBRANCH  10  17
ENDBRANCH   1  13
BRANCH   6  18
ATOM     18  C   UNL     1      -1.884  12.067  17.830  0.00  0.00    +0.000 C 
BRANCH  18  19
ATOM     19  N   UNL     1      -3.238  11.938  18.342  0.00  0.00    +0.000 N 
ATOM     20  C   UNL     1      -4.257  11.417  17.611  0.00  0.00    +0.000 C 
ATOM     21  O   UNL     1      -4.196  11.125  16.424  0.00  0.00    +0.000 OA
ATOM     22  C   UNL     1      -5.440  11.176  18.519  0.00  0.00    +0.000 C 
ATOM     23  C   UNL     1      -6.763  11.631  17.910  0.00  0.00    +0.000 C 
ATOM     24  C   UNL     1      -7.489  12.713  18.641  0.00  0.00    +0.000 C 
ATOM     25  C   UNL     1      -7.114  13.205  19.823  0.00  0.00    +0.000 C 
ATOM     26  C   UNL     1      -5.916  12.745  20.586  0.00  0.00    +0.000 C 
ATOM     27  C   UNL     1      -4.997  11.760  19.866  0.00  0.00    +0.000 C 
ATOM     28  C   UNL     1      -3.622  12.329  19.587  0.00  0.00    +0.000 C 
ATOM     29  O   UNL     1      -2.971  13.007  20.368  0.00  0.00    +0.000 OA
ENDBRANCH  18  19
ENDBRANCH   6  18
TORSDOF 4
ENDMDL
