MODEL 1
REMARK VINA RESULT:      -4.7      0.000      0.000
REMARK  Name = 
REMARK  9 active torsions:
REMARK  status: ('A' for Active; 'I' for Inactive)
REMARK    1  A    between atoms: C_1  and  C_2
REMARK    2  A    between atoms: C_2  and  C_3
REMARK    3  A    between atoms: C_3  and  C_4
REMARK    4  A    between atoms: C_4  and  O_5
REMARK    5  A    between atoms: O_5  and  C_6
REMARK    6  A    between atoms: C_6  and  C_7
REMARK    7  A    between atoms: C_7  and  O_8
REMARK    8  A    between atoms: O_8  and  C_9
REMARK    9  A    between atoms: C_9  and  C_10
REMARK                            x       y       z     vdW  Elec       q    Type
REMARK                         _______ _______ _______ _____ _____    ______ ____
ROOT
ATOM      1  C   UNL     1       4.141   4.551  18.578  0.00  0.00    +0.000 C 
ENDROOT
BRANCH   1   2
ATOM      2  O   UNL     1       4.182   3.119  18.602  0.00  0.00    +0.000 OA
BRANCH   2   3
ATOM      3  C   UNL     1       2.928   2.569  18.998  0.00  0.00    +0.000 C 
BRANCH   3   4
ATOM      4  C   UNL     1       1.934   3.707  19.190  0.00  0.00    +0.000 C 
BRANCH   4   6
ATOM      5  C   UNL     1       1.714   2.861  21.556  0.00  0.00    +0.000 C 
ATOM      6  C   UNL     1       0.979   3.411  20.344  0.00  0.00    +0.000 C 
ENDBRANCH   4   6
ENDBRANCH   3   4
ENDBRANCH   2   3
ENDBRANCH   1   2
BRANCH   1   7
ATOM      7  C   UNL     1       5.423   5.109  19.196  0.00  0.00    +0.000 C 
BRANCH   7   8
ATOM      8  O   UNL     1       6.576   4.321  18.833  0.00  0.00    +0.000 OA
BRANCH   8   9
ATOM      9  C   UNL     1       7.454   4.923  17.991  0.00  0.00    +0.000 C 
ATOM     10  C   UNL     1       7.675   6.354  18.374  0.00  0.00    +0.000 C 
ATOM     11  O   UNL     1       7.999   4.385  17.039  0.00  0.00    +0.000 OA
ENDBRANCH   8   9
ENDBRANCH   7   8
ENDBRANCH   1   7
TORSDOF 7
ENDMDL
MODEL 2
REMARK VINA RESULT:      -4.4      1.237      1.645
REMARK  Name = 
REMARK  9 active torsions:
REMARK  status: ('A' for Active; 'I' for Inactive)
REMARK    1  A    between atoms: C_1  and  C_2
REMARK    2  A    between atoms: C_2  and  C_3
REMARK    3  A    between atoms: C_3  and  C_4
REMARK    4  A    between atoms: C_4  and  O_5
REMARK    5  A    between atoms: O_5  and  C_6
REMARK    6  A    between atoms: C_6  and  C_7
REMARK    7  A    between atoms: C_7  and  O_8
REMARK    8  A    between atoms: O_8  and  C_9
REMARK    9  A    between atoms: C_9  and  C_10
REMARK                            x       y       z     vdW  Elec       q    Type
REMARK                         _______ _______ _______ _____ _____    ______ ____
ROOT
ATOM      1  C   UNL     1       4.264   5.342  19.499  0.00  0.00    +0.000 C 
ENDROOT
BRANCH   1   2
ATOM      2  O   UNL     1       2.869   5.300  19.174  0.00  0.00    +0.000 OA
BRANCH   2   3
ATOM      3  C   UNL     1       2.059   5.438  20.338  0.00  0.00    +0.000 C 
BRANCH   3   4
ATOM      4  C   UNL     1       1.380   4.105  20.623  0.00  0.00    +0.000 C 
BRANCH   4   6
ATOM      5  C   UNL     1       1.806   2.049  19.226  0.00  0.00    +0.000 C 
ATOM      6  C   UNL     1       1.056   3.367  19.326  0.00  0.00    +0.000 C 
ENDBRANCH   4   6
ENDBRANCH   3   4
ENDBRANCH   2   3
ENDBRANCH   1   2
BRANCH   1   7
ATOM      7  C   UNL     1       5.071   4.712  18.365  0.00  0.00    +0.000 C 
BRANCH   7   8
ATOM      8  O   UNL     1       6.412   4.383  18.783  0.00  0.00    +0.000 OA
BRANCH   8   9
ATOM      9  C   UNL     1       7.407   4.923  18.034  0.00  0.00    +0.000 C 
ATOM     10  C   UNL     1       7.746   6.305  18.503  0.00  0.00    +0.000 C 
ATOM     11  O   UNL     1       7.963   4.371  17.096  0.00  0.00    +0.000 OA
ENDBRANCH   8   9
ENDBRANCH   7   8
ENDBRANCH   1   7
TORSDOF 7
ENDMDL
MODEL 3
REMARK VINA RESULT:      -4.4      1.440      1.598
REMARK  Name = 
REMARK  9 active torsions:
REMARK  status: ('A' for Active; 'I' for Inactive)
REMARK    1  A    between atoms: C_1  and  C_2
REMARK    2  A    between atoms: C_2  and  C_3
REMARK    3  A    between atoms: C_3  and  C_4
REMARK    4  A    between atoms: C_4  and  O_5
REMARK    5  A    between atoms: O_5  and  C_6
REMARK    6  A    between atoms: C_6  and  C_7
REMARK    7  A    between atoms: C_7  and  O_8
REMARK    8  A    between atoms: O_8  and  C_9
REMARK    9  A    between atoms: C_9  and  C_10
REMARK                            x       y       z     vdW  Elec       q    Type
REMARK                         _______ _______ _______ _____ _____    ______ ____
ROOT
ATOM      1  C   UNL     1       4.045   3.033  17.662  0.00  0.00    +0.000 C 
ENDROOT
BRANCH   1   2
ATOM      2  O   UNL     1       2.642   2.746  17.614  0.00  0.00    +0.000 OA
BRANCH   2   3
ATOM      3  C   UNL     1       2.194   2.138  18.823  0.00  0.00    +0.000 C 
BRANCH   3   4
ATOM      4  C   UNL     1       0.836   2.722  19.190  0.00  0.00    +0.000 C 
BRANCH   4   6
ATOM      5  C   UNL     1       1.708   2.779  21.555  0.00  0.00    +0.000 C 
ATOM      6  C   UNL     1       0.915   3.518  20.490  0.00  0.00    +0.000 C 
ENDBRANCH   4   6
ENDBRANCH   3   4
ENDBRANCH   2   3
ENDBRANCH   1   2
BRANCH   1   7
ATOM      7  C   UNL     1       4.384   3.696  18.997  0.00  0.00    +0.000 C 
BRANCH   7   8
ATOM      8  O   UNL     1       5.791   4.000  19.099  0.00  0.00    +0.000 OA
BRANCH   8   9
ATOM      9  C   UNL     1       6.234   4.995  18.290  0.00  0.00    +0.000 C 
ATOM     10  C   UNL     1       7.523   4.618  17.626  0.00  0.00    +0.000 C 
ATOM     11  O   UNL     1       5.670   6.066  18.116  0.00  0.00    +0.000 OA
ENDBRANCH   8   9
ENDBRANCH   7   8
ENDBRANCH   1   7
TORSDOF 7
ENDMDL
MODEL 4
REMARK VINA RESULT:      -4.4      1.281      1.501
REMARK  Name = 
REMARK  9 active torsions:
REMARK  status: ('A' for Active; 'I' for Inactive)
REMARK    1  A    between atoms: C_1  and  C_2
REMARK    2  A    between atoms: C_2  and  C_3
REMARK    3  A    between atoms: C_3  and  C_4
REMARK    4  A    between atoms: C_4  and  O_5
REMARK    5  A    between atoms: O_5  and  C_6
REMARK    6  A    between atoms: C_6  and  C_7
REMARK    7  A    between atoms: C_7  and  O_8
REMARK    8  A    between atoms: O_8  and  C_9
REMARK    9  A    between atoms: C_9  and  C_10
REMARK                            x       y       z     vdW  Elec       q    Type
REMARK                         _______ _______ _______ _____ _____    ______ ____
ROOT
ATOM      1  C   UNL     1       3.973   4.970  18.826  0.00  0.00    +0.000 C 
ENDROOT
BRANCH   1   2
ATOM      2  O   UNL     1       3.177   4.533  17.718  0.00  0.00    +0.000 OA
BRANCH   2   3
ATOM      3  C   UNL     1       1.805   4.403  18.082  0.00  0.00    +0.000 C 
BRANCH   3   4
ATOM      4  C   UNL     1       1.693   4.467  19.599  0.00  0.00    +0.000 C 
BRANCH   4   6
ATOM      5  C   UNL     1       1.524   2.757  21.445  0.00  0.00    +0.000 C 
ATOM      6  C   UNL     1       0.925   3.265  20.143  0.00  0.00    +0.000 C 
ENDBRANCH   4   6
ENDBRANCH   3   4
ENDBRANCH   2   3
ENDBRANCH   1   2
BRANCH   1   7
ATOM      7  C   UNL     1       5.256   4.143  18.890  0.00  0.00    +0.000 C 
BRANCH   7   8
ATOM      8  O   UNL     1       6.342   4.786  18.191  0.00  0.00    +0.000 OA
BRANCH   8   9
ATOM      9  C   UNL     1       7.141   5.576  18.951  0.00  0.00    +0.000 C 
ATOM     10  C   UNL     1       7.694   6.715  18.151  0.00  0.00    +0.000 C 
ATOM     11  O   UNL     1       7.391   5.395  20.134  0.00  0.00    +0.000 OA
ENDBRANCH   8   9
ENDBRANCH   7   8
ENDBRANCH   1   7
TORSDOF 7
ENDMDL
MODEL 5
REMARK VINA RESULT:      -4.4      1.724      1.900
REMARK  Name = 
REMARK  9 active torsions:
REMARK  status: ('A' for Active; 'I' for Inactive)
REMARK    1  A    between atoms: C_1  and  C_2
REMARK    2  A    between atoms: C_2  and  C_3
REMARK    3  A    between atoms: C_3  and  C_4
REMARK    4  A    between atoms: C_4  and  O_5
REMARK    5  A    between atoms: O_5  and  C_6
REMARK    6  A    between atoms: C_6  and  C_7
REMARK    7  A    between atoms: C_7  and  O_8
REMARK    8  A    between atoms: O_8  and  C_9
REMARK    9  A    between atoms: C_9  and  C_10
REMARK                            x       y       z     vdW  Elec       q    Type
REMARK                         _______ _______ _______ _____ _____    ______ ____
ROOT
ATOM      1  C   UNL     1       4.072   3.599  17.680  0.00  0.00    +0.000 C 
ENDROOT
BRANCH   1   2
ATOM      2  O   UNL     1       2.808   3.060  17.275  0.00  0.00    +0.000 OA
BRANCH   2   3
ATOM      3  C   UNL     1       1.730   3.685  17.968  0.00  0.00    +0.000 C 
BRANCH   3   4
ATOM      4  C   UNL     1       1.022   2.638  18.817  0.00  0.00    +0.000 C 
BRANCH   4   6
ATOM      5  C   UNL     1       1.255   4.468  20.537  0.00  0.00    +0.000 C 
ATOM      6  C   UNL     1       1.133   2.971  20.303  0.00  0.00    +0.000 C 
ENDBRANCH   4   6
ENDBRANCH   3   4
ENDBRANCH   2   3
ENDBRANCH   1   2
BRANCH   1   7
ATOM      7  C   UNL     1       4.775   4.212  16.470  0.00  0.00    +0.000 C 
BRANCH   7   8
ATOM      8  O   UNL     1       5.580   5.351  16.841  0.00  0.00    +0.000 OA
BRANCH   8   9
ATOM      9  C   UNL     1       6.906   5.241  16.577  0.00  0.00    +0.000 C 
ATOM     10  C   UNL     1       7.638   4.635  17.736  0.00  0.00    +0.000 C 
ATOM     11  O   UNL     1       7.450   5.587  15.539  0.00  0.00    +0.000 OA
ENDBRANCH   8   9
ENDBRANCH   7   8
ENDBRANCH   1   7
TORSDOF 7
ENDMDL
MODEL 6
REMARK VINA RESULT:      -4.4      1.480      1.695
REMARK  Name = 
REMARK  9 active torsions:
REMARK  status: ('A' for Active; 'I' for Inactive)
REMARK    1  A    between atoms: C_1  and  C_2
REMARK    2  A    between atoms: C_2  and  C_3
REMARK    3  A    between atoms: C_3  and  C_4
REMARK    4  A    between atoms: C_4  and  O_5
REMARK    5  A    between atoms: O_5  and  C_6
REMARK    6  A    between atoms: C_6  and  C_7
REMARK    7  A    between atoms: C_7  and  O_8
REMARK    8  A    between atoms: O_8  and  C_9
REMARK    9  A    between atoms: C_9  and  C_10
REMARK                            x       y       z     vdW  Elec       q    Type
REMARK                         _______ _______ _______ _____ _____    ______ ____
ROOT
ATOM      1  C   UNL     1       3.648   4.015  17.208  0.00  0.00    +0.000 C 
ENDROOT
BRANCH   1   2
ATOM      2  O   UNL     1       2.675   3.971  18.258  0.00  0.00    +0.000 OA
BRANCH   2   3
ATOM      3  C   UNL     1       2.222   2.640  18.493  0.00  0.00    +0.000 C 
BRANCH   3   4
ATOM      4  C   UNL     1       0.868   2.700  19.188  0.00  0.00    +0.000 C 
BRANCH   4   6
ATOM      5  C   UNL     1       1.695   2.743  21.570  0.00  0.00    +0.000 C 
ATOM      6  C   UNL     1       0.951   3.503  20.483  0.00  0.00    +0.000 C 
ENDBRANCH   4   6
ENDBRANCH   3   4
ENDBRANCH   2   3
ENDBRANCH   1   2
BRANCH   1   7
ATOM      7  C   UNL     1       5.051   3.993  17.813  0.00  0.00    +0.000 C 
BRANCH   7   8
ATOM      8  O   UNL     1       5.879   5.047  17.278  0.00  0.00    +0.000 OA
BRANCH   8   9
ATOM      9  C   UNL     1       7.001   4.638  16.633  0.00  0.00    +0.000 C 
ATOM     10  C   UNL     1       6.790   4.601  15.150  0.00  0.00    +0.000 C 
ATOM     11  O   UNL     1       8.054   4.334  17.174  0.00  0.00    +0.000 OA
ENDBRANCH   8   9
ENDBRANCH   7   8
ENDBRANCH   1   7
TORSDOF 7
ENDMDL
MODEL 7
REMARK VINA RESULT:      -4.3      2.338      2.664
REMARK  Name = 
REMARK  9 active torsions:
REMARK  status: ('A' for Active; 'I' for Inactive)
REMARK    1  A    between atoms: C_1  and  C_2
REMARK    2  A    between atoms: C_2  and  C_3
REMARK    3  A    between atoms: C_3  and  C_4
REMARK    4  A    between atoms: C_4  and  O_5
REMARK    5  A    between atoms: O_5  and  C_6
REMARK    6  A    between atoms: C_6  and  C_7
REMARK    7  A    between atoms: C_7  and  O_8
REMARK    8  A    between atoms: O_8  and  C_9
REMARK    9  A    between atoms: C_9  and  C_10
REMARK                            x       y       z     vdW  Elec       q    Type
REMARK                         _______ _______ _______ _____ _____    ______ ____
ROOT
ATOM      1  C   UNL     1       4.655   5.015  17.347  0.00  0.00    +0.000 C 
ENDROOT
BRANCH   1   2
ATOM      2  O   UNL     1       3.225   4.921  17.352  0.00  0.00    +0.000 OA
BRANCH   2   3
ATOM      3  C   UNL     1       2.790   3.628  17.765  0.00  0.00    +0.000 C 
BRANCH   3   4
ATOM      4  C   UNL     1       1.313   3.703  18.130  0.00  0.00    +0.000 C 
BRANCH   4   6
ATOM      5  C   UNL     1       1.138   3.576  20.643  0.00  0.00    +0.000 C 
ATOM      6  C   UNL     1       1.000   2.817  19.333  0.00  0.00    +0.000 C 
ENDBRANCH   4   6
ENDBRANCH   3   4
ENDBRANCH   2   3
ENDBRANCH   1   2
BRANCH   1   7
ATOM      7  C   UNL     1       5.231   3.966  16.397  0.00  0.00    +0.000 C 
BRANCH   7   8
ATOM      8  O   UNL     1       6.625   4.208  16.117  0.00  0.00    +0.000 OA
BRANCH   8   9
ATOM      9  C   UNL     1       6.904   4.629  14.858  0.00  0.00    +0.000 C 
ATOM     10  C   UNL     1       6.049   3.925  13.850  0.00  0.00    +0.000 C 
ATOM     11  O   UNL     1       7.742   5.470  14.566  0.00  0.00    +0.000 OA
ENDBRANCH   8   9
ENDBRANCH   7   8
ENDBRANCH   1   7
TORSDOF 7
ENDMDL
MODEL 8
REMARK VINA RESULT:      -4.3      1.687      2.013
REMARK  Name = 
REMARK  9 active torsions:
REMARK  status: ('A' for Active; 'I' for Inactive)
REMARK    1  A    between atoms: C_1  and  C_2
REMARK    2  A    between atoms: C_2  and  C_3
REMARK    3  A    between atoms: C_3  and  C_4
REMARK    4  A    between atoms: C_4  and  O_5
REMARK    5  A    between atoms: O_5  and  C_6
REMARK    6  A    between atoms: C_6  and  C_7
REMARK    7  A    between atoms: C_7  and  O_8
REMARK    8  A    between atoms: O_8  and  C_9
REMARK    9  A    between atoms: C_9  and  C_10
REMARK                            x       y       z     vdW  Elec       q    Type
REMARK                         _______ _______ _______ _____ _____    ______ ____
ROOT
ATOM      1  C   UNL     1       4.892   3.918  18.589  0.00  0.00    +0.000 C 
ENDROOT
BRANCH   1   2
ATOM      2  O   UNL     1       4.070   4.370  19.671  0.00  0.00    +0.000 OA
BRANCH   2   3
ATOM      3  C   UNL     1       2.853   4.941  19.198  0.00  0.00    +0.000 C 
BRANCH   3   4
ATOM      4  C   UNL     1       1.862   5.010  20.353  0.00  0.00    +0.000 C 
BRANCH   4   6
ATOM      5  C   UNL     1       1.405   2.766  21.408  0.00  0.00    +0.000 C 
ATOM      6  C   UNL     1       0.955   3.782  20.371  0.00  0.00    +0.000 C 
ENDBRANCH   4   6
ENDBRANCH   3   4
ENDBRANCH   2   3
ENDBRANCH   1   2
BRANCH   1   7
ATOM      7  C   UNL     1       4.642   4.790  17.360  0.00  0.00    +0.000 C 
BRANCH   7   8
ATOM      8  O   UNL     1       5.853   5.426  16.902  0.00  0.00    +0.000 OA
BRANCH   8   9
ATOM      9  C   UNL     1       6.752   4.607  16.300  0.00  0.00    +0.000 C 
ATOM     10  C   UNL     1       6.189   4.018  15.043  0.00  0.00    +0.000 C 
ATOM     11  O   UNL     1       7.876   4.368  16.715  0.00  0.00    +0.000 OA
ENDBRANCH   8   9
ENDBRANCH   7   8
ENDBRANCH   1   7
TORSDOF 7
ENDMDL
MODEL 9
REMARK VINA RESULT:      -4.3      2.264      5.735
REMARK  Name = 
REMARK  9 active torsions:
REMARK  status: ('A' for Active; 'I' for Inactive)
REMARK    1  A    between atoms: C_1  and  C_2
REMARK    2  A    between atoms: C_2  and  C_3
REMARK    3  A    between atoms: C_3  and  C_4
REMARK    4  A    between atoms: C_4  and  O_5
REMARK    5  A    between atoms: O_5  and  C_6
REMARK    6  A    between atoms: C_6  and  C_7
REMARK    7  A    between atoms: C_7  and  O_8
REMARK    8  A    between atoms: O_8  and  C_9
REMARK    9  A    between atoms: C_9  and  C_10
REMARK                            x       y       z     vdW  Elec       q    Type
REMARK                         _______ _______ _______ _____ _____    ______ ____
ROOT
ATOM      1  C   UNL     1       4.218   2.496  19.936  0.00  0.00    +0.000 C 
ENDROOT
BRANCH   1   2
ATOM      2  O   UNL     1       5.175   3.364  19.317  0.00  0.00    +0.000 OA
BRANCH   2   3
ATOM      3  C   UNL     1       4.631   3.999  18.162  0.00  0.00    +0.000 C 
BRANCH   3   4
ATOM      4  C   UNL     1       5.777   4.484  17.285  0.00  0.00    +0.000 C 
BRANCH   4   6
ATOM      5  C   UNL     1       6.703   4.517  14.940  0.00  0.00    +0.000 C 
ATOM      6  C   UNL     1       5.668   3.912  15.874  0.00  0.00    +0.000 C 
ENDBRANCH   4   6
ENDBRANCH   3   4
ENDBRANCH   2   3
ENDBRANCH   1   2
BRANCH   1   7
ATOM      7  C   UNL     1       2.925   2.497  19.122  0.00  0.00    +0.000 C 
BRANCH   7   8
ATOM      8  O   UNL     1       1.798   2.058  19.908  0.00  0.00    +0.000 OA
BRANCH   8   9
ATOM      9  C   UNL     1       1.464   2.862  20.949  0.00  0.00    +0.000 C 
ATOM     10  C   UNL     1       0.978   4.195  20.469  0.00  0.00    +0.000 C 
ATOM     11  O   UNL     1       1.544   2.555  22.130  0.00  0.00    +0.000 OA
ENDBRANCH   8   9
ENDBRANCH   7   8
ENDBRANCH   1   7
TORSDOF 7
ENDMDL
