MODEL 1
REMARK VINA RESULT:      -7.3      0.000      0.000
REMARK  Name = 
REMARK  9 active torsions:
REMARK  status: ('A' for Active; 'I' for Inactive)
REMARK    1  A    between atoms: C_1  and  C_2
REMARK    2  A    between atoms: C_2  and  N_3
REMARK    3  A    between atoms: C_5  and  C_6
REMARK    4  A    between atoms: C_6  and  O_7
REMARK    5  A    between atoms: O_7  and  C_8
REMARK    6  A    between atoms: C_8  and  C_10
REMARK    7  A    between atoms: C_12  and  C_13
REMARK    8  A    between atoms: N_15  and  C_16
REMARK    9  A    between atoms: C_16  and  C_17
REMARK                            x       y       z     vdW  Elec       q    Type
REMARK                         _______ _______ _______ _____ _____    ______ ____
ROOT
ATOM      1  O   UNL     1       4.150   5.393  18.294  0.00  0.00    +0.000 OA
ENDROOT
BRANCH   1   2
ATOM      2  C   UNL     1       5.246   4.581  18.302  0.00  0.00    +0.000 C 
ATOM      3  O   UNL     1       5.539   3.821  19.211  0.00  0.00    +0.000 OA
BRANCH   2   4
ATOM      4  C   UNL     1       6.015   4.811  17.105  0.00  0.00    +0.000 A 
ATOM      5  C   UNL     1       5.911   4.189  15.873  0.00  0.00    +0.000 A 
ATOM      6  C   UNL     1       6.840   4.833  15.036  0.00  0.00    +0.000 A 
ATOM      7  C   UNL     1       7.088   4.580  13.597  0.00  0.00    +0.000 C 
ATOM      8  N   UNL     1       7.520   5.775  15.695  0.00  0.00    +0.000 NA
ATOM      9  N   UNL     1       7.024   5.732  16.953  0.00  0.00    +0.000 N 
BRANCH   9  10
ATOM     10  C   UNL     1       7.634   6.585  17.959  0.00  0.00    +0.000 C 
ATOM     11  C   UNL     1       7.724   8.043  17.543  0.00  0.00    +0.000 C 
ENDBRANCH   9  10
ENDBRANCH   2   4
ENDBRANCH   1   2
BRANCH   1  12
ATOM     12  C   UNL     1       3.673   5.831  19.577  0.00  0.00    +0.000 C 
BRANCH  12  15
ATOM     13  N   UNL     1       1.906   3.217  19.686  0.00  0.00    +0.000 N 
ATOM     14  C   UNL     1       1.728   4.375  18.845  0.00  0.00    +0.000 C 
ATOM     15  C   UNL     1       2.175   5.532  19.735  0.00  0.00    +0.000 C 
ATOM     16  C   UNL     1       1.862   5.036  21.148  0.00  0.00    +0.000 C 
ATOM     17  C   UNL     1       2.033   3.542  21.026  0.00  0.00    +0.000 C 
ATOM     18  O   UNL     1       2.214   2.772  21.953  0.00  0.00    +0.000 OA
BRANCH  13  20
ATOM     19  C   UNL     1       2.893   1.762  17.975  0.00  0.00    +0.000 C 
ATOM     20  C   UNL     1       1.958   1.866  19.164  0.00  0.00    +0.000 C 
ENDBRANCH  13  20
ENDBRANCH  12  15
ENDBRANCH   1  12
TORSDOF 6
ENDMDL
MODEL 2
REMARK VINA RESULT:      -6.9      1.942      3.538
REMARK  Name = 
REMARK  9 active torsions:
REMARK  status: ('A' for Active; 'I' for Inactive)
REMARK    1  A    between atoms: C_1  and  C_2
REMARK    2  A    between atoms: C_2  and  N_3
REMARK    3  A    between atoms: C_5  and  C_6
REMARK    4  A    between atoms: C_6  and  O_7
REMARK    5  A    between atoms: O_7  and  C_8
REMARK    6  A    between atoms: C_8  and  C_10
REMARK    7  A    between atoms: C_12  and  C_13
REMARK    8  A    between atoms: N_15  and  C_16
REMARK    9  A    between atoms: C_16  and  C_17
REMARK                            x       y       z     vdW  Elec       q    Type
REMARK                         _______ _______ _______ _____ _____    ______ ____
ROOT
ATOM      1  O   UNL     1       6.725   4.515  19.101  0.00  0.00    +0.000 OA
ENDROOT
BRANCH   1   2
ATOM      2  C   UNL     1       7.407   4.863  17.972  0.00  0.00    +0.000 C 
ATOM      3  O   UNL     1       7.960   4.071  17.225  0.00  0.00    +0.000 OA
BRANCH   2   4
ATOM      4  C   UNL     1       7.413   6.298  17.843  0.00  0.00    +0.000 A 
ATOM      5  C   UNL     1       8.262   7.220  18.432  0.00  0.00    +0.000 A 
ATOM      6  C   UNL     1       7.884   8.474  17.920  0.00  0.00    +0.000 A 
ATOM      7  C   UNL     1       8.513   9.788  18.191  0.00  0.00    +0.000 C 
ATOM      8  N   UNL     1       6.840   8.370  17.093  0.00  0.00    +0.000 NA
ATOM      9  N   UNL     1       6.553   7.048  17.077  0.00  0.00    +0.000 N 
BRANCH   9  10
ATOM     10  C   UNL     1       5.385   6.611  16.331  0.00  0.00    +0.000 C 
ATOM     11  C   UNL     1       5.714   5.662  15.191  0.00  0.00    +0.000 C 
ENDBRANCH   9  10
ENDBRANCH   2   4
ENDBRANCH   1   2
BRANCH   1  12
ATOM     12  C   UNL     1       5.300   4.687  19.062  0.00  0.00    +0.000 C 
BRANCH  12  15
ATOM     13  N   UNL     1       2.392   3.527  19.473  0.00  0.00    +0.000 N 
ATOM     14  C   UNL     1       3.649   2.930  19.852  0.00  0.00    +0.000 C 
ATOM     15  C   UNL     1       4.598   3.360  18.738  0.00  0.00    +0.000 C 
ATOM     16  C   UNL     1       3.677   3.510  17.524  0.00  0.00    +0.000 C 
ATOM     17  C   UNL     1       2.366   3.923  18.146  0.00  0.00    +0.000 C 
ATOM     18  O   UNL     1       1.448   4.472  17.562  0.00  0.00    +0.000 OA
BRANCH  13  20
ATOM     19  C   UNL     1       1.394   2.746  21.573  0.00  0.00    +0.000 C 
ATOM     20  C   UNL     1       1.291   3.700  20.399  0.00  0.00    +0.000 C 
ENDBRANCH  13  20
ENDBRANCH  12  15
ENDBRANCH   1  12
TORSDOF 6
ENDMDL
MODEL 3
REMARK VINA RESULT:      -6.9      1.140      1.520
REMARK  Name = 
REMARK  9 active torsions:
REMARK  status: ('A' for Active; 'I' for Inactive)
REMARK    1  A    between atoms: C_1  and  C_2
REMARK    2  A    between atoms: C_2  and  N_3
REMARK    3  A    between atoms: C_5  and  C_6
REMARK    4  A    between atoms: C_6  and  O_7
REMARK    5  A    between atoms: O_7  and  C_8
REMARK    6  A    between atoms: C_8  and  C_10
REMARK    7  A    between atoms: C_12  and  C_13
REMARK    8  A    between atoms: N_15  and  C_16
REMARK    9  A    between atoms: C_16  and  C_17
REMARK                            x       y       z     vdW  Elec       q    Type
REMARK                         _______ _______ _______ _____ _____    ______ ____
ROOT
ATOM      1  O   UNL     1       4.087   5.797  18.646  0.00  0.00    +0.000 OA
ENDROOT
BRANCH   1   2
ATOM      2  C   UNL     1       4.321   6.654  17.610  0.00  0.00    +0.000 C 
ATOM      3  O   UNL     1       3.763   7.730  17.462  0.00  0.00    +0.000 OA
BRANCH   2   4
ATOM      4  C   UNL     1       5.275   6.059  16.709  0.00  0.00    +0.000 A 
ATOM      5  C   UNL     1       5.050   5.192  15.653  0.00  0.00    +0.000 A 
ATOM      6  C   UNL     1       6.305   4.975  15.057  0.00  0.00    +0.000 A 
ATOM      7  C   UNL     1       6.608   4.165  13.855  0.00  0.00    +0.000 C 
ATOM      8  N   UNL     1       7.274   5.625  15.709  0.00  0.00    +0.000 NA
ATOM      9  N   UNL     1       6.635   6.257  16.720  0.00  0.00    +0.000 N 
BRANCH   9  10
ATOM     10  C   UNL     1       7.438   6.987  17.687  0.00  0.00    +0.000 C 
ATOM     11  C   UNL     1       7.839   6.154  18.893  0.00  0.00    +0.000 C 
ENDBRANCH   9  10
ENDBRANCH   2   4
ENDBRANCH   1   2
BRANCH   1  12
ATOM     12  C   UNL     1       2.971   6.112  19.493  0.00  0.00    +0.000 C 
BRANCH  12  15
ATOM     13  N   UNL     1       2.824   2.969  19.744  0.00  0.00    +0.000 N 
ATOM     14  C   UNL     1       2.363   3.796  18.656  0.00  0.00    +0.000 C 
ATOM     15  C   UNL     1       1.864   5.057  19.355  0.00  0.00    +0.000 C 
ATOM     16  C   UNL     1       1.417   4.549  20.728  0.00  0.00    +0.000 C 
ATOM     17  C   UNL     1       2.343   3.384  20.974  0.00  0.00    +0.000 C 
ATOM     18  O   UNL     1       2.583   2.889  22.061  0.00  0.00    +0.000 OA
BRANCH  13  20
ATOM     19  C   UNL     1       3.743   1.394  18.102  0.00  0.00    +0.000 C 
ATOM     20  C   UNL     1       3.708   1.836  19.552  0.00  0.00    +0.000 C 
ENDBRANCH  13  20
ENDBRANCH  12  15
ENDBRANCH   1  12
TORSDOF 6
ENDMDL
MODEL 4
REMARK VINA RESULT:      -6.8      1.339      2.998
REMARK  Name = 
REMARK  9 active torsions:
REMARK  status: ('A' for Active; 'I' for Inactive)
REMARK    1  A    between atoms: C_1  and  C_2
REMARK    2  A    between atoms: C_2  and  N_3
REMARK    3  A    between atoms: C_5  and  C_6
REMARK    4  A    between atoms: C_6  and  O_7
REMARK    5  A    between atoms: O_7  and  C_8
REMARK    6  A    between atoms: C_8  and  C_10
REMARK    7  A    between atoms: C_12  and  C_13
REMARK    8  A    between atoms: N_15  and  C_16
REMARK    9  A    between atoms: C_16  and  C_17
REMARK                            x       y       z     vdW  Elec       q    Type
REMARK                         _______ _______ _______ _____ _____    ______ ____
ROOT
ATOM      1  O   UNL     1       4.149   3.855  17.121  0.00  0.00    +0.000 OA
ENDROOT
BRANCH   1   2
ATOM      2  C   UNL     1       5.150   4.033  18.031  0.00  0.00    +0.000 C 
ATOM      3  O   UNL     1       5.261   3.404  19.071  0.00  0.00    +0.000 OA
BRANCH   2   4
ATOM      4  C   UNL     1       6.004   5.108  17.593  0.00  0.00    +0.000 A 
ATOM      5  C   UNL     1       6.282   6.309  18.222  0.00  0.00    +0.000 A 
ATOM      6  C   UNL     1       7.226   6.962  17.410  0.00  0.00    +0.000 A 
ATOM      7  C   UNL     1       7.893   8.260  17.662  0.00  0.00    +0.000 C 
ATOM      8  N   UNL     1       7.504   6.248  16.315  0.00  0.00    +0.000 NA
ATOM      9  N   UNL     1       6.737   5.140  16.430  0.00  0.00    +0.000 N 
BRANCH   9  10
ATOM     10  C   UNL     1       6.737   4.190  15.330  0.00  0.00    +0.000 C 
ATOM     11  C   UNL     1       6.954   4.836  13.972  0.00  0.00    +0.000 C 
ENDBRANCH   9  10
ENDBRANCH   2   4
ENDBRANCH   1   2
BRANCH   1  12
ATOM     12  C   UNL     1       3.154   2.873  17.454  0.00  0.00    +0.000 C 
BRANCH  12  15
ATOM     13  N   UNL     1       1.805   4.160  20.001  0.00  0.00    +0.000 N 
ATOM     14  C   UNL     1       1.267   3.149  19.126  0.00  0.00    +0.000 C 
ATOM     15  C   UNL     1       1.805   3.542  17.753  0.00  0.00    +0.000 C 
ATOM     16  C   UNL     1       1.957   5.062  17.853  0.00  0.00    +0.000 C 
ATOM     17  C   UNL     1       2.261   5.274  19.316  0.00  0.00    +0.000 C 
ATOM     18  O   UNL     1       2.781   6.267  19.793  0.00  0.00    +0.000 OA
BRANCH  13  20
ATOM     19  C   UNL     1       1.634   2.566  21.857  0.00  0.00    +0.000 C 
ATOM     20  C   UNL     1       1.867   4.005  21.440  0.00  0.00    +0.000 C 
ENDBRANCH  13  20
ENDBRANCH  12  15
ENDBRANCH   1  12
TORSDOF 6
ENDMDL
MODEL 5
REMARK VINA RESULT:      -6.7      1.352      2.507
REMARK  Name = 
REMARK  9 active torsions:
REMARK  status: ('A' for Active; 'I' for Inactive)
REMARK    1  A    between atoms: C_1  and  C_2
REMARK    2  A    between atoms: C_2  and  N_3
REMARK    3  A    between atoms: C_5  and  C_6
REMARK    4  A    between atoms: C_6  and  O_7
REMARK    5  A    between atoms: O_7  and  C_8
REMARK    6  A    between atoms: C_8  and  C_10
REMARK    7  A    between atoms: C_12  and  C_13
REMARK    8  A    between atoms: N_15  and  C_16
REMARK    9  A    between atoms: C_16  and  C_17
REMARK                            x       y       z     vdW  Elec       q    Type
REMARK                         _______ _______ _______ _____ _____    ______ ____
ROOT
ATOM      1  O   UNL     1       4.826   3.111  18.124  0.00  0.00    +0.000 OA
ENDROOT
BRANCH   1   2
ATOM      2  C   UNL     1       5.129   4.441  18.120  0.00  0.00    +0.000 C 
ATOM      3  O   UNL     1       4.727   5.246  18.945  0.00  0.00    +0.000 OA
BRANCH   2   4
ATOM      4  C   UNL     1       5.941   4.740  16.968  0.00  0.00    +0.000 A 
ATOM      5  C   UNL     1       5.887   4.188  15.699  0.00  0.00    +0.000 A 
ATOM      6  C   UNL     1       6.843   4.880  14.935  0.00  0.00    +0.000 A 
ATOM      7  C   UNL     1       7.145   4.710  13.495  0.00  0.00    +0.000 C 
ATOM      8  N   UNL     1       7.494   5.784  15.672  0.00  0.00    +0.000 NA
ATOM      9  N   UNL     1       6.952   5.669  16.905  0.00  0.00    +0.000 N 
BRANCH   9  10
ATOM     10  C   UNL     1       7.521   6.465  17.980  0.00  0.00    +0.000 C 
ATOM     11  C   UNL     1       7.707   7.929  17.617  0.00  0.00    +0.000 C 
ENDBRANCH   9  10
ENDBRANCH   2   4
ENDBRANCH   1   2
BRANCH   1  12
ATOM     12  C   UNL     1       4.462   2.545  19.393  0.00  0.00    +0.000 C 
BRANCH  12  15
ATOM     13  N   UNL     1       1.486   3.567  19.646  0.00  0.00    +0.000 N 
ATOM     14  C   UNL     1       2.115   2.480  20.353  0.00  0.00    +0.000 C 
ATOM     15  C   UNL     1       3.075   1.892  19.322  0.00  0.00    +0.000 C 
ATOM     16  C   UNL     1       2.392   2.198  17.987  0.00  0.00    +0.000 C 
ATOM     17  C   UNL     1       1.652   3.481  18.273  0.00  0.00    +0.000 C 
ATOM     18  O   UNL     1       1.248   4.267  17.435  0.00  0.00    +0.000 OA
BRANCH  13  20
ATOM     19  C   UNL     1       1.703   5.770  20.705  0.00  0.00    +0.000 C 
ATOM     20  C   UNL     1       0.774   4.636  20.317  0.00  0.00    +0.000 C 
ENDBRANCH  13  20
ENDBRANCH  12  15
ENDBRANCH   1  12
TORSDOF 6
ENDMDL
MODEL 6
REMARK VINA RESULT:      -6.6      0.918      1.121
REMARK  Name = 
REMARK  9 active torsions:
REMARK  status: ('A' for Active; 'I' for Inactive)
REMARK    1  A    between atoms: C_1  and  C_2
REMARK    2  A    between atoms: C_2  and  N_3
REMARK    3  A    between atoms: C_5  and  C_6
REMARK    4  A    between atoms: C_6  and  O_7
REMARK    5  A    between atoms: O_7  and  C_8
REMARK    6  A    between atoms: C_8  and  C_10
REMARK    7  A    between atoms: C_12  and  C_13
REMARK    8  A    between atoms: N_15  and  C_16
REMARK    9  A    between atoms: C_16  and  C_17
REMARK                            x       y       z     vdW  Elec       q    Type
REMARK                         _______ _______ _______ _____ _____    ______ ____
ROOT
ATOM      1  O   UNL     1       4.726   5.755  19.059  0.00  0.00    +0.000 OA
ENDROOT
BRANCH   1   2
ATOM      2  C   UNL     1       5.475   4.662  18.734  0.00  0.00    +0.000 C 
ATOM      3  O   UNL     1       5.591   3.670  19.435  0.00  0.00    +0.000 OA
BRANCH   2   4
ATOM      4  C   UNL     1       6.137   4.897  17.476  0.00  0.00    +0.000 A 
ATOM      5  C   UNL     1       5.962   4.247  16.267  0.00  0.00    +0.000 A 
ATOM      6  C   UNL     1       6.795   4.909  15.348  0.00  0.00    +0.000 A 
ATOM      7  C   UNL     1       6.939   4.637  13.899  0.00  0.00    +0.000 C 
ATOM      8  N   UNL     1       7.488   5.889  15.935  0.00  0.00    +0.000 NA
ATOM      9  N   UNL     1       7.094   5.852  17.229  0.00  0.00    +0.000 N 
BRANCH   9  10
ATOM     10  C   UNL     1       7.748   6.747  18.169  0.00  0.00    +0.000 C 
ATOM     11  C   UNL     1       7.893   8.168  17.651  0.00  0.00    +0.000 C 
ENDBRANCH   9  10
ENDBRANCH   2   4
ENDBRANCH   1   2
BRANCH   1  12
ATOM     12  C   UNL     1       3.931   6.319  18.003  0.00  0.00    +0.000 C 
BRANCH  12  15
ATOM     13  N   UNL     1       2.038   4.037  19.087  0.00  0.00    +0.000 N 
ATOM     14  C   UNL     1       1.865   4.851  17.909  0.00  0.00    +0.000 C 
ATOM     15  C   UNL     1       2.435   6.204  18.325  0.00  0.00    +0.000 C 
ATOM     16  C   UNL     1       2.195   6.242  19.836  0.00  0.00    +0.000 C 
ATOM     17  C   UNL     1       2.276   4.788  20.227  0.00  0.00    +0.000 C 
ATOM     18  O   UNL     1       2.480   4.368  21.352  0.00  0.00    +0.000 OA
BRANCH  13  20
ATOM     19  C   UNL     1       0.557   2.090  18.903  0.00  0.00    +0.000 C 
ATOM     20  C   UNL     1       1.980   2.590  19.059  0.00  0.00    +0.000 C 
ENDBRANCH  13  20
ENDBRANCH  12  15
ENDBRANCH   1  12
TORSDOF 6
ENDMDL
MODEL 7
REMARK VINA RESULT:      -6.6      1.254      1.951
REMARK  Name = 
REMARK  9 active torsions:
REMARK  status: ('A' for Active; 'I' for Inactive)
REMARK    1  A    between atoms: C_1  and  C_2
REMARK    2  A    between atoms: C_2  and  N_3
REMARK    3  A    between atoms: C_5  and  C_6
REMARK    4  A    between atoms: C_6  and  O_7
REMARK    5  A    between atoms: O_7  and  C_8
REMARK    6  A    between atoms: C_8  and  C_10
REMARK    7  A    between atoms: C_12  and  C_13
REMARK    8  A    between atoms: N_15  and  C_16
REMARK    9  A    between atoms: C_16  and  C_17
REMARK                            x       y       z     vdW  Elec       q    Type
REMARK                         _______ _______ _______ _____ _____    ______ ____
ROOT
ATOM      1  O   UNL     1       3.781   4.407  17.405  0.00  0.00    +0.000 OA
ENDROOT
BRANCH   1   2
ATOM      2  C   UNL     1       5.072   4.175  17.780  0.00  0.00    +0.000 C 
ATOM      3  O   UNL     1       5.406   3.714  18.860  0.00  0.00    +0.000 OA
BRANCH   2   4
ATOM      4  C   UNL     1       5.957   4.610  16.730  0.00  0.00    +0.000 A 
ATOM      5  C   UNL     1       6.145   4.068  15.471  0.00  0.00    +0.000 A 
ATOM      6  C   UNL     1       7.062   4.912  14.819  0.00  0.00    +0.000 A 
ATOM      7  C   UNL     1       7.559   4.805  13.428  0.00  0.00    +0.000 C 
ATOM      8  N   UNL     1       7.466   5.903  15.619  0.00  0.00    +0.000 NA
ATOM      9  N   UNL     1       6.804   5.692  16.780  0.00  0.00    +0.000 N 
BRANCH   9  10
ATOM     10  C   UNL     1       7.104   6.560  17.906  0.00  0.00    +0.000 C 
ATOM     11  C   UNL     1       7.994   5.911  18.951  0.00  0.00    +0.000 C 
ENDBRANCH   9  10
ENDBRANCH   2   4
ENDBRANCH   1   2
BRANCH   1  12
ATOM     12  C   UNL     1       2.917   3.261  17.351  0.00  0.00    +0.000 C 
BRANCH  12  15
ATOM     13  N   UNL     1       1.292   3.466  20.050  0.00  0.00    +0.000 N 
ATOM     14  C   UNL     1       0.932   2.755  18.848  0.00  0.00    +0.000 C 
ATOM     15  C   UNL     1       1.480   3.642  17.733  0.00  0.00    +0.000 C 
ATOM     16  C   UNL     1       1.428   5.047  18.339  0.00  0.00    +0.000 C 
ATOM     17  C   UNL     1       1.631   4.787  19.811  0.00  0.00    +0.000 C 
ATOM     18  O   UNL     1       1.994   5.612  20.631  0.00  0.00    +0.000 OA
BRANCH  13  20
ATOM     19  C   UNL     1       2.690   2.350  21.729  0.00  0.00    +0.000 C 
ATOM     20  C   UNL     1       1.305   2.843  21.359  0.00  0.00    +0.000 C 
ENDBRANCH  13  20
ENDBRANCH  12  15
ENDBRANCH   1  12
TORSDOF 6
ENDMDL
MODEL 8
REMARK VINA RESULT:      -6.6      1.377      2.528
REMARK  Name = 
REMARK  9 active torsions:
REMARK  status: ('A' for Active; 'I' for Inactive)
REMARK    1  A    between atoms: C_1  and  C_2
REMARK    2  A    between atoms: C_2  and  N_3
REMARK    3  A    between atoms: C_5  and  C_6
REMARK    4  A    between atoms: C_6  and  O_7
REMARK    5  A    between atoms: O_7  and  C_8
REMARK    6  A    between atoms: C_8  and  C_10
REMARK    7  A    between atoms: C_12  and  C_13
REMARK    8  A    between atoms: N_15  and  C_16
REMARK    9  A    between atoms: C_16  and  C_17
REMARK                            x       y       z     vdW  Elec       q    Type
REMARK                         _______ _______ _______ _____ _____    ______ ____
ROOT
ATOM      1  O   UNL     1       4.618   4.872  19.017  0.00  0.00    +0.000 OA
ENDROOT
BRANCH   1   2
ATOM      2  C   UNL     1       4.388   5.750  17.999  0.00  0.00    +0.000 C 
ATOM      3  O   UNL     1       3.478   6.563  17.977  0.00  0.00    +0.000 OA
BRANCH   2   4
ATOM      4  C   UNL     1       5.346   5.518  16.947  0.00  0.00    +0.000 A 
ATOM      5  C   UNL     1       5.203   4.773  15.790  0.00  0.00    +0.000 A 
ATOM      6  C   UNL     1       6.404   4.934  15.076  0.00  0.00    +0.000 A 
ATOM      7  C   UNL     1       6.745   4.385  13.743  0.00  0.00    +0.000 C 
ATOM      8  N   UNL     1       7.273   5.696  15.748  0.00  0.00    +0.000 NA
ATOM      9  N   UNL     1       6.624   6.021  16.889  0.00  0.00    +0.000 N 
BRANCH   9  10
ATOM     10  C   UNL     1       7.348   6.779  17.896  0.00  0.00    +0.000 C 
ATOM     11  C   UNL     1       7.939   5.914  18.996  0.00  0.00    +0.000 C 
ENDBRANCH   9  10
ENDBRANCH   2   4
ENDBRANCH   1   2
BRANCH   1  12
ATOM     12  C   UNL     1       4.899   3.516  18.638  0.00  0.00    +0.000 C 
BRANCH  12  15
ATOM     13  N   UNL     1       2.014   3.419  19.915  0.00  0.00    +0.000 N 
ATOM     14  C   UNL     1       3.284   3.246  20.576  0.00  0.00    +0.000 C 
ATOM     15  C   UNL     1       4.134   2.529  19.531  0.00  0.00    +0.000 C 
ATOM     16  C   UNL     1       3.105   1.739  18.717  0.00  0.00    +0.000 C 
ATOM     17  C   UNL     1       1.872   2.602  18.805  0.00  0.00    +0.000 C 
ATOM     18  O   UNL     1       0.918   2.552  18.049  0.00  0.00    +0.000 OA
BRANCH  13  20
ATOM     19  C   UNL     1       1.630   5.688  20.765  0.00  0.00    +0.000 C 
ATOM     20  C   UNL     1       1.012   4.361  20.370  0.00  0.00    +0.000 C 
ENDBRANCH  13  20
ENDBRANCH  12  15
ENDBRANCH   1  12
TORSDOF 6
ENDMDL
MODEL 9
REMARK VINA RESULT:      -6.5      1.595      6.268
REMARK  Name = 
REMARK  9 active torsions:
REMARK  status: ('A' for Active; 'I' for Inactive)
REMARK    1  A    between atoms: C_1  and  C_2
REMARK    2  A    between atoms: C_2  and  N_3
REMARK    3  A    between atoms: C_5  and  C_6
REMARK    4  A    between atoms: C_6  and  O_7
REMARK    5  A    between atoms: O_7  and  C_8
REMARK    6  A    between atoms: C_8  and  C_10
REMARK    7  A    between atoms: C_12  and  C_13
REMARK    8  A    between atoms: N_15  and  C_16
REMARK    9  A    between atoms: C_16  and  C_17
REMARK                            x       y       z     vdW  Elec       q    Type
REMARK                         _______ _______ _______ _____ _____    ______ ____
ROOT
ATOM      1  O   UNL     1       4.451   3.499  17.705  0.00  0.00    +0.000 OA
ENDROOT
BRANCH   1   2
ATOM      2  C   UNL     1       4.448   3.446  19.068  0.00  0.00    +0.000 C 
ATOM      3  O   UNL     1       5.173   2.725  19.735  0.00  0.00    +0.000 OA
BRANCH   2   4
ATOM      4  C   UNL     1       3.424   4.325  19.574  0.00  0.00    +0.000 A 
ATOM      5  C   UNL     1       3.482   5.690  19.795  0.00  0.00    +0.000 A 
ATOM      6  C   UNL     1       2.196   6.067  20.223  0.00  0.00    +0.000 A 
ATOM      7  C   UNL     1       1.712   7.430  20.541  0.00  0.00    +0.000 C 
ATOM      8  N   UNL     1       1.382   5.011  20.310  0.00  0.00    +0.000 NA
ATOM      9  N   UNL     1       2.149   3.961  19.936  0.00  0.00    +0.000 N 
BRANCH   9  10
ATOM     10  C   UNL     1       1.573   2.630  20.017  0.00  0.00    +0.000 C 
ATOM     11  C   UNL     1       0.874   2.193  18.741  0.00  0.00    +0.000 C 
ENDBRANCH   9  10
ENDBRANCH   2   4
ENDBRANCH   1   2
BRANCH   1  12
ATOM     12  C   UNL     1       4.135   4.771  17.116  0.00  0.00    +0.000 C 
BRANCH  12  15
ATOM     13  N   UNL     1       7.009   6.061  17.310  0.00  0.00    +0.000 N 
ATOM     14  C   UNL     1       5.893   6.496  16.508  0.00  0.00    +0.000 C 
ATOM     15  C   UNL     1       5.213   5.190  16.107  0.00  0.00    +0.000 C 
ATOM     16  C   UNL     1       6.364   4.182  16.086  0.00  0.00    +0.000 C 
ATOM     17  C   UNL     1       7.301   4.717  17.140  0.00  0.00    +0.000 C 
ATOM     18  O   UNL     1       8.173   4.079  17.702  0.00  0.00    +0.000 OA
BRANCH  13  20
ATOM     19  C   UNL     1       7.865   8.339  17.622  0.00  0.00    +0.000 C 
ATOM     20  C   UNL     1       7.728   6.946  18.205  0.00  0.00    +0.000 C 
ENDBRANCH  13  20
ENDBRANCH  12  15
ENDBRANCH   1  12
TORSDOF 6
ENDMDL
