MODEL 1
REMARK VINA RESULT:      -8.1      0.000      0.000
REMARK  Name = 
REMARK  7 active torsions:
REMARK  status: ('A' for Active; 'I' for Inactive)
REMARK    1  A    between atoms: C_1  and  C_2
REMARK    2  A    between atoms: C_2  and  N_3
REMARK    3  A    between atoms: N_6  and  C_7
REMARK    4  A    between atoms: C_10  and  C_11
REMARK    5  A    between atoms: C_13  and  C_14
REMARK    6  A    between atoms: C_16  and  C_17
REMARK    7  A    between atoms: C_23  and  C_24
REMARK                            x       y       z     vdW  Elec       q    Type
REMARK                         _______ _______ _______ _____ _____    ______ ____
ROOT
ATOM      1  C   UNL     1       7.715   7.055  18.088  0.00  0.00    +0.000 A 
ATOM      2  C   UNL     1       6.529   6.466  18.443  0.00  0.00    +0.000 A 
ATOM      3  N   UNL     1       6.071   5.827  17.308  0.00  0.00    +0.000 N 
ATOM      4  C   UNL     1       4.884   5.122  17.052  0.00  0.00    +0.000 A 
ATOM      5  C   UNL     1       4.756   4.518  15.846  0.00  0.00    +0.000 A 
ATOM      6  C   UNL     1       5.820   4.610  14.845  0.00  0.00    +0.000 A 
ATOM      7  C   UNL     1       6.931   5.329  15.105  0.00  0.00    +0.000 A 
ATOM      8  C   UNL     1       7.079   5.982  16.357  0.00  0.00    +0.000 A 
ATOM      9  N   UNL     1       8.044   6.757  16.796  0.00  0.00    +0.000 NA
ENDROOT
BRANCH   4  10
ATOM     10  C   UNL     1       3.785   5.042  18.024  0.00  0.00    +0.000 A 
ATOM     11  N   UNL     1       3.403   6.176  18.633  0.00  0.00    +0.000 NA
ATOM     12  C   UNL     1       2.401   6.091  19.528  0.00  0.00    +0.000 A 
ATOM     13  C   UNL     1       1.979   7.364  20.194  0.00  0.00    +0.000 C 
ATOM     14  C   UNL     1       1.778   4.896  19.827  0.00  0.00    +0.000 A 
ATOM     15  C   UNL     1       2.234   3.768  19.167  0.00  0.00    +0.000 A 
ATOM     16  N   UNL     1       3.247   3.838  18.267  0.00  0.00    +0.000 NA
BRANCH  15  17
ATOM     17  C   UNL     1       1.592   2.415  19.427  0.00  0.00    +0.000 C 
ATOM     18  F   UNL     1       0.368   2.277  18.837  0.00  0.00    +0.000 F 
ATOM     19  F   UNL     1       2.344   1.379  18.957  0.00  0.00    +0.000 F 
ATOM     20  F   UNL     1       1.390   2.166  20.751  0.00  0.00    +0.000 F 
ENDBRANCH  15  17
ENDBRANCH   4  10
BRANCH   1  24
ATOM     21  N   UNL     1       7.984   9.815  17.795  0.00  0.00    +0.000 N 
ATOM     22  C   UNL     1       8.702   9.189  18.768  0.00  0.00    +0.000 C 
ATOM     23  O   UNL     1       9.465   9.774  19.533  0.00  0.00    +0.000 OA
ATOM     24  N   UNL     1       8.495   7.843  18.895  0.00  0.00    +0.000 N 
ATOM     25  H   UNL     1       7.385   9.211  17.234  0.00  0.00    +0.000 HD
ATOM     26  H   UNL     1       8.950   7.419  19.689  0.00  0.00    +0.000 HD
BRANCH  21  28
ATOM     27  C   UNL     1       9.355  11.838  17.760  0.00  0.00    +0.000 C 
ATOM     28  C   UNL     1       7.981  11.232  17.549  0.00  0.00    +0.000 C 
ENDBRANCH  21  28
ENDBRANCH   1  24
BRANCH   6  29
ATOM     29  C   UNL     1       5.728   3.940  13.541  0.00  0.00    +0.000 A 
ATOM     30  C   UNL     1       4.491   3.725  12.928  0.00  0.00    +0.000 A 
ATOM     31  C   UNL     1       4.439   3.100  11.685  0.00  0.00    +0.000 A 
ATOM     32  C   UNL     1       5.632   2.713  11.092  0.00  0.00    +0.000 A 
ATOM     33  N   UNL     1       6.846   2.905  11.652  0.00  0.00    +0.000 NA
ATOM     34  C   UNL     1       6.866   3.514  12.862  0.00  0.00    +0.000 A 
ENDBRANCH   6  29
TORSDOF 5
ENDMDL
MODEL 2
REMARK VINA RESULT:      -8.0      7.534     10.408
REMARK  Name = 
REMARK  7 active torsions:
REMARK  status: ('A' for Active; 'I' for Inactive)
REMARK    1  A    between atoms: C_1  and  C_2
REMARK    2  A    between atoms: C_2  and  N_3
REMARK    3  A    between atoms: N_6  and  C_7
REMARK    4  A    between atoms: C_10  and  C_11
REMARK    5  A    between atoms: C_13  and  C_14
REMARK    6  A    between atoms: C_16  and  C_17
REMARK    7  A    between atoms: C_23  and  C_24
REMARK                            x       y       z     vdW  Elec       q    Type
REMARK                         _______ _______ _______ _____ _____    ______ ____
ROOT
ATOM      1  C   UNL     1      -0.757  12.697  21.609  0.00  0.00    +0.000 A 
ATOM      2  C   UNL     1      -1.535  12.259  20.570  0.00  0.00    +0.000 A 
ATOM      3  N   UNL     1      -0.804  11.271  19.942  0.00  0.00    +0.000 N 
ATOM      4  C   UNL     1      -1.061  10.516  18.785  0.00  0.00    +0.000 A 
ATOM      5  C   UNL     1      -0.181   9.538  18.462  0.00  0.00    +0.000 A 
ATOM      6  C   UNL     1       1.000   9.289  19.289  0.00  0.00    +0.000 A 
ATOM      7  C   UNL     1       1.241  10.058  20.371  0.00  0.00    +0.000 A 
ATOM      8  C   UNL     1       0.339  11.098  20.720  0.00  0.00    +0.000 A 
ATOM      9  N   UNL     1       0.403  11.981  21.690  0.00  0.00    +0.000 NA
ENDROOT
BRANCH   4  10
ATOM     10  C   UNL     1      -2.220  10.766  17.917  0.00  0.00    +0.000 A 
ATOM     11  N   UNL     1      -2.131  10.392  16.631  0.00  0.00    +0.000 NA
ATOM     12  C   UNL     1      -3.195  10.632  15.841  0.00  0.00    +0.000 A 
ATOM     13  C   UNL     1      -3.087  10.204  14.410  0.00  0.00    +0.000 C 
ATOM     14  C   UNL     1      -4.341  11.241  16.312  0.00  0.00    +0.000 A 
ATOM     15  C   UNL     1      -4.353  11.608  17.647  0.00  0.00    +0.000 A 
ATOM     16  N   UNL     1      -3.286  11.378  18.452  0.00  0.00    +0.000 NA
BRANCH  15  17
ATOM     17  C   UNL     1      -5.582  12.270  18.249  0.00  0.00    +0.000 C 
ATOM     18  F   UNL     1      -6.043  13.323  17.513  0.00  0.00    +0.000 F 
ATOM     19  F   UNL     1      -6.637  11.412  18.362  0.00  0.00    +0.000 F 
ATOM     20  F   UNL     1      -5.362  12.765  19.499  0.00  0.00    +0.000 F 
ENDBRANCH  15  17
ENDBRANCH   4  10
BRANCH   1  24
ATOM     21  N   UNL     1      -2.856  12.611  23.442  0.00  0.00    +0.000 N 
ATOM     22  C   UNL     1      -2.112  13.748  23.356  0.00  0.00    +0.000 C 
ATOM     23  O   UNL     1      -2.311  14.745  24.047  0.00  0.00    +0.000 OA
ATOM     24  N   UNL     1      -1.068  13.716  22.473  0.00  0.00    +0.000 N 
ATOM     25  H   UNL     1      -2.581  11.857  22.815  0.00  0.00    +0.000 HD
ATOM     26  H   UNL     1      -0.464  14.524  22.504  0.00  0.00    +0.000 HD
BRANCH  21  28
ATOM     27  C   UNL     1      -5.246  12.944  23.827  0.00  0.00    +0.000 C 
ATOM     28  C   UNL     1      -3.938  12.397  24.365  0.00  0.00    +0.000 C 
ENDBRANCH  21  28
ENDBRANCH   1  24
BRANCH   6  29
ATOM     29  C   UNL     1       1.957   8.216  18.986  0.00  0.00    +0.000 A 
ATOM     30  C   UNL     1       2.721   8.243  17.818  0.00  0.00    +0.000 A 
ATOM     31  C   UNL     1       3.629   7.217  17.566  0.00  0.00    +0.000 A 
ATOM     32  C   UNL     1       3.745   6.197  18.499  0.00  0.00    +0.000 A 
ATOM     33  N   UNL     1       3.026   6.138  19.640  0.00  0.00    +0.000 NA
ATOM     34  C   UNL     1       2.149   7.148  19.858  0.00  0.00    +0.000 A 
ENDBRANCH   6  29
TORSDOF 5
ENDMDL
MODEL 3
REMARK VINA RESULT:      -7.9      7.359     11.412
REMARK  Name = 
REMARK  7 active torsions:
REMARK  status: ('A' for Active; 'I' for Inactive)
REMARK    1  A    between atoms: C_1  and  C_2
REMARK    2  A    between atoms: C_2  and  N_3
REMARK    3  A    between atoms: N_6  and  C_7
REMARK    4  A    between atoms: C_10  and  C_11
REMARK    5  A    between atoms: C_13  and  C_14
REMARK    6  A    between atoms: C_16  and  C_17
REMARK    7  A    between atoms: C_23  and  C_24
REMARK                            x       y       z     vdW  Elec       q    Type
REMARK                         _______ _______ _______ _____ _____    ______ ____
ROOT
ATOM      1  C   UNL     1       1.263   9.382  18.553  0.00  0.00    +0.000 A 
ATOM      2  C   UNL     1       0.090   9.864  18.035  0.00  0.00    +0.000 A 
ATOM      3  N   UNL     1      -0.404  10.746  18.975  0.00  0.00    +0.000 N 
ATOM      4  C   UNL     1      -1.598  11.483  19.023  0.00  0.00    +0.000 A 
ATOM      5  C   UNL     1      -1.765  12.350  20.051  0.00  0.00    +0.000 A 
ATOM      6  C   UNL     1      -0.733  12.501  21.078  0.00  0.00    +0.000 A 
ATOM      7  C   UNL     1       0.386  11.749  21.027  0.00  0.00    +0.000 A 
ATOM      8  C   UNL     1       0.573  10.824  19.966  0.00  0.00    +0.000 A 
ATOM      9  N   UNL     1       1.552   9.974  19.749  0.00  0.00    +0.000 NA
ENDROOT
BRANCH   4  10
ATOM     10  C   UNL     1      -2.666  11.327  18.025  0.00  0.00    +0.000 A 
ATOM     11  N   UNL     1      -2.330  10.844  16.818  0.00  0.00    +0.000 NA
ATOM     12  C   UNL     1      -3.313  10.712  15.908  0.00  0.00    +0.000 A 
ATOM     13  C   UNL     1      -2.927  10.166  14.568  0.00  0.00    +0.000 C 
ATOM     14  C   UNL     1      -4.622  11.055  16.181  0.00  0.00    +0.000 A 
ATOM     15  C   UNL     1      -4.889  11.556  17.443  0.00  0.00    +0.000 A 
ATOM     16  N   UNL     1      -3.907  11.700  18.368  0.00  0.00    +0.000 NA
BRANCH  15  17
ATOM     17  C   UNL     1      -6.307  11.943  17.831  0.00  0.00    +0.000 C 
ATOM     18  F   UNL     1      -6.363  12.757  18.926  0.00  0.00    +0.000 F 
ATOM     19  F   UNL     1      -6.957  12.618  16.839  0.00  0.00    +0.000 F 
ATOM     20  F   UNL     1      -7.090  10.869  18.132  0.00  0.00    +0.000 F 
ENDBRANCH  15  17
ENDBRANCH   4  10
BRANCH   1  24
ATOM     21  N   UNL     1       2.027   7.008  19.798  0.00  0.00    +0.000 N 
ATOM     22  C   UNL     1       2.514   7.278  18.556  0.00  0.00    +0.000 C 
ATOM     23  O   UNL     1       3.273   6.529  17.944  0.00  0.00    +0.000 OA
ATOM     24  N   UNL     1       2.069   8.433  17.975  0.00  0.00    +0.000 N 
ATOM     25  H   UNL     1       1.403   7.712  20.189  0.00  0.00    +0.000 HD
ATOM     26  H   UNL     1       2.351   8.561  17.015  0.00  0.00    +0.000 HD
BRANCH  21  28
ATOM     27  C   UNL     1       1.325   4.699  20.189  0.00  0.00    +0.000 C 
ATOM     28  C   UNL     1       2.292   5.810  20.550  0.00  0.00    +0.000 C 
ENDBRANCH  21  28
ENDBRANCH   1  24
BRANCH   6  29
ATOM     29  C   UNL     1      -0.866  13.454  22.187  0.00  0.00    +0.000 A 
ATOM     30  C   UNL     1      -1.899  13.334  23.119  0.00  0.00    +0.000 A 
ATOM     31  C   UNL     1      -1.989  14.247  24.168  0.00  0.00    +0.000 A 
ATOM     32  C   UNL     1      -1.036  15.251  24.250  0.00  0.00    +0.000 A 
ATOM     33  N   UNL     1      -0.023  15.399  23.370  0.00  0.00    +0.000 NA
ATOM     34  C   UNL     1       0.039  14.498  22.360  0.00  0.00    +0.000 A 
ENDBRANCH   6  29
TORSDOF 5
ENDMDL
MODEL 4
REMARK VINA RESULT:      -7.8      7.396     10.899
REMARK  Name = 
REMARK  7 active torsions:
REMARK  status: ('A' for Active; 'I' for Inactive)
REMARK    1  A    between atoms: C_1  and  C_2
REMARK    2  A    between atoms: C_2  and  N_3
REMARK    3  A    between atoms: N_6  and  C_7
REMARK    4  A    between atoms: C_10  and  C_11
REMARK    5  A    between atoms: C_13  and  C_14
REMARK    6  A    between atoms: C_16  and  C_17
REMARK    7  A    between atoms: C_23  and  C_24
REMARK                            x       y       z     vdW  Elec       q    Type
REMARK                         _______ _______ _______ _____ _____    ______ ____
ROOT
ATOM      1  C   UNL     1       0.526   9.616  20.470  0.00  0.00    +0.000 A 
ATOM      2  C   UNL     1      -0.426   9.864  19.517  0.00  0.00    +0.000 A 
ATOM      3  N   UNL     1      -0.372  11.222  19.274  0.00  0.00    +0.000 N 
ATOM      4  C   UNL     1      -1.151  12.053  18.452  0.00  0.00    +0.000 A 
ATOM      5  C   UNL     1      -0.793  13.355  18.349  0.00  0.00    +0.000 A 
ATOM      6  C   UNL     1       0.364  13.874  19.080  0.00  0.00    +0.000 A 
ATOM      7  C   UNL     1       1.069  13.060  19.893  0.00  0.00    +0.000 A 
ATOM      8  C   UNL     1       0.701  11.695  20.027  0.00  0.00    +0.000 A 
ATOM      9  N   UNL     1       1.214  10.754  20.785  0.00  0.00    +0.000 NA
ENDROOT
BRANCH   4  10
ATOM     10  C   UNL     1      -2.338  11.568  17.734  0.00  0.00    +0.000 A 
ATOM     11  N   UNL     1      -2.169  11.103  16.486  0.00  0.00    +0.000 NA
ATOM     12  C   UNL     1      -3.263  10.667  15.834  0.00  0.00    +0.000 A 
ATOM     13  C   UNL     1      -3.060  10.144  14.445  0.00  0.00    +0.000 C 
ATOM     14  C   UNL     1      -4.520  10.692  16.403  0.00  0.00    +0.000 A 
ATOM     15  C   UNL     1      -4.617  11.195  17.688  0.00  0.00    +0.000 A 
ATOM     16  N   UNL     1      -3.524  11.643  18.356  0.00  0.00    +0.000 NA
BRANCH  15  17
ATOM     17  C   UNL     1      -5.962  11.243  18.395  0.00  0.00    +0.000 C 
ATOM     18  F   UNL     1      -5.945  11.990  19.537  0.00  0.00    +0.000 F 
ATOM     19  F   UNL     1      -6.944  11.783  17.617  0.00  0.00    +0.000 F 
ATOM     20  F   UNL     1      -6.411  10.012  18.769  0.00  0.00    +0.000 F 
ENDBRANCH  15  17
ENDBRANCH   4  10
BRANCH   1  24
ATOM     21  N   UNL     1       2.179   7.666  19.357  0.00  0.00    +0.000 N 
ATOM     22  C   UNL     1       1.544   7.391  20.529  0.00  0.00    +0.000 C 
ATOM     23  O   UNL     1       1.662   6.327  21.134  0.00  0.00    +0.000 OA
ATOM     24  N   UNL     1       0.785   8.401  21.052  0.00  0.00    +0.000 N 
ATOM     25  H   UNL     1       1.998   8.588  18.965  0.00  0.00    +0.000 HD
ATOM     26  H   UNL     1       0.414   8.219  21.972  0.00  0.00    +0.000 HD
BRANCH  21  28
ATOM     27  C   UNL     1       2.366   5.641  18.001  0.00  0.00    +0.000 C 
ATOM     28  C   UNL     1       3.093   6.784  18.683  0.00  0.00    +0.000 C 
ENDBRANCH  21  28
ENDBRANCH   1  24
BRANCH   6  29
ATOM     29  C   UNL     1       0.801  15.272  18.965  0.00  0.00    +0.000 A 
ATOM     30  C   UNL     1      -0.123  16.300  18.766  0.00  0.00    +0.000 A 
ATOM     31  C   UNL     1       0.321  17.617  18.675  0.00  0.00    +0.000 A 
ATOM     32  C   UNL     1       1.681  17.861  18.792  0.00  0.00    +0.000 A 
ATOM     33  N   UNL     1       2.604  16.895  18.987  0.00  0.00    +0.000 NA
ATOM     34  C   UNL     1       2.144  15.624  19.070  0.00  0.00    +0.000 A 
ENDBRANCH   6  29
TORSDOF 5
ENDMDL
MODEL 5
REMARK VINA RESULT:      -7.8      7.362     10.955
REMARK  Name = 
REMARK  7 active torsions:
REMARK  status: ('A' for Active; 'I' for Inactive)
REMARK    1  A    between atoms: C_1  and  C_2
REMARK    2  A    between atoms: C_2  and  N_3
REMARK    3  A    between atoms: N_6  and  C_7
REMARK    4  A    between atoms: C_10  and  C_11
REMARK    5  A    between atoms: C_13  and  C_14
REMARK    6  A    between atoms: C_16  and  C_17
REMARK    7  A    between atoms: C_23  and  C_24
REMARK                            x       y       z     vdW  Elec       q    Type
REMARK                         _______ _______ _______ _____ _____    ______ ____
ROOT
ATOM      1  C   UNL     1       0.516   9.464  20.599  0.00  0.00    +0.000 A 
ATOM      2  C   UNL     1      -0.428   9.773  19.655  0.00  0.00    +0.000 A 
ATOM      3  N   UNL     1      -0.347  11.139  19.474  0.00  0.00    +0.000 N 
ATOM      4  C   UNL     1      -1.107  12.021  18.689  0.00  0.00    +0.000 A 
ATOM      5  C   UNL     1      -0.724  13.320  18.647  0.00  0.00    +0.000 A 
ATOM      6  C   UNL     1       0.439  13.783  19.405  0.00  0.00    +0.000 A 
ATOM      7  C   UNL     1       1.125  12.920  20.183  0.00  0.00    +0.000 A 
ATOM      8  C   UNL     1       0.731  11.557  20.253  0.00  0.00    +0.000 A 
ATOM      9  N   UNL     1       1.223  10.572  20.969  0.00  0.00    +0.000 NA
ENDROOT
BRANCH   4  10
ATOM     10  C   UNL     1      -2.299  11.591  17.945  0.00  0.00    +0.000 A 
ATOM     11  N   UNL     1      -2.129  11.149  16.689  0.00  0.00    +0.000 NA
ATOM     12  C   UNL     1      -3.227  10.765  16.013  0.00  0.00    +0.000 A 
ATOM     13  C   UNL     1      -3.023  10.266  14.616  0.00  0.00    +0.000 C 
ATOM     14  C   UNL     1      -4.491  10.818  16.567  0.00  0.00    +0.000 A 
ATOM     15  C   UNL     1      -4.589  11.295  17.862  0.00  0.00    +0.000 A 
ATOM     16  N   UNL     1      -3.490  11.691  18.553  0.00  0.00    +0.000 NA
BRANCH  15  17
ATOM     17  C   UNL     1      -5.941  11.371  18.552  0.00  0.00    +0.000 C 
ATOM     18  F   UNL     1      -6.877  12.055  17.830  0.00  0.00    +0.000 F 
ATOM     19  F   UNL     1      -6.483  10.141  18.782  0.00  0.00    +0.000 F 
ATOM     20  F   UNL     1      -5.887  11.993  19.763  0.00  0.00    +0.000 F 
ENDBRANCH  15  17
ENDBRANCH   4  10
BRANCH   1  24
ATOM     21  N   UNL     1       2.195   7.563  19.442  0.00  0.00    +0.000 N 
ATOM     22  C   UNL     1       1.521   7.232  20.577  0.00  0.00    +0.000 C 
ATOM     23  O   UNL     1       1.613   6.137  21.130  0.00  0.00    +0.000 OA
ATOM     24  N   UNL     1       0.749   8.219  21.126  0.00  0.00    +0.000 N 
ATOM     25  H   UNL     1       2.032   8.505  19.092  0.00  0.00    +0.000 HD
ATOM     26  H   UNL     1       0.348   7.992  22.023  0.00  0.00    +0.000 HD
BRANCH  21  28
ATOM     27  C   UNL     1       2.416   5.630  17.962  0.00  0.00    +0.000 C 
ATOM     28  C   UNL     1       3.127   6.711  18.754  0.00  0.00    +0.000 C 
ENDBRANCH  21  28
ENDBRANCH   1  24
BRANCH   6  29
ATOM     29  C   UNL     1       0.902  15.176  19.357  0.00  0.00    +0.000 A 
ATOM     30  C   UNL     1       2.077  15.521  18.685  0.00  0.00    +0.000 A 
ATOM     31  C   UNL     1       2.481  16.854  18.646  0.00  0.00    +0.000 A 
ATOM     32  C   UNL     1       1.690  17.800  19.279  0.00  0.00    +0.000 A 
ATOM     33  N   UNL     1       0.547  17.506  19.936  0.00  0.00    +0.000 NA
ATOM     34  C   UNL     1       0.179  16.202  19.960  0.00  0.00    +0.000 A 
ENDBRANCH   6  29
TORSDOF 5
ENDMDL
MODEL 6
REMARK VINA RESULT:      -7.7      6.999      9.344
REMARK  Name = 
REMARK  7 active torsions:
REMARK  status: ('A' for Active; 'I' for Inactive)
REMARK    1  A    between atoms: C_1  and  C_2
REMARK    2  A    between atoms: C_2  and  N_3
REMARK    3  A    between atoms: N_6  and  C_7
REMARK    4  A    between atoms: C_10  and  C_11
REMARK    5  A    between atoms: C_13  and  C_14
REMARK    6  A    between atoms: C_16  and  C_17
REMARK    7  A    between atoms: C_23  and  C_24
REMARK                            x       y       z     vdW  Elec       q    Type
REMARK                         _______ _______ _______ _____ _____    ______ ____
ROOT
ATOM      1  C   UNL     1       1.523  14.419  18.528  0.00  0.00    +0.000 A 
ATOM      2  C   UNL     1       0.285  13.967  18.902  0.00  0.00    +0.000 A 
ATOM      3  N   UNL     1       0.373  12.590  18.912  0.00  0.00    +0.000 N 
ATOM      4  C   UNL     1      -0.592  11.597  19.149  0.00  0.00    +0.000 A 
ATOM      5  C   UNL     1      -0.177  10.308  19.181  0.00  0.00    +0.000 A 
ATOM      6  C   UNL     1       1.230   9.968  18.965  0.00  0.00    +0.000 A 
ATOM      7  C   UNL     1       2.126  10.941  18.698  0.00  0.00    +0.000 A 
ATOM      8  C   UNL     1       1.709  12.297  18.646  0.00  0.00    +0.000 A 
ATOM      9  N   UNL     1       2.396  13.381  18.365  0.00  0.00    +0.000 NA
ENDROOT
BRANCH   4  10
ATOM     10  C   UNL     1      -2.017  11.905  19.336  0.00  0.00    +0.000 A 
ATOM     11  N   UNL     1      -2.402  12.394  20.525  0.00  0.00    +0.000 NA
ATOM     12  C   UNL     1      -3.710  12.667  20.689  0.00  0.00    +0.000 A 
ATOM     13  C   UNL     1      -4.126  13.218  22.018  0.00  0.00    +0.000 C 
ATOM     14  C   UNL     1      -4.638  12.457  19.689  0.00  0.00    +0.000 A 
ATOM     15  C   UNL     1      -4.168  11.941  18.494  0.00  0.00    +0.000 A 
ATOM     16  N   UNL     1      -2.853  11.656  18.317  0.00  0.00    +0.000 NA
BRANCH  15  17
ATOM     17  C   UNL     1      -5.121  11.695  17.336  0.00  0.00    +0.000 C 
ATOM     18  F   UNL     1      -5.622  12.845  16.797  0.00  0.00    +0.000 F 
ATOM     19  F   UNL     1      -4.529  11.033  16.301  0.00  0.00    +0.000 F 
ATOM     20  F   UNL     1      -6.207  10.952  17.688  0.00  0.00    +0.000 F 
ENDBRANCH  15  17
ENDBRANCH   4  10
BRANCH   1  24
ATOM     21  N   UNL     1       3.740  15.633  19.704  0.00  0.00    +0.000 N 
ATOM     22  C   UNL     1       2.921  16.389  18.922  0.00  0.00    +0.000 C 
ATOM     23  O   UNL     1       3.105  17.584  18.699  0.00  0.00    +0.000 OA
ATOM     24  N   UNL     1       1.877  15.730  18.334  0.00  0.00    +0.000 N 
ATOM     25  H   UNL     1       3.474  14.655  19.802  0.00  0.00    +0.000 HD
ATOM     26  H   UNL     1       1.349  16.279  17.673  0.00  0.00    +0.000 HD
BRANCH  21  28
ATOM     27  C   UNL     1       5.560  15.032  21.220  0.00  0.00    +0.000 C 
ATOM     28  C   UNL     1       4.941  16.101  20.342  0.00  0.00    +0.000 C 
ENDBRANCH  21  28
ENDBRANCH   1  24
BRANCH   6  29
ATOM     29  C   UNL     1       1.720   8.584  19.025  0.00  0.00    +0.000 A 
ATOM     30  C   UNL     1       2.307   7.980  17.911  0.00  0.00    +0.000 A 
ATOM     31  C   UNL     1       2.774   6.671  18.004  0.00  0.00    +0.000 A 
ATOM     32  C   UNL     1       2.640   6.010  19.215  0.00  0.00    +0.000 A 
ATOM     33  N   UNL     1       2.080   6.560  20.314  0.00  0.00    +0.000 NA
ATOM     34  C   UNL     1       1.634   7.834  20.194  0.00  0.00    +0.000 A 
ENDBRANCH   6  29
TORSDOF 5
ENDMDL
MODEL 7
REMARK VINA RESULT:      -7.7      7.394      9.832
REMARK  Name = 
REMARK  7 active torsions:
REMARK  status: ('A' for Active; 'I' for Inactive)
REMARK    1  A    between atoms: C_1  and  C_2
REMARK    2  A    between atoms: C_2  and  N_3
REMARK    3  A    between atoms: N_6  and  C_7
REMARK    4  A    between atoms: C_10  and  C_11
REMARK    5  A    between atoms: C_13  and  C_14
REMARK    6  A    between atoms: C_16  and  C_17
REMARK    7  A    between atoms: C_23  and  C_24
REMARK                            x       y       z     vdW  Elec       q    Type
REMARK                         _______ _______ _______ _____ _____    ______ ____
ROOT
ATOM      1  C   UNL     1      -0.970  12.423  21.773  0.00  0.00    +0.000 A 
ATOM      2  C   UNL     1      -1.694  12.037  20.675  0.00  0.00    +0.000 A 
ATOM      3  N   UNL     1      -0.914  11.109  20.016  0.00  0.00    +0.000 N 
ATOM      4  C   UNL     1      -1.104  10.426  18.803  0.00  0.00    +0.000 A 
ATOM      5  C   UNL     1      -0.188   9.490  18.455  0.00  0.00    +0.000 A 
ATOM      6  C   UNL     1       0.963   9.213  19.314  0.00  0.00    +0.000 A 
ATOM      7  C   UNL     1       1.141   9.914  20.453  0.00  0.00    +0.000 A 
ATOM      8  C   UNL     1       0.200  10.909  20.829  0.00  0.00    +0.000 A 
ATOM      9  N   UNL     1       0.202  11.727  21.857  0.00  0.00    +0.000 NA
ENDROOT
BRANCH   4  10
ATOM     10  C   UNL     1      -2.232  10.708  17.904  0.00  0.00    +0.000 A 
ATOM     11  N   UNL     1      -2.117  10.338  16.619  0.00  0.00    +0.000 NA
ATOM     12  C   UNL     1      -3.151  10.607  15.801  0.00  0.00    +0.000 A 
ATOM     13  C   UNL     1      -3.014  10.183  14.372  0.00  0.00    +0.000 C 
ATOM     14  C   UNL     1      -4.295  11.241  16.243  0.00  0.00    +0.000 A 
ATOM     15  C   UNL     1      -4.337  11.602  17.579  0.00  0.00    +0.000 A 
ATOM     16  N   UNL     1      -3.298  11.342  18.413  0.00  0.00    +0.000 NA
BRANCH  15  17
ATOM     17  C   UNL     1      -5.566  12.289  18.151  0.00  0.00    +0.000 C 
ATOM     18  F   UNL     1      -6.292  12.964  17.211  0.00  0.00    +0.000 F 
ATOM     19  F   UNL     1      -6.437  11.413  18.727  0.00  0.00    +0.000 F 
ATOM     20  F   UNL     1      -5.265  13.209  19.110  0.00  0.00    +0.000 F 
ENDBRANCH  15  17
ENDBRANCH   4  10
BRANCH   1  24
ATOM     21  N   UNL     1       0.442  14.781  22.238  0.00  0.00    +0.000 N 
ATOM     22  C   UNL     1      -0.662  14.523  22.991  0.00  0.00    +0.000 C 
ATOM     23  O   UNL     1      -1.079  15.277  23.868  0.00  0.00    +0.000 OA
ATOM     24  N   UNL     1      -1.341  13.376  22.687  0.00  0.00    +0.000 N 
ATOM     25  H   UNL     1       0.674  14.075  21.541  0.00  0.00    +0.000 HD
ATOM     26  H   UNL     1      -2.214  13.258  23.178  0.00  0.00    +0.000 HD
BRANCH  21  28
ATOM     27  C   UNL     1       2.675  15.711  21.885  0.00  0.00    +0.000 C 
ATOM     28  C   UNL     1       1.248  15.970  22.327  0.00  0.00    +0.000 C 
ENDBRANCH  21  28
ENDBRANCH   1  24
BRANCH   6  29
ATOM     29  C   UNL     1       1.957   8.183  18.983  0.00  0.00    +0.000 A 
ATOM     30  C   UNL     1       2.719   8.267  17.816  0.00  0.00    +0.000 A 
ATOM     31  C   UNL     1       3.663   7.281  17.538  0.00  0.00    +0.000 A 
ATOM     32  C   UNL     1       3.815   6.242  18.443  0.00  0.00    +0.000 A 
ATOM     33  N   UNL     1       3.099   6.127  19.582  0.00  0.00    +0.000 NA
ATOM     34  C   UNL     1       2.187   7.099  19.826  0.00  0.00    +0.000 A 
ENDBRANCH   6  29
TORSDOF 5
ENDMDL
MODEL 8
REMARK VINA RESULT:      -7.7      7.889     10.310
REMARK  Name = 
REMARK  7 active torsions:
REMARK  status: ('A' for Active; 'I' for Inactive)
REMARK    1  A    between atoms: C_1  and  C_2
REMARK    2  A    between atoms: C_2  and  N_3
REMARK    3  A    between atoms: N_6  and  C_7
REMARK    4  A    between atoms: C_10  and  C_11
REMARK    5  A    between atoms: C_13  and  C_14
REMARK    6  A    between atoms: C_16  and  C_17
REMARK    7  A    between atoms: C_23  and  C_24
REMARK                            x       y       z     vdW  Elec       q    Type
REMARK                         _______ _______ _______ _____ _____    ______ ____
ROOT
ATOM      1  C   UNL     1       0.527  15.229  18.953  0.00  0.00    +0.000 A 
ATOM      2  C   UNL     1      -0.568  14.650  19.538  0.00  0.00    +0.000 A 
ATOM      3  N   UNL     1      -0.355  13.288  19.472  0.00  0.00    +0.000 N 
ATOM      4  C   UNL     1      -1.160  12.200  19.846  0.00  0.00    +0.000 A 
ATOM      5  C   UNL     1      -0.631  10.957  19.742  0.00  0.00    +0.000 A 
ATOM      6  C   UNL     1       0.731  10.762  19.245  0.00  0.00    +0.000 A 
ATOM      7  C   UNL     1       1.466  11.824  18.854  0.00  0.00    +0.000 A 
ATOM      8  C   UNL     1       0.925  13.134  18.941  0.00  0.00    +0.000 A 
ATOM      9  N   UNL     1       1.442  14.286  18.580  0.00  0.00    +0.000 NA
ENDROOT
BRANCH   4  10
ATOM     10  C   UNL     1      -2.543  12.363  20.316  0.00  0.00    +0.000 A 
ATOM     11  N   UNL     1      -3.522  12.358  19.397  0.00  0.00    +0.000 NA
ATOM     12  C   UNL     1      -4.784  12.516  19.836  0.00  0.00    +0.000 A 
ATOM     13  C   UNL     1      -5.868  12.501  18.803  0.00  0.00    +0.000 C 
ATOM     14  C   UNL     1      -5.086  12.682  21.173  0.00  0.00    +0.000 A 
ATOM     15  C   UNL     1      -4.023  12.688  22.060  0.00  0.00    +0.000 A 
ATOM     16  N   UNL     1      -2.744  12.535  21.631  0.00  0.00    +0.000 NA
BRANCH  15  17
ATOM     17  C   UNL     1      -4.268  12.849  23.551  0.00  0.00    +0.000 C 
ATOM     18  F   UNL     1      -3.504  12.016  24.316  0.00  0.00    +0.000 F 
ATOM     19  F   UNL     1      -3.993  14.109  23.995  0.00  0.00    +0.000 F 
ATOM     20  F   UNL     1      -5.558  12.595  23.910  0.00  0.00    +0.000 F 
ENDBRANCH  15  17
ENDBRANCH   4  10
BRANCH   1  24
ATOM     21  N   UNL     1       2.753  16.650  19.848  0.00  0.00    +0.000 N 
ATOM     22  C   UNL     1       1.760  17.328  19.210  0.00  0.00    +0.000 C 
ATOM     23  O   UNL     1       1.789  18.539  19.000  0.00  0.00    +0.000 OA
ATOM     24  N   UNL     1       0.716  16.573  18.752  0.00  0.00    +0.000 N 
ATOM     25  H   UNL     1       2.604  15.648  19.952  0.00  0.00    +0.000 HD
ATOM     26  H   UNL     1       0.047  17.075  18.187  0.00  0.00    +0.000 HD
BRANCH  21  28
ATOM     27  C   UNL     1       5.185  16.418  19.903  0.00  0.00    +0.000 C 
ATOM     28  C   UNL     1       3.978  17.231  20.328  0.00  0.00    +0.000 C 
ENDBRANCH  21  28
ENDBRANCH   1  24
BRANCH   6  29
ATOM     29  C   UNL     1       1.347   9.432  19.149  0.00  0.00    +0.000 A 
ATOM     30  C   UNL     1       1.932   8.994  17.959  0.00  0.00    +0.000 A 
ATOM     31  C   UNL     1       2.520   7.732  17.906  0.00  0.00    +0.000 A 
ATOM     32  C   UNL     1       2.506   6.950  19.050  0.00  0.00    +0.000 A 
ATOM     33  N   UNL     1       1.951   7.339  20.219  0.00  0.00    +0.000 NA
ATOM     34  C   UNL     1       1.386   8.569  20.242  0.00  0.00    +0.000 A 
ENDBRANCH   6  29
TORSDOF 5
ENDMDL
MODEL 9
REMARK VINA RESULT:      -7.7      7.472      9.725
REMARK  Name = 
REMARK  7 active torsions:
REMARK  status: ('A' for Active; 'I' for Inactive)
REMARK    1  A    between atoms: C_1  and  C_2
REMARK    2  A    between atoms: C_2  and  N_3
REMARK    3  A    between atoms: N_6  and  C_7
REMARK    4  A    between atoms: C_10  and  C_11
REMARK    5  A    between atoms: C_13  and  C_14
REMARK    6  A    between atoms: C_16  and  C_17
REMARK    7  A    between atoms: C_23  and  C_24
REMARK                            x       y       z     vdW  Elec       q    Type
REMARK                         _______ _______ _______ _____ _____    ______ ____
ROOT
ATOM      1  C   UNL     1      -0.065  13.861  20.215  0.00  0.00    +0.000 A 
ATOM      2  C   UNL     1      -1.039  13.203  19.511  0.00  0.00    +0.000 A 
ATOM      3  N   UNL     1      -0.487  11.992  19.146  0.00  0.00    +0.000 N 
ATOM      4  C   UNL     1      -0.986  10.940  18.359  0.00  0.00    +0.000 A 
ATOM      5  C   UNL     1      -0.234   9.819  18.252  0.00  0.00    +0.000 A 
ATOM      6  C   UNL     1       1.060   9.718  18.929  0.00  0.00    +0.000 A 
ATOM      7  C   UNL     1       1.532  10.760  19.643  0.00  0.00    +0.000 A 
ATOM      8  C   UNL     1       0.765  11.951  19.756  0.00  0.00    +0.000 A 
ATOM      9  N   UNL     1       1.049  13.084  20.356  0.00  0.00    +0.000 NA
ENDROOT
BRANCH   4  10
ATOM     10  C   UNL     1      -2.266  11.027  17.641  0.00  0.00    +0.000 A 
ATOM     11  N   UNL     1      -2.295  10.621  16.362  0.00  0.00    +0.000 NA
ATOM     12  C   UNL     1      -3.469  10.712  15.710  0.00  0.00    +0.000 A 
ATOM     13  C   UNL     1      -3.491  10.249  14.286  0.00  0.00    +0.000 C 
ATOM     14  C   UNL     1      -4.611  11.202  16.311  0.00  0.00    +0.000 A 
ATOM     15  C   UNL     1      -4.500  11.611  17.629  0.00  0.00    +0.000 A 
ATOM     16  N   UNL     1      -3.322  11.531  18.296  0.00  0.00    +0.000 NA
BRANCH  15  17
ATOM     17  C   UNL     1      -5.714  12.149  18.370  0.00  0.00    +0.000 C 
ATOM     18  F   UNL     1      -6.755  12.461  17.544  0.00  0.00    +0.000 F 
ATOM     19  F   UNL     1      -6.215  11.258  19.272  0.00  0.00    +0.000 F 
ATOM     20  F   UNL     1      -5.449  13.287  19.071  0.00  0.00    +0.000 F 
ENDBRANCH  15  17
ENDBRANCH   4  10
BRANCH   1  24
ATOM     21  N   UNL     1       1.384  16.046  19.266  0.00  0.00    +0.000 N 
ATOM     22  C   UNL     1       0.560  16.224  20.335  0.00  0.00    +0.000 C 
ATOM     23  O   UNL     1       0.412  17.302  20.908  0.00  0.00    +0.000 OA
ATOM     24  N   UNL     1      -0.161  15.130  20.727  0.00  0.00    +0.000 N 
ATOM     25  H   UNL     1       1.408  15.102  18.883  0.00  0.00    +0.000 HD
ATOM     26  H   UNL     1      -0.845  15.310  21.446  0.00  0.00    +0.000 HD
BRANCH  21  28
ATOM     27  C   UNL     1       2.948  16.545  17.456  0.00  0.00    +0.000 C 
ATOM     28  C   UNL     1       2.160  17.080  18.636  0.00  0.00    +0.000 C 
ENDBRANCH  21  28
ENDBRANCH   1  24
BRANCH   6  29
ATOM     29  C   UNL     1       1.887   8.505  18.861  0.00  0.00    +0.000 A 
ATOM     30  C   UNL     1       2.678   8.236  17.742  0.00  0.00    +0.000 A 
ATOM     31  C   UNL     1       3.462   7.085  17.715  0.00  0.00    +0.000 A 
ATOM     32  C   UNL     1       3.428   6.240  18.814  0.00  0.00    +0.000 A 
ATOM     33  N   UNL     1       2.678   6.467  19.913  0.00  0.00    +0.000 NA
ATOM     34  C   UNL     1       1.925   7.593  19.912  0.00  0.00    +0.000 A 
ENDBRANCH   6  29
TORSDOF 5
ENDMDL
