MODEL 1
REMARK VINA RESULT:      -7.2      0.000      0.000
REMARK  Name = 
REMARK  14 active torsions:
REMARK  status: ('A' for Active; 'I' for Inactive)
REMARK    1  A    between atoms: C_1  and  O_2
REMARK    2  A    between atoms: O_2  and  C_3
REMARK    3  A    between atoms: C_6  and  C_7
REMARK    4  A    between atoms: C_10  and  C_11
REMARK    5  A    between atoms: C_14  and  O_15
REMARK    6  A    between atoms: O_15  and  C_16
REMARK    7  A    between atoms: C_16  and  C_17
REMARK    8  A    between atoms: C_17  and  O_18
REMARK    9  A    between atoms: C_17  and  C_19
REMARK   10  A    between atoms: C_19  and  N_20
REMARK   11  A    between atoms: N_20  and  C_21
REMARK   12  A    between atoms: C_21  and  C_22
REMARK   13  A    between atoms: C_21  and  C_23
REMARK   14  A    between atoms: C_21  and  C_24
REMARK                            x       y       z     vdW  Elec       q    Type
REMARK                         _______ _______ _______ _____ _____    ______ ____
ROOT
ATOM      1  C   UNL     1       1.440   9.078  18.913  0.00  0.00    +0.000 A 
ATOM      2  C   UNL     1       2.216   8.949  17.765  0.00  0.00    +0.000 A 
ATOM      3  C   UNL     1       3.138   7.920  17.650  0.00  0.00    +0.000 A 
ATOM      4  C   UNL     1       3.298   6.985  18.677  0.00  0.00    +0.000 A 
ATOM      5  C   UNL     1       2.509   7.090  19.823  0.00  0.00    +0.000 A 
ATOM      6  C   UNL     1       1.579   8.134  19.941  0.00  0.00    +0.000 A 
ENDROOT
BRANCH   1  10
ATOM      7  C   UNL     1      -1.443  11.279  18.825  0.00  0.00    +0.000 A 
ATOM      8  C   UNL     1      -0.491  12.029  19.481  0.00  0.00    +0.000 A 
ATOM      9  N   UNL     1       0.703  11.357  19.595  0.00  0.00    +0.000 NA
ATOM     10  C   UNL     1       0.493  10.181  19.037  0.00  0.00    +0.000 A 
ATOM     11  N   UNL     1      -0.789  10.107  18.542  0.00  0.00    +0.000 N 
ATOM     12  H   UNL     1      -1.167   9.332  18.017  0.00  0.00    +0.000 HD
BRANCH   7  16
ATOM     13  C   UNL     1      -5.478  12.021  17.663  0.00  0.00    +0.000 A 
ATOM     14  C   UNL     1      -4.565  11.502  16.750  0.00  0.00    +0.000 A 
ATOM     15  C   UNL     1      -3.241  11.261  17.130  0.00  0.00    +0.000 A 
ATOM     16  C   UNL     1      -2.813  11.552  18.427  0.00  0.00    +0.000 A 
ATOM     17  C   UNL     1      -3.729  12.096  19.335  0.00  0.00    +0.000 A 
ATOM     18  C   UNL     1      -5.056  12.329  18.958  0.00  0.00    +0.000 A 
BRANCH  13  20
ATOM     19  C   UNL     1      -7.104  13.582  16.956  0.00  0.00    +0.000 C 
ATOM     20  O   UNL     1      -6.744  12.222  17.184  0.00  0.00    +0.000 OA
ENDBRANCH  13  20
ENDBRANCH   7  16
ENDBRANCH   1  10
BRANCH   4  21
ATOM     21  O   UNL     1       4.201   5.948  18.629  0.00  0.00    +0.000 OA
BRANCH  21  22
ATOM     22  C   UNL     1       4.291   5.325  17.336  0.00  0.00    +0.000 C 
BRANCH  22  23
ATOM     23  C   UNL     1       4.849   3.914  17.433  0.00  0.00    +0.000 C 
BRANCH  23  24
ATOM     24  O   UNL     1       6.015   3.911  18.267  0.00  0.00    +0.000 OA
ATOM     25  H   UNL     1       5.734   4.279  19.126  0.00  0.00    +0.000 HD
ENDBRANCH  23  24
BRANCH  23  26
ATOM     26  C   UNL     1       3.824   2.914  17.980  0.00  0.00    +0.000 C 
BRANCH  26  27
ATOM     27  N   UNL     1       3.082   3.426  19.140  0.00  0.00    +0.000 NA
ATOM     28  H   UNL     1       3.374   4.386  19.327  0.00  0.00    +0.000 HD
BRANCH  27  29
ATOM     29  C   UNL     1       1.612   3.387  19.002  0.00  0.00    +0.000 C 
ATOM     30  C   UNL     1       1.139   4.157  17.757  0.00  0.00    +0.000 C 
ATOM     31  C   UNL     1       1.204   1.910  18.830  0.00  0.00    +0.000 C 
ATOM     32  C   UNL     1       0.922   3.933  20.265  0.00  0.00    +0.000 C 
ENDBRANCH  27  29
ENDBRANCH  26  27
ENDBRANCH  23  26
ENDBRANCH  22  23
ENDBRANCH  21  22
ENDBRANCH   4  21
TORSDOF 10
ENDMDL
MODEL 2
REMARK VINA RESULT:      -7.1      3.267      4.415
REMARK  Name = 
REMARK  14 active torsions:
REMARK  status: ('A' for Active; 'I' for Inactive)
REMARK    1  A    between atoms: C_1  and  O_2
REMARK    2  A    between atoms: O_2  and  C_3
REMARK    3  A    between atoms: C_6  and  C_7
REMARK    4  A    between atoms: C_10  and  C_11
REMARK    5  A    between atoms: C_14  and  O_15
REMARK    6  A    between atoms: O_15  and  C_16
REMARK    7  A    between atoms: C_16  and  C_17
REMARK    8  A    between atoms: C_17  and  O_18
REMARK    9  A    between atoms: C_17  and  C_19
REMARK   10  A    between atoms: C_19  and  N_20
REMARK   11  A    between atoms: N_20  and  C_21
REMARK   12  A    between atoms: C_21  and  C_22
REMARK   13  A    between atoms: C_21  and  C_23
REMARK   14  A    between atoms: C_21  and  C_24
REMARK                            x       y       z     vdW  Elec       q    Type
REMARK                         _______ _______ _______ _____ _____    ______ ____
ROOT
ATOM      1  C   UNL     1       2.150   8.056  18.792  0.00  0.00    +0.000 A 
ATOM      2  C   UNL     1       3.021   7.990  17.709  0.00  0.00    +0.000 A 
ATOM      3  C   UNL     1       3.929   6.948  17.597  0.00  0.00    +0.000 A 
ATOM      4  C   UNL     1       3.978   5.937  18.563  0.00  0.00    +0.000 A 
ATOM      5  C   UNL     1       3.094   5.980  19.641  0.00  0.00    +0.000 A 
ATOM      6  C   UNL     1       2.179   7.037  19.755  0.00  0.00    +0.000 A 
ENDROOT
BRANCH   1  10
ATOM      7  C   UNL     1      -0.144  10.627  19.930  0.00  0.00    +0.000 A 
ATOM      8  C   UNL     1      -0.059  10.855  18.573  0.00  0.00    +0.000 A 
ATOM      9  N   UNL     1       0.765   9.949  17.951  0.00  0.00    +0.000 NA
ATOM     10  C   UNL     1       1.218   9.172  18.916  0.00  0.00    +0.000 A 
ATOM     11  N   UNL     1       0.672   9.542  20.124  0.00  0.00    +0.000 N 
ATOM     12  H   UNL     1       0.816   9.061  21.000  0.00  0.00    +0.000 HD
BRANCH   7  16
ATOM     13  C   UNL     1      -2.415  12.473  23.030  0.00  0.00    +0.000 A 
ATOM     14  C   UNL     1      -2.467  12.965  21.730  0.00  0.00    +0.000 A 
ATOM     15  C   UNL     1      -1.720  12.361  20.714  0.00  0.00    +0.000 A 
ATOM     16  C   UNL     1      -0.900  11.266  20.993  0.00  0.00    +0.000 A 
ATOM     17  C   UNL     1      -0.833  10.789  22.307  0.00  0.00    +0.000 A 
ATOM     18  C   UNL     1      -1.587  11.388  23.323  0.00  0.00    +0.000 A 
BRANCH  13  20
ATOM     19  C   UNL     1      -4.269  12.404  24.493  0.00  0.00    +0.000 C 
ATOM     20  O   UNL     1      -3.180  13.143  23.947  0.00  0.00    +0.000 OA
ENDBRANCH  13  20
ENDBRANCH   7  16
ENDBRANCH   1  10
BRANCH   4  21
ATOM     21  O   UNL     1       4.861   4.883  18.516  0.00  0.00    +0.000 OA
BRANCH  21  22
ATOM     22  C   UNL     1       5.939   4.996  19.462  0.00  0.00    +0.000 C 
BRANCH  22  23
ATOM     23  C   UNL     1       7.200   5.541  18.810  0.00  0.00    +0.000 C 
BRANCH  23  24
ATOM     24  O   UNL     1       8.299   5.443  19.725  0.00  0.00    +0.000 OA
ATOM     25  H   UNL     1       8.083   6.036  20.470  0.00  0.00    +0.000 HD
ENDBRANCH  23  24
BRANCH  23  26
ATOM     26  C   UNL     1       7.549   4.812  17.508  0.00  0.00    +0.000 C 
BRANCH  26  27
ATOM     27  N   UNL     1       7.362   5.645  16.312  0.00  0.00    +0.000 NA
ATOM     28  H   UNL     1       8.275   5.876  15.920  0.00  0.00    +0.000 HD
BRANCH  27  29
ATOM     29  C   UNL     1       6.523   5.039  15.260  0.00  0.00    +0.000 C 
ATOM     30  C   UNL     1       5.270   5.885  14.974  0.00  0.00    +0.000 C 
ATOM     31  C   UNL     1       7.366   4.987  13.970  0.00  0.00    +0.000 C 
ATOM     32  C   UNL     1       6.123   3.599  15.632  0.00  0.00    +0.000 C 
ENDBRANCH  27  29
ENDBRANCH  26  27
ENDBRANCH  23  26
ENDBRANCH  22  23
ENDBRANCH  21  22
ENDBRANCH   4  21
TORSDOF 10
ENDMDL
MODEL 3
REMARK VINA RESULT:      -7.1      2.048      3.153
REMARK  Name = 
REMARK  14 active torsions:
REMARK  status: ('A' for Active; 'I' for Inactive)
REMARK    1  A    between atoms: C_1  and  O_2
REMARK    2  A    between atoms: O_2  and  C_3
REMARK    3  A    between atoms: C_6  and  C_7
REMARK    4  A    between atoms: C_10  and  C_11
REMARK    5  A    between atoms: C_14  and  O_15
REMARK    6  A    between atoms: O_15  and  C_16
REMARK    7  A    between atoms: C_16  and  C_17
REMARK    8  A    between atoms: C_17  and  O_18
REMARK    9  A    between atoms: C_17  and  C_19
REMARK   10  A    between atoms: C_19  and  N_20
REMARK   11  A    between atoms: N_20  and  C_21
REMARK   12  A    between atoms: C_21  and  C_22
REMARK   13  A    between atoms: C_21  and  C_23
REMARK   14  A    between atoms: C_21  and  C_24
REMARK                            x       y       z     vdW  Elec       q    Type
REMARK                         _______ _______ _______ _____ _____    ______ ____
ROOT
ATOM      1  C   UNL     1       1.855   8.497  18.799  0.00  0.00    +0.000 A 
ATOM      2  C   UNL     1       2.642   8.453  17.653  0.00  0.00    +0.000 A 
ATOM      3  C   UNL     1       3.560   7.432  17.466  0.00  0.00    +0.000 A 
ATOM      4  C   UNL     1       3.705   6.419  18.418  0.00  0.00    +0.000 A 
ATOM      5  C   UNL     1       2.905   6.438  19.561  0.00  0.00    +0.000 A 
ATOM      6  C   UNL     1       1.979   7.474  19.751  0.00  0.00    +0.000 A 
ENDROOT
BRANCH   1  10
ATOM      7  C   UNL     1      -0.980  10.760  18.772  0.00  0.00    +0.000 A 
ATOM      8  C   UNL     1      -0.092  11.374  19.629  0.00  0.00    +0.000 A 
ATOM      9  N   UNL     1       1.076  10.662  19.754  0.00  0.00    +0.000 NA
ATOM     10  C   UNL     1       0.912   9.592  19.001  0.00  0.00    +0.000 A 
ATOM     11  N   UNL     1      -0.314   9.629  18.376  0.00  0.00    +0.000 N 
ATOM     12  H   UNL     1      -0.645   8.955  17.701  0.00  0.00    +0.000 HD
BRANCH   7  16
ATOM     13  C   UNL     1      -4.834  11.899  17.347  0.00  0.00    +0.000 A 
ATOM     14  C   UNL     1      -4.469  12.147  18.666  0.00  0.00    +0.000 A 
ATOM     15  C   UNL     1      -3.206  11.772  19.134  0.00  0.00    +0.000 A 
ATOM     16  C   UNL     1      -2.300  11.128  18.289  0.00  0.00    +0.000 A 
ATOM     17  C   UNL     1      -2.681  10.860  16.968  0.00  0.00    +0.000 A 
ATOM     18  C   UNL     1      -3.941  11.244  16.497  0.00  0.00    +0.000 A 
BRANCH  13  20
ATOM     19  C   UNL     1      -7.075  12.215  18.027  0.00  0.00    +0.000 C 
ATOM     20  O   UNL     1      -6.094  12.303  16.997  0.00  0.00    +0.000 OA
ENDBRANCH  13  20
ENDBRANCH   7  16
ENDBRANCH   1  10
BRANCH   4  21
ATOM     21  O   UNL     1       4.604   5.384  18.298  0.00  0.00    +0.000 OA
BRANCH  21  22
ATOM     22  C   UNL     1       5.529   5.297  19.396  0.00  0.00    +0.000 C 
BRANCH  22  23
ATOM     23  C   UNL     1       6.937   5.687  18.973  0.00  0.00    +0.000 C 
BRANCH  23  24
ATOM     24  O   UNL     1       7.853   5.430  20.045  0.00  0.00    +0.000 OA
ATOM     25  H   UNL     1       8.594   6.054  19.921  0.00  0.00    +0.000 HD
ENDBRANCH  23  24
BRANCH  23  26
ATOM     26  C   UNL     1       7.397   4.944  17.714  0.00  0.00    +0.000 C 
BRANCH  26  27
ATOM     27  N   UNL     1       7.290   5.754  16.494  0.00  0.00    +0.000 NA
ATOM     28  H   UNL     1       8.227   6.002  16.173  0.00  0.00    +0.000 HD
BRANCH  27  29
ATOM     29  C   UNL     1       6.555   5.112  15.386  0.00  0.00    +0.000 C 
ATOM     30  C   UNL     1       7.445   4.925  14.146  0.00  0.00    +0.000 C 
ATOM     31  C   UNL     1       6.117   3.715  15.872  0.00  0.00    +0.000 C 
ATOM     32  C   UNL     1       5.291   5.912  15.023  0.00  0.00    +0.000 C 
ENDBRANCH  27  29
ENDBRANCH  26  27
ENDBRANCH  23  26
ENDBRANCH  22  23
ENDBRANCH  21  22
ENDBRANCH   4  21
TORSDOF 10
ENDMDL
MODEL 4
REMARK VINA RESULT:      -7.0      3.058      4.385
REMARK  Name = 
REMARK  14 active torsions:
REMARK  status: ('A' for Active; 'I' for Inactive)
REMARK    1  A    between atoms: C_1  and  O_2
REMARK    2  A    between atoms: O_2  and  C_3
REMARK    3  A    between atoms: C_6  and  C_7
REMARK    4  A    between atoms: C_10  and  C_11
REMARK    5  A    between atoms: C_14  and  O_15
REMARK    6  A    between atoms: O_15  and  C_16
REMARK    7  A    between atoms: C_16  and  C_17
REMARK    8  A    between atoms: C_17  and  O_18
REMARK    9  A    between atoms: C_17  and  C_19
REMARK   10  A    between atoms: C_19  and  N_20
REMARK   11  A    between atoms: N_20  and  C_21
REMARK   12  A    between atoms: C_21  and  C_22
REMARK   13  A    between atoms: C_21  and  C_23
REMARK   14  A    between atoms: C_21  and  C_24
REMARK                            x       y       z     vdW  Elec       q    Type
REMARK                         _______ _______ _______ _____ _____    ______ ____
ROOT
ATOM      1  C   UNL     1       1.007   9.833  20.124  0.00  0.00    +0.000 A 
ATOM      2  C   UNL     1       1.321   8.669  20.818  0.00  0.00    +0.000 A 
ATOM      3  C   UNL     1       1.917   7.600  20.167  0.00  0.00    +0.000 A 
ATOM      4  C   UNL     1       2.226   7.675  18.806  0.00  0.00    +0.000 A 
ATOM      5  C   UNL     1       1.937   8.846  18.104  0.00  0.00    +0.000 A 
ATOM      6  C   UNL     1       1.331   9.925  18.763  0.00  0.00    +0.000 A 
ENDROOT
BRANCH   1  10
ATOM      7  C   UNL     1      -1.288  12.055  21.846  0.00  0.00    +0.000 A 
ATOM      8  C   UNL     1      -0.126  12.793  21.773  0.00  0.00    +0.000 A 
ATOM      9  N   UNL     1       0.875  12.112  21.122  0.00  0.00    +0.000 NA
ATOM     10  C   UNL     1       0.352  10.942  20.811  0.00  0.00    +0.000 A 
ATOM     11  N   UNL     1      -0.962  10.881  21.217  0.00  0.00    +0.000 N 
ATOM     12  H   UNL     1      -1.592  10.113  21.037  0.00  0.00    +0.000 HD
BRANCH   7  16
ATOM     13  C   UNL     1      -5.139  12.952  23.442  0.00  0.00    +0.000 A 
ATOM     14  C   UNL     1      -4.112  12.521  24.276  0.00  0.00    +0.000 A 
ATOM     15  C   UNL     1      -2.850  12.226  23.753  0.00  0.00    +0.000 A 
ATOM     16  C   UNL     1      -2.607  12.342  22.382  0.00  0.00    +0.000 A 
ATOM     17  C   UNL     1      -3.649  12.753  21.543  0.00  0.00    +0.000 A 
ATOM     18  C   UNL     1      -4.910  13.058  22.068  0.00  0.00    +0.000 A 
BRANCH  13  20
ATOM     19  C   UNL     1      -7.460  12.518  23.523  0.00  0.00    +0.000 C 
ATOM     20  O   UNL     1      -6.334  13.208  24.058  0.00  0.00    +0.000 OA
ENDBRANCH  13  20
ENDBRANCH   7  16
ENDBRANCH   1  10
BRANCH   4  21
ATOM     21  O   UNL     1       2.808   6.647  18.099  0.00  0.00    +0.000 OA
BRANCH  21  22
ATOM     22  C   UNL     1       2.429   5.342  18.570  0.00  0.00    +0.000 C 
BRANCH  22  23
ATOM     23  C   UNL     1       3.647   4.490  18.894  0.00  0.00    +0.000 C 
BRANCH  23  24
ATOM     24  O   UNL     1       3.942   3.626  17.788  0.00  0.00    +0.000 OA
ATOM     25  H   UNL     1       3.079   3.319  17.450  0.00  0.00    +0.000 HD
ENDBRANCH  23  24
BRANCH  23  26
ATOM     26  C   UNL     1       4.881   5.334  19.229  0.00  0.00    +0.000 C 
BRANCH  26  27
ATOM     27  N   UNL     1       5.532   5.902  18.040  0.00  0.00    +0.000 NA
ATOM     28  H   UNL     1       5.225   6.868  17.920  0.00  0.00    +0.000 HD
BRANCH  27  29
ATOM     29  C   UNL     1       7.008   5.865  18.066  0.00  0.00    +0.000 C 
ATOM     30  C   UNL     1       7.546   5.644  19.490  0.00  0.00    +0.000 C 
ATOM     31  C   UNL     1       7.455   4.671  17.198  0.00  0.00    +0.000 C 
ATOM     32  C   UNL     1       7.604   7.149  17.460  0.00  0.00    +0.000 C 
ENDBRANCH  27  29
ENDBRANCH  26  27
ENDBRANCH  23  26
ENDBRANCH  22  23
ENDBRANCH  21  22
ENDBRANCH   4  21
TORSDOF 10
ENDMDL
MODEL 5
REMARK VINA RESULT:      -7.0      3.382      4.850
REMARK  Name = 
REMARK  14 active torsions:
REMARK  status: ('A' for Active; 'I' for Inactive)
REMARK    1  A    between atoms: C_1  and  O_2
REMARK    2  A    between atoms: O_2  and  C_3
REMARK    3  A    between atoms: C_6  and  C_7
REMARK    4  A    between atoms: C_10  and  C_11
REMARK    5  A    between atoms: C_14  and  O_15
REMARK    6  A    between atoms: O_15  and  C_16
REMARK    7  A    between atoms: C_16  and  C_17
REMARK    8  A    between atoms: C_17  and  O_18
REMARK    9  A    between atoms: C_17  and  C_19
REMARK   10  A    between atoms: C_19  and  N_20
REMARK   11  A    between atoms: N_20  and  C_21
REMARK   12  A    between atoms: C_21  and  C_22
REMARK   13  A    between atoms: C_21  and  C_23
REMARK   14  A    between atoms: C_21  and  C_24
REMARK                            x       y       z     vdW  Elec       q    Type
REMARK                         _______ _______ _______ _____ _____    ______ ____
ROOT
ATOM      1  C   UNL     1       1.199   9.463  19.594  0.00  0.00    +0.000 A 
ATOM      2  C   UNL     1       1.768   9.063  18.389  0.00  0.00    +0.000 A 
ATOM      3  C   UNL     1       2.354   7.813  18.267  0.00  0.00    +0.000 A 
ATOM      4  C   UNL     1       2.373   6.924  19.346  0.00  0.00    +0.000 A 
ATOM      5  C   UNL     1       1.785   7.304  20.552  0.00  0.00    +0.000 A 
ATOM      6  C   UNL     1       1.195   8.571  20.676  0.00  0.00    +0.000 A 
ENDROOT
BRANCH   1  10
ATOM      7  C   UNL     1       0.394  12.996  19.416  0.00  0.00    +0.000 A 
ATOM      8  C   UNL     1      -0.625  12.477  20.184  0.00  0.00    +0.000 A 
ATOM      9  N   UNL     1      -0.480  11.125  20.384  0.00  0.00    +0.000 NA
ATOM     10  C   UNL     1       0.610  10.792  19.722  0.00  0.00    +0.000 A 
ATOM     11  N   UNL     1       1.176  11.904  19.141  0.00  0.00    +0.000 N 
ATOM     12  H   UNL     1       2.050  11.917  18.634  0.00  0.00    +0.000 HD
BRANCH   7  16
ATOM     13  C   UNL     1       1.311  16.971  18.176  0.00  0.00    +0.000 A 
ATOM     14  C   UNL     1      -0.004  16.599  18.434  0.00  0.00    +0.000 A 
ATOM     15  C   UNL     1      -0.305  15.295  18.840  0.00  0.00    +0.000 A 
ATOM     16  C   UNL     1       0.708  14.343  18.974  0.00  0.00    +0.000 A 
ATOM     17  C   UNL     1       2.027  14.716  18.689  0.00  0.00    +0.000 A 
ATOM     18  C   UNL     1       2.330  16.024  18.293  0.00  0.00    +0.000 A 
BRANCH  13  20
ATOM     19  C   UNL     1       0.860  18.631  16.555  0.00  0.00    +0.000 C 
ATOM     20  O   UNL     1       1.491  18.269  17.781  0.00  0.00    +0.000 OA
ENDBRANCH  13  20
ENDBRANCH   7  16
ENDBRANCH   1  10
BRANCH   4  21
ATOM     21  O   UNL     1       2.947   5.675  19.293  0.00  0.00    +0.000 OA
BRANCH  21  22
ATOM     22  C   UNL     1       2.096   4.677  18.704  0.00  0.00    +0.000 C 
BRANCH  22  23
ATOM     23  C   UNL     1       2.899   3.500  18.173  0.00  0.00    +0.000 C 
BRANCH  23  24
ATOM     24  O   UNL     1       2.424   3.137  16.870  0.00  0.00    +0.000 OA
ATOM     25  H   UNL     1       1.713   2.483  17.016  0.00  0.00    +0.000 HD
ENDBRANCH  23  24
BRANCH  23  26
ATOM     26  C   UNL     1       4.401   3.797  18.107  0.00  0.00    +0.000 C 
BRANCH  26  27
ATOM     27  N   UNL     1       5.019   3.369  16.844  0.00  0.00    +0.000 NA
ATOM     28  H   UNL     1       4.288   3.058  16.203  0.00  0.00    +0.000 HD
BRANCH  27  29
ATOM     29  C   UNL     1       5.839   4.399  16.177  0.00  0.00    +0.000 C 
ATOM     30  C   UNL     1       6.057   4.076  14.688  0.00  0.00    +0.000 C 
ATOM     31  C   UNL     1       5.069   5.732  16.266  0.00  0.00    +0.000 C 
ATOM     32  C   UNL     1       7.192   4.577  16.890  0.00  0.00    +0.000 C 
ENDBRANCH  27  29
ENDBRANCH  26  27
ENDBRANCH  23  26
ENDBRANCH  22  23
ENDBRANCH  21  22
ENDBRANCH   4  21
TORSDOF 10
ENDMDL
MODEL 6
REMARK VINA RESULT:      -7.0      1.450      2.808
REMARK  Name = 
REMARK  14 active torsions:
REMARK  status: ('A' for Active; 'I' for Inactive)
REMARK    1  A    between atoms: C_1  and  O_2
REMARK    2  A    between atoms: O_2  and  C_3
REMARK    3  A    between atoms: C_6  and  C_7
REMARK    4  A    between atoms: C_10  and  C_11
REMARK    5  A    between atoms: C_14  and  O_15
REMARK    6  A    between atoms: O_15  and  C_16
REMARK    7  A    between atoms: C_16  and  C_17
REMARK    8  A    between atoms: C_17  and  O_18
REMARK    9  A    between atoms: C_17  and  C_19
REMARK   10  A    between atoms: C_19  and  N_20
REMARK   11  A    between atoms: N_20  and  C_21
REMARK   12  A    between atoms: C_21  and  C_22
REMARK   13  A    between atoms: C_21  and  C_23
REMARK   14  A    between atoms: C_21  and  C_24
REMARK                            x       y       z     vdW  Elec       q    Type
REMARK                         _______ _______ _______ _____ _____    ______ ____
ROOT
ATOM      1  C   UNL     1       1.158   9.088  19.191  0.00  0.00    +0.000 A 
ATOM      2  C   UNL     1       1.845   8.844  18.006  0.00  0.00    +0.000 A 
ATOM      3  C   UNL     1       2.749   7.796  17.919  0.00  0.00    +0.000 A 
ATOM      4  C   UNL     1       2.978   6.957  19.013  0.00  0.00    +0.000 A 
ATOM      5  C   UNL     1       2.277   7.176  20.199  0.00  0.00    +0.000 A 
ATOM      6  C   UNL     1       1.366   8.239  20.288  0.00  0.00    +0.000 A 
ENDROOT
BRANCH   1  10
ATOM      7  C   UNL     1      -1.673  11.349  19.003  0.00  0.00    +0.000 A 
ATOM      8  C   UNL     1      -0.729  12.079  19.692  0.00  0.00    +0.000 A 
ATOM      9  N   UNL     1       0.445  11.382  19.848  0.00  0.00    +0.000 NA
ATOM     10  C   UNL     1       0.231  10.210  19.283  0.00  0.00    +0.000 A 
ATOM     11  N   UNL     1      -1.035  10.163  18.743  0.00  0.00    +0.000 N 
ATOM     12  H   UNL     1      -1.411   9.396  18.205  0.00  0.00    +0.000 HD
BRANCH   7  16
ATOM     13  C   UNL     1      -5.618  12.296  17.689  0.00  0.00    +0.000 A 
ATOM     14  C   UNL     1      -5.222  12.578  18.992  0.00  0.00    +0.000 A 
ATOM     15  C   UNL     1      -3.929  12.266  19.424  0.00  0.00    +0.000 A 
ATOM     16  C   UNL     1      -3.022  11.651  18.558  0.00  0.00    +0.000 A 
ATOM     17  C   UNL     1      -3.433  11.348  17.254  0.00  0.00    +0.000 A 
ATOM     18  C   UNL     1      -4.724  11.668  16.819  0.00  0.00    +0.000 A 
BRANCH  13  20
ATOM     19  C   UNL     1      -7.741  12.964  18.482  0.00  0.00    +0.000 C 
ATOM     20  O   UNL     1      -6.905  12.638  17.375  0.00  0.00    +0.000 OA
ENDBRANCH  13  20
ENDBRANCH   7  16
ENDBRANCH   1  10
BRANCH   4  21
ATOM     21  O   UNL     1       3.868   5.907  18.994  0.00  0.00    +0.000 OA
BRANCH  21  22
ATOM     22  C   UNL     1       3.333   4.692  19.546  0.00  0.00    +0.000 C 
BRANCH  22  23
ATOM     23  C   UNL     1       3.431   3.539  18.559  0.00  0.00    +0.000 C 
BRANCH  23  24
ATOM     24  O   UNL     1       2.185   2.831  18.515  0.00  0.00    +0.000 OA
ATOM     25  H   UNL     1       1.712   3.168  17.730  0.00  0.00    +0.000 HD
ENDBRANCH  23  24
BRANCH  23  26
ATOM     26  C   UNL     1       3.806   4.006  17.148  0.00  0.00    +0.000 C 
BRANCH  26  27
ATOM     27  N   UNL     1       5.102   3.484  16.694  0.00  0.00    +0.000 NA
ATOM     28  H   UNL     1       4.946   2.653  16.122  0.00  0.00    +0.000 HD
BRANCH  27  29
ATOM     29  C   UNL     1       5.924   4.446  15.933  0.00  0.00    +0.000 C 
ATOM     30  C   UNL     1       5.240   5.820  15.828  0.00  0.00    +0.000 C 
ATOM     31  C   UNL     1       7.248   4.631  16.703  0.00  0.00    +0.000 C 
ATOM     32  C   UNL     1       6.256   3.903  14.531  0.00  0.00    +0.000 C 
ENDBRANCH  27  29
ENDBRANCH  26  27
ENDBRANCH  23  26
ENDBRANCH  22  23
ENDBRANCH  21  22
ENDBRANCH   4  21
TORSDOF 10
ENDMDL
MODEL 7
REMARK VINA RESULT:      -7.0      1.525      2.878
REMARK  Name = 
REMARK  14 active torsions:
REMARK  status: ('A' for Active; 'I' for Inactive)
REMARK    1  A    between atoms: C_1  and  O_2
REMARK    2  A    between atoms: O_2  and  C_3
REMARK    3  A    between atoms: C_6  and  C_7
REMARK    4  A    between atoms: C_10  and  C_11
REMARK    5  A    between atoms: C_14  and  O_15
REMARK    6  A    between atoms: O_15  and  C_16
REMARK    7  A    between atoms: C_16  and  C_17
REMARK    8  A    between atoms: C_17  and  O_18
REMARK    9  A    between atoms: C_17  and  C_19
REMARK   10  A    between atoms: C_19  and  N_20
REMARK   11  A    between atoms: N_20  and  C_21
REMARK   12  A    between atoms: C_21  and  C_22
REMARK   13  A    between atoms: C_21  and  C_23
REMARK   14  A    between atoms: C_21  and  C_24
REMARK                            x       y       z     vdW  Elec       q    Type
REMARK                         _______ _______ _______ _____ _____    ______ ____
ROOT
ATOM      1  C   UNL     1       1.396   8.866  19.149  0.00  0.00    +0.000 A 
ATOM      2  C   UNL     1       1.419   8.130  20.328  0.00  0.00    +0.000 A 
ATOM      3  C   UNL     1       2.118   6.935  20.400  0.00  0.00    +0.000 A 
ATOM      4  C   UNL     1       2.825   6.453  19.294  0.00  0.00    +0.000 A 
ATOM      5  C   UNL     1       2.829   7.195  18.112  0.00  0.00    +0.000 A 
ATOM      6  C   UNL     1       2.117   8.401  18.039  0.00  0.00    +0.000 A 
ENDROOT
BRANCH   1  10
ATOM      7  C   UNL     1      -1.171  11.429  19.066  0.00  0.00    +0.000 A 
ATOM      8  C   UNL     1      -0.002  12.146  18.934  0.00  0.00    +0.000 A 
ATOM      9  N   UNL     1       1.103  11.329  18.922  0.00  0.00    +0.000 NA
ATOM     10  C   UNL     1       0.632  10.107  19.074  0.00  0.00    +0.000 A 
ATOM     11  N   UNL     1      -0.743  10.129  19.144  0.00  0.00    +0.000 N 
ATOM     12  H   UNL     1      -1.336   9.314  19.198  0.00  0.00    +0.000 HD
BRANCH   7  16
ATOM     13  C   UNL     1      -5.294  12.513  19.149  0.00  0.00    +0.000 A 
ATOM     14  C   UNL     1      -4.784  11.760  18.096  0.00  0.00    +0.000 A 
ATOM     15  C   UNL     1      -3.432  11.406  18.068  0.00  0.00    +0.000 A 
ATOM     16  C   UNL     1      -2.571  11.818  19.088  0.00  0.00    +0.000 A 
ATOM     17  C   UNL     1      -3.084  12.595  20.133  0.00  0.00    +0.000 A 
ATOM     18  C   UNL     1      -4.439  12.941  20.166  0.00  0.00    +0.000 A 
BRANCH  13  20
ATOM     19  C   UNL     1      -7.207  12.702  17.775  0.00  0.00    +0.000 C 
ATOM     20  O   UNL     1      -6.629  12.806  19.074  0.00  0.00    +0.000 OA
ENDBRANCH  13  20
ENDBRANCH   7  16
ENDBRANCH   1  10
BRANCH   4  21
ATOM     21  O   UNL     1       3.530   5.272  19.296  0.00  0.00    +0.000 OA
BRANCH  21  22
ATOM     22  C   UNL     1       2.698   4.108  19.148  0.00  0.00    +0.000 C 
BRANCH  22  23
ATOM     23  C   UNL     1       3.330   3.084  18.217  0.00  0.00    +0.000 C 
BRANCH  23  24
ATOM     24  O   UNL     1       2.310   2.249  17.653  0.00  0.00    +0.000 OA
ATOM     25  H   UNL     1       2.709   1.362  17.562  0.00  0.00    +0.000 HD
ENDBRANCH  23  24
BRANCH  23  26
ATOM     26  C   UNL     1       4.140   3.737  17.091  0.00  0.00    +0.000 C 
BRANCH  26  27
ATOM     27  N   UNL     1       5.540   3.988  17.459  0.00  0.00    +0.000 NA
ATOM     28  H   UNL     1       6.093   3.155  17.254  0.00  0.00    +0.000 HD
BRANCH  27  29
ATOM     29  C   UNL     1       6.155   5.153  16.793  0.00  0.00    +0.000 C 
ATOM     30  C   UNL     1       6.618   6.210  17.810  0.00  0.00    +0.000 C 
ATOM     31  C   UNL     1       7.398   4.646  16.033  0.00  0.00    +0.000 C 
ATOM     32  C   UNL     1       5.190   5.779  15.770  0.00  0.00    +0.000 C 
ENDBRANCH  27  29
ENDBRANCH  26  27
ENDBRANCH  23  26
ENDBRANCH  22  23
ENDBRANCH  21  22
ENDBRANCH   4  21
TORSDOF 10
ENDMDL
MODEL 8
REMARK VINA RESULT:      -6.9      2.780      3.908
REMARK  Name = 
REMARK  14 active torsions:
REMARK  status: ('A' for Active; 'I' for Inactive)
REMARK    1  A    between atoms: C_1  and  O_2
REMARK    2  A    between atoms: O_2  and  C_3
REMARK    3  A    between atoms: C_6  and  C_7
REMARK    4  A    between atoms: C_10  and  C_11
REMARK    5  A    between atoms: C_14  and  O_15
REMARK    6  A    between atoms: O_15  and  C_16
REMARK    7  A    between atoms: C_16  and  C_17
REMARK    8  A    between atoms: C_17  and  O_18
REMARK    9  A    between atoms: C_17  and  C_19
REMARK   10  A    between atoms: C_19  and  N_20
REMARK   11  A    between atoms: N_20  and  C_21
REMARK   12  A    between atoms: C_21  and  C_22
REMARK   13  A    between atoms: C_21  and  C_23
REMARK   14  A    between atoms: C_21  and  C_24
REMARK                            x       y       z     vdW  Elec       q    Type
REMARK                         _______ _______ _______ _____ _____    ______ ____
ROOT
ATOM      1  C   UNL     1       0.871   9.663  19.747  0.00  0.00    +0.000 A 
ATOM      2  C   UNL     1       1.360   9.474  18.459  0.00  0.00    +0.000 A 
ATOM      3  C   UNL     1       2.098   8.343  18.143  0.00  0.00    +0.000 A 
ATOM      4  C   UNL     1       2.354   7.365  19.108  0.00  0.00    +0.000 A 
ATOM      5  C   UNL     1       1.848   7.531  20.398  0.00  0.00    +0.000 A 
ATOM      6  C   UNL     1       1.105   8.677  20.718  0.00  0.00    +0.000 A 
ENDROOT
BRANCH   1  10
ATOM      7  C   UNL     1      -1.450  12.127  21.052  0.00  0.00    +0.000 A 
ATOM      8  C   UNL     1      -0.612  12.873  20.252  0.00  0.00    +0.000 A 
ATOM      9  N   UNL     1       0.342  12.095  19.642  0.00  0.00    +0.000 NA
ATOM     10  C   UNL     1       0.121  10.870  20.077  0.00  0.00    +0.000 A 
ATOM     11  N   UNL     1      -0.969  10.850  20.917  0.00  0.00    +0.000 N 
ATOM     12  H   UNL     1      -1.373  10.021  21.328  0.00  0.00    +0.000 HD
BRANCH   7  16
ATOM     13  C   UNL     1      -4.891  13.079  23.383  0.00  0.00    +0.000 A 
ATOM     14  C   UNL     1      -4.870  13.344  22.017  0.00  0.00    +0.000 A 
ATOM     15  C   UNL     1      -3.741  13.033  21.253  0.00  0.00    +0.000 A 
ATOM     16  C   UNL     1      -2.613  12.469  21.853  0.00  0.00    +0.000 A 
ATOM     17  C   UNL     1      -2.631  12.226  23.232  0.00  0.00    +0.000 A 
ATOM     18  C   UNL     1      -3.764  12.528  23.995  0.00  0.00    +0.000 A 
BRANCH  13  20
ATOM     19  C   UNL     1      -7.156  12.564  23.816  0.00  0.00    +0.000 C 
ATOM     20  O   UNL     1      -6.043  13.427  24.034  0.00  0.00    +0.000 OA
ENDBRANCH  13  20
ENDBRANCH   7  16
ENDBRANCH   1  10
BRANCH   4  21
ATOM     21  O   UNL     1       3.087   6.227  18.863  0.00  0.00    +0.000 OA
BRANCH  21  22
ATOM     22  C   UNL     1       2.472   5.344  17.908  0.00  0.00    +0.000 C 
BRANCH  22  23
ATOM     23  C   UNL     1       2.764   3.886  18.227  0.00  0.00    +0.000 C 
BRANCH  23  24
ATOM     24  O   UNL     1       1.745   3.053  17.658  0.00  0.00    +0.000 OA
ATOM     25  H   UNL     1       0.990   3.642  17.469  0.00  0.00    +0.000 HD
ENDBRANCH  23  24
BRANCH  23  26
ATOM     26  C   UNL     1       4.138   3.437  17.718  0.00  0.00    +0.000 C 
BRANCH  26  27
ATOM     27  N   UNL     1       5.231   4.316  18.155  0.00  0.00    +0.000 NA
ATOM     28  H   UNL     1       5.785   3.834  18.864  0.00  0.00    +0.000 HD
BRANCH  27  29
ATOM     29  C   UNL     1       6.124   4.777  17.075  0.00  0.00    +0.000 C 
ATOM     30  C   UNL     1       7.605   4.555  17.428  0.00  0.00    +0.000 C 
ATOM     31  C   UNL     1       5.803   3.938  15.821  0.00  0.00    +0.000 C 
ATOM     32  C   UNL     1       5.870   6.258  16.740  0.00  0.00    +0.000 C 
ENDBRANCH  27  29
ENDBRANCH  26  27
ENDBRANCH  23  26
ENDBRANCH  22  23
ENDBRANCH  21  22
ENDBRANCH   4  21
TORSDOF 10
ENDMDL
MODEL 9
REMARK VINA RESULT:      -6.9      1.481      2.998
REMARK  Name = 
REMARK  14 active torsions:
REMARK  status: ('A' for Active; 'I' for Inactive)
REMARK    1  A    between atoms: C_1  and  O_2
REMARK    2  A    between atoms: O_2  and  C_3
REMARK    3  A    between atoms: C_6  and  C_7
REMARK    4  A    between atoms: C_10  and  C_11
REMARK    5  A    between atoms: C_14  and  O_15
REMARK    6  A    between atoms: O_15  and  C_16
REMARK    7  A    between atoms: C_16  and  C_17
REMARK    8  A    between atoms: C_17  and  O_18
REMARK    9  A    between atoms: C_17  and  C_19
REMARK   10  A    between atoms: C_19  and  N_20
REMARK   11  A    between atoms: N_20  and  C_21
REMARK   12  A    between atoms: C_21  and  C_22
REMARK   13  A    between atoms: C_21  and  C_23
REMARK   14  A    between atoms: C_21  and  C_24
REMARK                            x       y       z     vdW  Elec       q    Type
REMARK                         _______ _______ _______ _____ _____    ______ ____
ROOT
ATOM      1  C   UNL     1       0.992   9.289  18.965  0.00  0.00    +0.000 A 
ATOM      2  C   UNL     1       1.123   8.678  20.208  0.00  0.00    +0.000 A 
ATOM      3  C   UNL     1       1.952   7.579  20.369  0.00  0.00    +0.000 A 
ATOM      4  C   UNL     1       2.682   7.070  19.290  0.00  0.00    +0.000 A 
ATOM      5  C   UNL     1       2.577   7.689  18.044  0.00  0.00    +0.000 A 
ATOM      6  C   UNL     1       1.735   8.799  17.881  0.00  0.00    +0.000 A 
ENDROOT
BRANCH   1  10
ATOM      7  C   UNL     1      -1.845  11.517  18.570  0.00  0.00    +0.000 A 
ATOM      8  C   UNL     1      -0.767  12.375  18.586  0.00  0.00    +0.000 A 
ATOM      9  N   UNL     1       0.424  11.701  18.710  0.00  0.00    +0.000 NA
ATOM     10  C   UNL     1       0.094  10.428  18.799  0.00  0.00    +0.000 A 
ATOM     11  N   UNL     1      -1.270  10.278  18.698  0.00  0.00    +0.000 N 
ATOM     12  H   UNL     1      -1.760   9.395  18.676  0.00  0.00    +0.000 HD
BRANCH   7  16
ATOM     13  C   UNL     1      -6.029  12.201  18.118  0.00  0.00    +0.000 A 
ATOM     14  C   UNL     1      -5.396  12.480  19.325  0.00  0.00    +0.000 A 
ATOM     15  C   UNL     1      -4.024  12.253  19.474  0.00  0.00    +0.000 A 
ATOM     16  C   UNL     1      -3.274  11.729  18.419  0.00  0.00    +0.000 A 
ATOM     17  C   UNL     1      -3.920  11.429  17.214  0.00  0.00    +0.000 A 
ATOM     18  C   UNL     1      -5.292  11.664  17.061  0.00  0.00    +0.000 A 
BRANCH  13  20
ATOM     19  C   UNL     1      -7.738  13.779  17.702  0.00  0.00    +0.000 C 
ATOM     20  O   UNL     1      -7.374  12.455  18.084  0.00  0.00    +0.000 OA
ENDBRANCH  13  20
ENDBRANCH   7  16
ENDBRANCH   1  10
BRANCH   4  21
ATOM     21  O   UNL     1       3.513   5.977  19.381  0.00  0.00    +0.000 OA
BRANCH  21  22
ATOM     22  C   UNL     1       2.814   4.721  19.336  0.00  0.00    +0.000 C 
BRANCH  22  23
ATOM     23  C   UNL     1       3.772   3.557  19.133  0.00  0.00    +0.000 C 
BRANCH  23  24
ATOM     24  O   UNL     1       3.227   2.643  18.172  0.00  0.00    +0.000 OA
ATOM     25  H   UNL     1       2.326   2.430  18.483  0.00  0.00    +0.000 HD
ENDBRANCH  23  24
BRANCH  23  26
ATOM     26  C   UNL     1       5.162   4.013  18.677  0.00  0.00    +0.000 C 
BRANCH  26  27
ATOM     27  N   UNL     1       5.164   4.602  17.331  0.00  0.00    +0.000 NA
ATOM     28  H   UNL     1       4.411   5.288  17.266  0.00  0.00    +0.000 HD
BRANCH  27  29
ATOM     29  C   UNL     1       6.435   5.239  16.936  0.00  0.00    +0.000 C 
ATOM     30  C   UNL     1       7.631   4.645  17.700  0.00  0.00    +0.000 C 
ATOM     31  C   UNL     1       6.644   4.959  15.434  0.00  0.00    +0.000 C 
ATOM     32  C   UNL     1       6.375   6.765  17.137  0.00  0.00    +0.000 C 
ENDBRANCH  27  29
ENDBRANCH  26  27
ENDBRANCH  23  26
ENDBRANCH  22  23
ENDBRANCH  21  22
ENDBRANCH   4  21
TORSDOF 10
ENDMDL
