MODEL 1
REMARK VINA RESULT:      -7.7      0.000      0.000
REMARK  Name = 
REMARK  8 active torsions:
REMARK  status: ('A' for Active; 'I' for Inactive)
REMARK    1  A    between atoms: C_1  and  C_2
REMARK    2  A    between atoms: C_2  and  C_3
REMARK    3  A    between atoms: C_2  and  C_4
REMARK    4  A    between atoms: C_2  and  C_5
REMARK    5  A    between atoms: C_7  and  C_8
REMARK    6  A    between atoms: N_9  and  N_10
REMARK    7  A    between atoms: C_14  and  O_15
REMARK    8  A    between atoms: C_16  and  C_17
REMARK                            x       y       z     vdW  Elec       q    Type
REMARK                         _______ _______ _______ _____ _____    ______ ____
ROOT
ATOM      1  C   UNL     1      -2.070  10.994  17.973  0.00  0.00    +0.000 A 
ATOM      2  C   UNL     1      -1.611  12.270  18.181  0.00  0.00    +0.000 A 
ATOM      3  C   UNL     1      -0.438  12.535  18.884  0.00  0.00    +0.000 A 
ATOM      4  C   UNL     1       0.355  11.428  19.422  0.00  0.00    +0.000 A 
ATOM      5  C   UNL     1      -0.059  10.056  19.239  0.00  0.00    +0.000 A 
ATOM      6  C   UNL     1      -1.309   9.933  18.515  0.00  0.00    +0.000 A 
ENDROOT
BRANCH   5   7
ATOM      7  C   UNL     1       0.787   8.792  19.822  0.00  0.00    +0.000 C 
ATOM      8  C   UNL     1       1.859   8.146  19.154  0.00  0.00    +0.000 C 
ATOM      9  C   UNL     1       2.301   8.804  17.978  0.00  0.00    +0.000 C 
ATOM     10  O   UNL     1       2.731   9.942  18.074  0.00  0.00    +0.000 OA
ATOM     11  N   UNL     1       2.837   7.986  17.107  0.00  0.00    +0.000 N 
ATOM     12  C   UNL     1       3.368   6.970  17.874  0.00  0.00    +0.000 A 
ATOM     13  C   UNL     1       2.870   6.932  19.181  0.00  0.00    +0.000 A 
ATOM     14  C   UNL     1       3.442   5.893  20.003  0.00  0.00    +0.000 A 
ATOM     15  C   UNL     1       4.504   5.040  19.473  0.00  0.00    +0.000 A 
ATOM     16  C   UNL     1       4.965   5.183  18.127  0.00  0.00    +0.000 A 
ATOM     17  C   UNL     1       6.029   4.432  17.538  0.00  0.00    +0.000 A 
ATOM     18  C   UNL     1       6.401   4.650  16.190  0.00  0.00    +0.000 A 
ATOM     19  C   UNL     1       5.746   5.613  15.426  0.00  0.00    +0.000 A 
ATOM     20  C   UNL     1       4.723   6.344  15.991  0.00  0.00    +0.000 A 
ATOM     21  C   UNL     1       4.341   6.145  17.335  0.00  0.00    +0.000 A 
ATOM     22  H   UNL     1       2.149   7.429  16.552  0.00  0.00    +0.000 HD
ENDBRANCH   5   7
BRANCH   1  24
ATOM     23  C   UNL     1      -2.831  10.875  15.608  0.00  0.00    +0.000 C 
ATOM     24  C   UNL     1      -3.325  10.761  17.067  0.00  0.00    +0.000 C 
ATOM     25  C   UNL     1      -4.477  11.804  17.212  0.00  0.00    +0.000 C 
ATOM     26  C   UNL     1      -3.981   9.393  17.361  0.00  0.00    +0.000 C 
ENDBRANCH   1  24
BRANCH   3  27
ATOM     27  C   UNL     1      -0.177  14.015  18.931  0.00  0.00    +0.000 C 
ATOM     28  N   UNL     1       0.975  14.560  18.838  0.00  0.00    +0.000 NA
BRANCH  28  29
ATOM     29  N   UNL     1       1.122  15.931  18.870  0.00  0.00    +0.000 N 
ATOM     30  C   UNL     1       2.241  16.523  18.232  0.00  0.00    +0.000 C 
ATOM     31  N   UNL     1       2.375  17.800  18.198  0.00  0.00    +0.000 NA
ATOM     32  N   UNL     1       3.207  15.702  17.604  0.00  0.00    +0.000 N 
ATOM     33  H   UNL     1       0.423  16.532  19.348  0.00  0.00    +0.000 HD
ATOM     34  H   UNL     1       1.693  18.432  18.633  0.00  0.00    +0.000 HD
ATOM     35  H   UNL     1       3.118  14.678  17.618  0.00  0.00    +0.000 HD
ATOM     36  H   UNL     1       4.033  16.106  17.142  0.00  0.00    +0.000 HD
ENDBRANCH  28  29
ENDBRANCH   3  27
BRANCH   4  37
ATOM     37  O   UNL     1       1.494  11.672  20.099  0.00  0.00    +0.000 OA
ATOM     38  H   UNL     1       2.013  10.988  20.535  0.00  0.00    +0.000 HD
ENDBRANCH   4  37
TORSDOF 5
ENDMDL
MODEL 2
REMARK VINA RESULT:      -7.7      3.988      9.454
REMARK  Name = 
REMARK  8 active torsions:
REMARK  status: ('A' for Active; 'I' for Inactive)
REMARK    1  A    between atoms: C_1  and  C_2
REMARK    2  A    between atoms: C_2  and  C_3
REMARK    3  A    between atoms: C_2  and  C_4
REMARK    4  A    between atoms: C_2  and  C_5
REMARK    5  A    between atoms: C_7  and  C_8
REMARK    6  A    between atoms: N_9  and  N_10
REMARK    7  A    between atoms: C_14  and  O_15
REMARK    8  A    between atoms: C_16  and  C_17
REMARK                            x       y       z     vdW  Elec       q    Type
REMARK                         _______ _______ _______ _____ _____    ______ ____
ROOT
ATOM      1  C   UNL     1       2.608   4.394  18.389  0.00  0.00    +0.000 A 
ATOM      2  C   UNL     1       3.554   3.939  17.505  0.00  0.00    +0.000 A 
ATOM      3  C   UNL     1       4.260   4.795  16.662  0.00  0.00    +0.000 A 
ATOM      4  C   UNL     1       4.008   6.237  16.710  0.00  0.00    +0.000 A 
ATOM      5  C   UNL     1       3.032   6.794  17.618  0.00  0.00    +0.000 A 
ATOM      6  C   UNL     1       2.357   5.786  18.412  0.00  0.00    +0.000 A 
ENDROOT
BRANCH   5   7
ATOM      7  C   UNL     1       2.715   8.389  17.705  0.00  0.00    +0.000 C 
ATOM      8  C   UNL     1       2.031   9.031  18.769  0.00  0.00    +0.000 C 
ATOM      9  C   UNL     1       1.789   8.204  19.896  0.00  0.00    +0.000 C 
ATOM     10  O   UNL     1       2.746   7.724  20.483  0.00  0.00    +0.000 OA
ATOM     11  N   UNL     1       0.734   8.571  20.581  0.00  0.00    +0.000 N 
ATOM     12  C   UNL     1       0.650   9.932  20.376  0.00  0.00    +0.000 A 
ATOM     13  C   UNL     1       1.405  10.385  19.289  0.00  0.00    +0.000 A 
ATOM     14  C   UNL     1       1.350  11.813  19.083  0.00  0.00    +0.000 A 
ATOM     15  C   UNL     1       0.613  12.661  20.018  0.00  0.00    +0.000 A 
ATOM     16  C   UNL     1      -0.103  12.098  21.121  0.00  0.00    +0.000 A 
ATOM     17  C   UNL     1      -0.809  12.847  22.113  0.00  0.00    +0.000 A 
ATOM     18  C   UNL     1      -1.491  12.185  23.161  0.00  0.00    +0.000 A 
ATOM     19  C   UNL     1      -1.469  10.796  23.249  0.00  0.00    +0.000 A 
ATOM     20  C   UNL     1      -0.784  10.068  22.299  0.00  0.00    +0.000 A 
ATOM     21  C   UNL     1      -0.093  10.710  21.249  0.00  0.00    +0.000 A 
ATOM     22  H   UNL     1      -0.178   8.286  20.161  0.00  0.00    +0.000 HD
ENDBRANCH   5   7
BRANCH   1  24
ATOM     23  C   UNL     1       1.233   4.263  20.456  0.00  0.00    +0.000 C 
ATOM     24  C   UNL     1       1.944   3.396  19.394  0.00  0.00    +0.000 C 
ATOM     25  C   UNL     1       2.921   2.468  20.183  0.00  0.00    +0.000 C 
ATOM     26  C   UNL     1       0.973   2.436  18.670  0.00  0.00    +0.000 C 
ENDBRANCH   1  24
BRANCH   3  27
ATOM     27  C   UNL     1       5.240   4.019  15.826  0.00  0.00    +0.000 C 
ATOM     28  N   UNL     1       5.464   4.219  14.585  0.00  0.00    +0.000 NA
BRANCH  28  29
ATOM     29  N   UNL     1       6.399   3.471  13.897  0.00  0.00    +0.000 N 
ATOM     30  C   UNL     1       6.117   3.061  12.570  0.00  0.00    +0.000 C 
ATOM     31  N   UNL     1       6.990   2.411  11.888  0.00  0.00    +0.000 NA
ATOM     32  N   UNL     1       4.873   3.389  11.982  0.00  0.00    +0.000 N 
ATOM     33  H   UNL     1       7.303   3.214  14.337  0.00  0.00    +0.000 HD
ATOM     34  H   UNL     1       7.908   2.160  12.273  0.00  0.00    +0.000 HD
ATOM     35  H   UNL     1       4.161   3.909  12.511  0.00  0.00    +0.000 HD
ATOM     36  H   UNL     1       4.640   3.094  11.024  0.00  0.00    +0.000 HD
ENDBRANCH  28  29
ENDBRANCH   3  27
BRANCH   4  37
ATOM     37  O   UNL     1       4.689   7.075  15.903  0.00  0.00    +0.000 OA
ATOM     38  H   UNL     1       5.460   7.578  16.185  0.00  0.00    +0.000 HD
ENDBRANCH   4  37
TORSDOF 5
ENDMDL
MODEL 3
REMARK VINA RESULT:      -7.5      4.066      9.642
REMARK  Name = 
REMARK  8 active torsions:
REMARK  status: ('A' for Active; 'I' for Inactive)
REMARK    1  A    between atoms: C_1  and  C_2
REMARK    2  A    between atoms: C_2  and  C_3
REMARK    3  A    between atoms: C_2  and  C_4
REMARK    4  A    between atoms: C_2  and  C_5
REMARK    5  A    between atoms: C_7  and  C_8
REMARK    6  A    between atoms: N_9  and  N_10
REMARK    7  A    between atoms: C_14  and  O_15
REMARK    8  A    between atoms: C_16  and  C_17
REMARK                            x       y       z     vdW  Elec       q    Type
REMARK                         _______ _______ _______ _____ _____    ______ ____
ROOT
ATOM      1  C   UNL     1       3.338   4.073  18.270  0.00  0.00    +0.000 A 
ATOM      2  C   UNL     1       4.232   3.683  17.304  0.00  0.00    +0.000 A 
ATOM      3  C   UNL     1       4.758   4.574  16.372  0.00  0.00    +0.000 A 
ATOM      4  C   UNL     1       4.366   5.984  16.409  0.00  0.00    +0.000 A 
ATOM      5  C   UNL     1       3.435   6.474  17.399  0.00  0.00    +0.000 A 
ATOM      6  C   UNL     1       2.949   5.432  18.284  0.00  0.00    +0.000 A 
ENDROOT
BRANCH   5   7
ATOM      7  C   UNL     1       2.965   8.031  17.478  0.00  0.00    +0.000 C 
ATOM      8  C   UNL     1       2.276   8.624  18.567  0.00  0.00    +0.000 C 
ATOM      9  C   UNL     1       2.174   7.801  19.717  0.00  0.00    +0.000 C 
ATOM     10  O   UNL     1       3.202   7.429  20.260  0.00  0.00    +0.000 OA
ATOM     11  N   UNL     1       1.123   8.076  20.450  0.00  0.00    +0.000 N 
ATOM     12  C   UNL     1       0.895   9.418  20.229  0.00  0.00    +0.000 A 
ATOM     13  C   UNL     1       1.546   9.921  19.097  0.00  0.00    +0.000 A 
ATOM     14  C   UNL     1       1.340  11.332  18.873  0.00  0.00    +0.000 A 
ATOM     15  C   UNL     1       0.570  12.122  19.832  0.00  0.00    +0.000 A 
ATOM     16  C   UNL     1      -0.031  11.514  20.979  0.00  0.00    +0.000 A 
ATOM     17  C   UNL     1      -0.757  12.210  21.995  0.00  0.00    +0.000 A 
ATOM     18  C   UNL     1      -1.317  11.506  23.086  0.00  0.00    +0.000 A 
ATOM     19  C   UNL     1      -1.152  10.128  23.195  0.00  0.00    +0.000 A 
ATOM     20  C   UNL     1      -0.448   9.451  22.221  0.00  0.00    +0.000 A 
ATOM     21  C   UNL     1       0.123  10.136  21.127  0.00  0.00    +0.000 A 
ATOM     22  H   UNL     1       0.224   7.694  20.082  0.00  0.00    +0.000 HD
ENDBRANCH   5   7
BRANCH   1  24
ATOM     23  C   UNL     1       4.150   2.261  19.769  0.00  0.00    +0.000 C 
ATOM     24  C   UNL     1       2.884   3.049  19.363  0.00  0.00    +0.000 C 
ATOM     25  C   UNL     1       1.841   1.980  18.909  0.00  0.00    +0.000 C 
ATOM     26  C   UNL     1       2.228   3.767  20.564  0.00  0.00    +0.000 C 
ENDBRANCH   1  24
BRANCH   3  27
ATOM     27  C   UNL     1       5.724   3.869  15.459  0.00  0.00    +0.000 C 
ATOM     28  N   UNL     1       5.774   4.017  14.191  0.00  0.00    +0.000 NA
BRANCH  28  29
ATOM     29  N   UNL     1       6.709   3.345  13.430  0.00  0.00    +0.000 N 
ATOM     30  C   UNL     1       6.333   2.838  12.160  0.00  0.00    +0.000 C 
ATOM     31  N   UNL     1       7.196   2.257  11.407  0.00  0.00    +0.000 NA
ATOM     32  N   UNL     1       5.002   2.995  11.707  0.00  0.00    +0.000 N 
ATOM     33  H   UNL     1       7.680   3.213  13.772  0.00  0.00    +0.000 HD
ATOM     34  H   UNL     1       8.173   2.131  11.694  0.00  0.00    +0.000 HD
ATOM     35  H   UNL     1       4.297   3.458  12.294  0.00  0.00    +0.000 HD
ATOM     36  H   UNL     1       4.702   2.628  10.793  0.00  0.00    +0.000 HD
ENDBRANCH  28  29
ENDBRANCH   3  27
BRANCH   4  37
ATOM     37  O   UNL     1       4.873   6.856  15.515  0.00  0.00    +0.000 OA
ATOM     38  H   UNL     1       5.722   6.737  15.077  0.00  0.00    +0.000 HD
ENDBRANCH   4  37
TORSDOF 5
ENDMDL
MODEL 4
REMARK VINA RESULT:      -7.3      1.257      1.764
REMARK  Name = 
REMARK  8 active torsions:
REMARK  status: ('A' for Active; 'I' for Inactive)
REMARK    1  A    between atoms: C_1  and  C_2
REMARK    2  A    between atoms: C_2  and  C_3
REMARK    3  A    between atoms: C_2  and  C_4
REMARK    4  A    between atoms: C_2  and  C_5
REMARK    5  A    between atoms: C_7  and  C_8
REMARK    6  A    between atoms: N_9  and  N_10
REMARK    7  A    between atoms: C_14  and  O_15
REMARK    8  A    between atoms: C_16  and  C_17
REMARK                            x       y       z     vdW  Elec       q    Type
REMARK                         _______ _______ _______ _____ _____    ______ ____
ROOT
ATOM      1  C   UNL     1      -2.068  11.018  17.848  0.00  0.00    +0.000 A 
ATOM      2  C   UNL     1      -1.626  12.297  18.074  0.00  0.00    +0.000 A 
ATOM      3  C   UNL     1      -0.476  12.570  18.812  0.00  0.00    +0.000 A 
ATOM      4  C   UNL     1       0.310  11.467  19.371  0.00  0.00    +0.000 A 
ATOM      5  C   UNL     1      -0.087  10.092  19.172  0.00  0.00    +0.000 A 
ATOM      6  C   UNL     1      -1.314   9.962  18.410  0.00  0.00    +0.000 A 
ENDROOT
BRANCH   5   7
ATOM      7  C   UNL     1       0.751   8.833  19.775  0.00  0.00    +0.000 C 
ATOM      8  C   UNL     1       1.833   8.183  19.127  0.00  0.00    +0.000 C 
ATOM      9  C   UNL     1       2.290   8.833  17.952  0.00  0.00    +0.000 C 
ATOM     10  O   UNL     1       2.718   9.972  18.046  0.00  0.00    +0.000 OA
ATOM     11  N   UNL     1       2.839   8.008  17.095  0.00  0.00    +0.000 N 
ATOM     12  C   UNL     1       3.360   6.999  17.877  0.00  0.00    +0.000 A 
ATOM     13  C   UNL     1       2.844   6.971  19.176  0.00  0.00    +0.000 A 
ATOM     14  C   UNL     1       3.405   5.937  20.014  0.00  0.00    +0.000 A 
ATOM     15  C   UNL     1       4.475   5.082  19.505  0.00  0.00    +0.000 A 
ATOM     16  C   UNL     1       4.955   5.215  18.165  0.00  0.00    +0.000 A 
ATOM     17  C   UNL     1       6.028   4.460  17.596  0.00  0.00    +0.000 A 
ATOM     18  C   UNL     1       6.418   4.669  16.252  0.00  0.00    +0.000 A 
ATOM     19  C   UNL     1       5.773   5.625  15.472  0.00  0.00    +0.000 A 
ATOM     20  C   UNL     1       4.741   6.360  16.017  0.00  0.00    +0.000 A 
ATOM     21  C   UNL     1       4.341   6.171  17.357  0.00  0.00    +0.000 A 
ATOM     22  H   UNL     1       2.160   7.447  16.534  0.00  0.00    +0.000 HD
ENDBRANCH   5   7
BRANCH   1  24
ATOM     23  C   UNL     1      -3.754   9.325  17.158  0.00  0.00    +0.000 C 
ATOM     24  C   UNL     1      -3.293  10.778  16.905  0.00  0.00    +0.000 C 
ATOM     25  C   UNL     1      -3.007  10.876  15.373  0.00  0.00    +0.000 C 
ATOM     26  C   UNL     1      -4.415  11.806  17.172  0.00  0.00    +0.000 C 
ENDBRANCH   1  24
BRANCH   3  27
ATOM     27  C   UNL     1      -0.229  14.052  18.872  0.00  0.00    +0.000 C 
ATOM     28  N   UNL     1      -0.710  14.841  19.754  0.00  0.00    +0.000 NA
BRANCH  28  29
ATOM     29  N   UNL     1      -0.414  16.188  19.746  0.00  0.00    +0.000 N 
ATOM     30  C   UNL     1      -1.472  17.130  19.774  0.00  0.00    +0.000 C 
ATOM     31  N   UNL     1      -1.225  18.390  19.823  0.00  0.00    +0.000 NA
ATOM     32  N   UNL     1      -2.814  16.680  19.774  0.00  0.00    +0.000 N 
ATOM     33  H   UNL     1       0.571  16.517  19.726  0.00  0.00    +0.000 HD
ATOM     34  H   UNL     1      -0.268  18.758  19.834  0.00  0.00    +0.000 HD
ATOM     35  H   UNL     1      -3.032  15.677  19.737  0.00  0.00    +0.000 HD
ATOM     36  H   UNL     1      -3.600  17.344  19.785  0.00  0.00    +0.000 HD
ENDBRANCH  28  29
ENDBRANCH   3  27
BRANCH   4  37
ATOM     37  O   UNL     1       1.427  11.718  20.082  0.00  0.00    +0.000 OA
ATOM     38  H   UNL     1       1.839  11.078  20.672  0.00  0.00    +0.000 HD
ENDBRANCH   4  37
TORSDOF 5
ENDMDL
MODEL 5
REMARK VINA RESULT:      -7.1      3.088      8.836
REMARK  Name = 
REMARK  8 active torsions:
REMARK  status: ('A' for Active; 'I' for Inactive)
REMARK    1  A    between atoms: C_1  and  C_2
REMARK    2  A    between atoms: C_2  and  C_3
REMARK    3  A    between atoms: C_2  and  C_4
REMARK    4  A    between atoms: C_2  and  C_5
REMARK    5  A    between atoms: C_7  and  C_8
REMARK    6  A    between atoms: N_9  and  N_10
REMARK    7  A    between atoms: C_14  and  O_15
REMARK    8  A    between atoms: C_16  and  C_17
REMARK                            x       y       z     vdW  Elec       q    Type
REMARK                         _______ _______ _______ _____ _____    ______ ____
ROOT
ATOM      1  C   UNL     1       1.970   4.662  19.474  0.00  0.00    +0.000 A 
ATOM      2  C   UNL     1       2.798   5.083  18.465  0.00  0.00    +0.000 A 
ATOM      3  C   UNL     1       3.096   6.428  18.257  0.00  0.00    +0.000 A 
ATOM      4  C   UNL     1       2.524   7.446  19.141  0.00  0.00    +0.000 A 
ATOM      5  C   UNL     1       1.649   7.082  20.231  0.00  0.00    +0.000 A 
ATOM      6  C   UNL     1       1.406   5.654  20.309  0.00  0.00    +0.000 A 
ENDROOT
BRANCH   5   7
ATOM      7  C   UNL     1       0.986   8.177  21.237  0.00  0.00    +0.000 C 
ATOM      8  C   UNL     1       0.585   9.488  20.872  0.00  0.00    +0.000 C 
ATOM      9  C   UNL     1       0.621   9.746  19.477  0.00  0.00    +0.000 C 
ATOM     10  O   UNL     1      -0.079   9.069  18.742  0.00  0.00    +0.000 OA
ATOM     11  N   UNL     1       0.810  11.012  19.198  0.00  0.00    +0.000 N 
ATOM     12  C   UNL     1       0.256  11.684  20.267  0.00  0.00    +0.000 A 
ATOM     13  C   UNL     1       0.043  10.878  21.390  0.00  0.00    +0.000 A 
ATOM     14  C   UNL     1      -0.565  11.564  22.505  0.00  0.00    +0.000 A 
ATOM     15  C   UNL     1      -0.973  12.961  22.372  0.00  0.00    +0.000 A 
ATOM     16  C   UNL     1      -0.737  13.689  21.164  0.00  0.00    +0.000 A 
ATOM     17  C   UNL     1      -1.143  15.039  20.924  0.00  0.00    +0.000 A 
ATOM     18  C   UNL     1      -0.852  15.666  19.690  0.00  0.00    +0.000 A 
ATOM     19  C   UNL     1      -0.182  14.971  18.686  0.00  0.00    +0.000 A 
ATOM     20  C   UNL     1       0.207  13.667  18.910  0.00  0.00    +0.000 A 
ATOM     21  C   UNL     1      -0.079  13.021  20.132  0.00  0.00    +0.000 A 
ATOM     22  H   UNL     1       1.798  11.336  19.295  0.00  0.00    +0.000 HD
ENDBRANCH   5   7
BRANCH   1  24
ATOM     23  C   UNL     1       3.136   2.465  19.407  0.00  0.00    +0.000 C 
ATOM     24  C   UNL     1       1.779   3.130  19.730  0.00  0.00    +0.000 C 
ATOM     25  C   UNL     1       0.725   2.412  18.829  0.00  0.00    +0.000 C 
ATOM     26  C   UNL     1       1.320   2.857  21.181  0.00  0.00    +0.000 C 
ENDBRANCH   1  24
BRANCH   3  27
ATOM     27  C   UNL     1       4.042   6.583  17.099  0.00  0.00    +0.000 C 
ATOM     28  N   UNL     1       4.811   5.666  16.652  0.00  0.00    +0.000 NA
BRANCH  28  29
ATOM     29  N   UNL     1       5.635   5.889  15.568  0.00  0.00    +0.000 N 
ATOM     30  C   UNL     1       6.926   5.304  15.547  0.00  0.00    +0.000 C 
ATOM     31  N   UNL     1       7.694   5.449  14.527  0.00  0.00    +0.000 NA
ATOM     32  N   UNL     1       7.366   4.533  16.649  0.00  0.00    +0.000 N 
ATOM     33  H   UNL     1       5.319   6.472  14.769  0.00  0.00    +0.000 HD
ATOM     34  H   UNL     1       7.410   5.993  13.705  0.00  0.00    +0.000 HD
ATOM     35  H   UNL     1       6.766   4.404  17.474  0.00  0.00    +0.000 HD
ATOM     36  H   UNL     1       8.302   4.106  16.663  0.00  0.00    +0.000 HD
ENDBRANCH  28  29
ENDBRANCH   3  27
BRANCH   4  37
ATOM     37  O   UNL     1       2.810   8.750  18.953  0.00  0.00    +0.000 OA
ATOM     38  H   UNL     1       3.148   9.108  18.125  0.00  0.00    +0.000 HD
ENDBRANCH   4  37
TORSDOF 5
ENDMDL
MODEL 6
REMARK VINA RESULT:      -7.1      5.206     10.204
REMARK  Name = 
REMARK  8 active torsions:
REMARK  status: ('A' for Active; 'I' for Inactive)
REMARK    1  A    between atoms: C_1  and  C_2
REMARK    2  A    between atoms: C_2  and  C_3
REMARK    3  A    between atoms: C_2  and  C_4
REMARK    4  A    between atoms: C_2  and  C_5
REMARK    5  A    between atoms: C_7  and  C_8
REMARK    6  A    between atoms: N_9  and  N_10
REMARK    7  A    between atoms: C_14  and  O_15
REMARK    8  A    between atoms: C_16  and  C_17
REMARK                            x       y       z     vdW  Elec       q    Type
REMARK                         _______ _______ _______ _____ _____    ______ ____
ROOT
ATOM      1  C   UNL     1      -1.084  10.320  18.265  0.00  0.00    +0.000 A 
ATOM      2  C   UNL     1      -1.367   9.995  16.963  0.00  0.00    +0.000 A 
ATOM      3  C   UNL     1      -2.590  10.300  16.368  0.00  0.00    +0.000 A 
ATOM      4  C   UNL     1      -3.621  10.999  17.137  0.00  0.00    +0.000 A 
ATOM      5  C   UNL     1      -3.396  11.380  18.512  0.00  0.00    +0.000 A 
ATOM      6  C   UNL     1      -2.094  10.975  19.006  0.00  0.00    +0.000 A 
ENDROOT
BRANCH   5   7
ATOM      7  C   UNL     1      -4.513  12.155  19.410  0.00  0.00    +0.000 C 
ATOM      8  C   UNL     1      -4.232  13.102  20.428  0.00  0.00    +0.000 C 
ATOM      9  C   UNL     1      -2.872  13.498  20.503  0.00  0.00    +0.000 C 
ATOM     10  O   UNL     1      -2.368  14.037  19.531  0.00  0.00    +0.000 OA
ATOM     11  N   UNL     1      -2.519  13.881  21.705  0.00  0.00    +0.000 N 
ATOM     12  C   UNL     1      -3.678  14.382  22.259  0.00  0.00    +0.000 A 
ATOM     13  C   UNL     1      -4.839  13.997  21.579  0.00  0.00    +0.000 A 
ATOM     14  C   UNL     1      -6.056  14.540  22.132  0.00  0.00    +0.000 A 
ATOM     15  C   UNL     1      -6.000  15.471  23.257  0.00  0.00    +0.000 A 
ATOM     16  C   UNL     1      -4.753  15.826  23.862  0.00  0.00    +0.000 A 
ATOM     17  C   UNL     1      -4.594  16.763  24.930  0.00  0.00    +0.000 A 
ATOM     18  C   UNL     1      -3.310  17.035  25.459  0.00  0.00    +0.000 A 
ATOM     19  C   UNL     1      -2.184  16.407  24.934  0.00  0.00    +0.000 A 
ATOM     20  C   UNL     1      -2.331  15.507  23.900  0.00  0.00    +0.000 A 
ATOM     21  C   UNL     1      -3.602  15.226  23.355  0.00  0.00    +0.000 A 
ATOM     22  H   UNL     1      -2.341  13.100  22.376  0.00  0.00    +0.000 HD
ENDBRANCH   5   7
BRANCH   1  24
ATOM     23  C   UNL     1       0.159   9.485  20.252  0.00  0.00    +0.000 C 
ATOM     24  C   UNL     1       0.352  10.063  18.832  0.00  0.00    +0.000 C 
ATOM     25  C   UNL     1       1.256  11.324  19.003  0.00  0.00    +0.000 C 
ATOM     26  C   UNL     1       1.155   9.113  17.914  0.00  0.00    +0.000 C 
ENDBRANCH   1  24
BRANCH   3  27
ATOM     27  C   UNL     1      -2.603   9.846  14.934  0.00  0.00    +0.000 C 
ATOM     28  N   UNL     1      -3.284  10.390  13.999  0.00  0.00    +0.000 NA
BRANCH  28  29
ATOM     29  N   UNL     1      -3.221   9.920  12.703  0.00  0.00    +0.000 N 
ATOM     30  C   UNL     1      -4.423   9.592  12.027  0.00  0.00    +0.000 C 
ATOM     31  N   UNL     1      -4.399   9.205  10.802  0.00  0.00    +0.000 NA
ATOM     32  N   UNL     1      -5.663   9.715  12.697  0.00  0.00    +0.000 N 
ATOM     33  H   UNL     1      -2.309   9.812  12.219  0.00  0.00    +0.000 HD
ATOM     34  H   UNL     1      -3.522   9.112  10.276  0.00  0.00    +0.000 HD
ATOM     35  H   UNL     1      -5.704  10.024  13.676  0.00  0.00    +0.000 HD
ATOM     36  H   UNL     1      -6.548   9.474  12.231  0.00  0.00    +0.000 HD
ENDBRANCH  28  29
ENDBRANCH   3  27
BRANCH   4  37
ATOM     37  O   UNL     1      -4.805  11.303  16.570  0.00  0.00    +0.000 OA
ATOM     38  H   UNL     1      -5.617  11.438  17.070  0.00  0.00    +0.000 HD
ENDBRANCH   4  37
TORSDOF 5
ENDMDL
MODEL 7
REMARK VINA RESULT:      -7.1      3.223      4.937
REMARK  Name = 
REMARK  8 active torsions:
REMARK  status: ('A' for Active; 'I' for Inactive)
REMARK    1  A    between atoms: C_1  and  C_2
REMARK    2  A    between atoms: C_2  and  C_3
REMARK    3  A    between atoms: C_2  and  C_4
REMARK    4  A    between atoms: C_2  and  C_5
REMARK    5  A    between atoms: C_7  and  C_8
REMARK    6  A    between atoms: N_9  and  N_10
REMARK    7  A    between atoms: C_14  and  O_15
REMARK    8  A    between atoms: C_16  and  C_17
REMARK                            x       y       z     vdW  Elec       q    Type
REMARK                         _______ _______ _______ _____ _____    ______ ____
ROOT
ATOM      1  C   UNL     1       1.299  12.511  19.275  0.00  0.00    +0.000 A 
ATOM      2  C   UNL     1       0.127  12.598  18.567  0.00  0.00    +0.000 A 
ATOM      3  C   UNL     1      -0.783  11.545  18.499  0.00  0.00    +0.000 A 
ATOM      4  C   UNL     1      -0.506  10.295  19.210  0.00  0.00    +0.000 A 
ATOM      5  C   UNL     1       0.703  10.128  19.983  0.00  0.00    +0.000 A 
ATOM      6  C   UNL     1       1.567  11.292  19.940  0.00  0.00    +0.000 A 
ENDROOT
BRANCH   5   7
ATOM      7  C   UNL     1       1.057   8.756  20.786  0.00  0.00    +0.000 C 
ATOM      8  C   UNL     1       1.571   7.572  20.197  0.00  0.00    +0.000 C 
ATOM      9  C   UNL     1       1.954   7.710  18.838  0.00  0.00    +0.000 C 
ATOM     10  O   UNL     1       2.828   8.514  18.558  0.00  0.00    +0.000 OA
ATOM     11  N   UNL     1       1.877   6.585  18.171  0.00  0.00    +0.000 N 
ATOM     12  C   UNL     1       2.102   5.609  19.119  0.00  0.00    +0.000 A 
ATOM     13  C   UNL     1       1.959   6.060  20.436  0.00  0.00    +0.000 A 
ATOM     14  C   UNL     1       2.222   5.055  21.438  0.00  0.00    +0.000 A 
ATOM     15  C   UNL     1       2.675   3.723  21.040  0.00  0.00    +0.000 A 
ATOM     16  C   UNL     1       2.820   3.372  19.661  0.00  0.00    +0.000 A 
ATOM     17  C   UNL     1       3.301   2.116  19.178  0.00  0.00    +0.000 A 
ATOM     18  C   UNL     1       3.399   1.872  17.788  0.00  0.00    +0.000 A 
ATOM     19  C   UNL     1       3.044   2.860  16.873  0.00  0.00    +0.000 A 
ATOM     20  C   UNL     1       2.585   4.076  17.333  0.00  0.00    +0.000 A 
ATOM     21  C   UNL     1       2.485   4.341  18.716  0.00  0.00    +0.000 A 
ATOM     22  H   UNL     1       0.911   6.314  17.884  0.00  0.00    +0.000 HD
ENDBRANCH   5   7
BRANCH   1  24
ATOM     23  C   UNL     1       1.295  14.997  19.219  0.00  0.00    +0.000 C 
ATOM     24  C   UNL     1       2.215  13.772  19.414  0.00  0.00    +0.000 C 
ATOM     25  C   UNL     1       3.348  13.915  18.349  0.00  0.00    +0.000 C 
ATOM     26  C   UNL     1       2.940  13.790  20.778  0.00  0.00    +0.000 C 
ENDBRANCH   1  24
BRANCH   3  27
ATOM     27  C   UNL     1      -1.978  11.937  17.675  0.00  0.00    +0.000 C 
ATOM     28  N   UNL     1      -3.160  11.479  17.834  0.00  0.00    +0.000 NA
BRANCH  28  29
ATOM     29  N   UNL     1      -4.206  11.910  17.044  0.00  0.00    +0.000 N 
ATOM     30  C   UNL     1      -5.526  11.872  17.560  0.00  0.00    +0.000 C 
ATOM     31  N   UNL     1      -6.512  12.318  16.868  0.00  0.00    +0.000 NA
ATOM     32  N   UNL     1      -5.758  11.361  18.859  0.00  0.00    +0.000 N 
ATOM     33  H   UNL     1      -4.038  12.266  16.084  0.00  0.00    +0.000 HD
ATOM     34  H   UNL     1      -6.387  12.704  15.926  0.00  0.00    +0.000 HD
ATOM     35  H   UNL     1      -4.982  11.001  19.429  0.00  0.00    +0.000 HD
ATOM     36  H   UNL     1      -6.707  11.314  19.253  0.00  0.00    +0.000 HD
ENDBRANCH  28  29
ENDBRANCH   3  27
BRANCH   4  37
ATOM     37  O   UNL     1      -1.382   9.272  19.156  0.00  0.00    +0.000 OA
ATOM     38  H   UNL     1      -2.337   9.390  19.117  0.00  0.00    +0.000 HD
ENDBRANCH   4  37
TORSDOF 5
ENDMDL
MODEL 8
REMARK VINA RESULT:      -7.0      3.297      9.516
REMARK  Name = 
REMARK  8 active torsions:
REMARK  status: ('A' for Active; 'I' for Inactive)
REMARK    1  A    between atoms: C_1  and  C_2
REMARK    2  A    between atoms: C_2  and  C_3
REMARK    3  A    between atoms: C_2  and  C_4
REMARK    4  A    between atoms: C_2  and  C_5
REMARK    5  A    between atoms: C_7  and  C_8
REMARK    6  A    between atoms: N_9  and  N_10
REMARK    7  A    between atoms: C_14  and  O_15
REMARK    8  A    between atoms: C_16  and  C_17
REMARK                            x       y       z     vdW  Elec       q    Type
REMARK                         _______ _______ _______ _____ _____    ______ ____
ROOT
ATOM      1  C   UNL     1       3.219   4.591  18.257  0.00  0.00    +0.000 A 
ATOM      2  C   UNL     1       3.974   3.993  17.280  0.00  0.00    +0.000 A 
ATOM      3  C   UNL     1       4.699   4.727  16.344  0.00  0.00    +0.000 A 
ATOM      4  C   UNL     1       4.677   6.191  16.389  0.00  0.00    +0.000 A 
ATOM      5  C   UNL     1       3.911   6.894  17.392  0.00  0.00    +0.000 A 
ATOM      6  C   UNL     1       3.187   6.004  18.279  0.00  0.00    +0.000 A 
ENDROOT
BRANCH   5   7
ATOM      7  C   UNL     1       3.852   8.519  17.481  0.00  0.00    +0.000 C 
ATOM      8  C   UNL     1       2.755   9.273  17.972  0.00  0.00    +0.000 C 
ATOM      9  C   UNL     1       1.737   8.499  18.584  0.00  0.00    +0.000 C 
ATOM     10  O   UNL     1       2.023   7.829  19.563  0.00  0.00    +0.000 OA
ATOM     11  N   UNL     1       0.556   9.063  18.514  0.00  0.00    +0.000 N 
ATOM     12  C   UNL     1       0.825  10.416  18.489  0.00  0.00    +0.000 A 
ATOM     13  C   UNL     1       2.153  10.720  18.174  0.00  0.00    +0.000 A 
ATOM     14  C   UNL     1       2.454  12.132  18.176  0.00  0.00    +0.000 A 
ATOM     15  C   UNL     1       1.429  13.099  18.562  0.00  0.00    +0.000 A 
ATOM     16  C   UNL     1       0.104  12.679  18.898  0.00  0.00    +0.000 A 
ATOM     17  C   UNL     1      -0.948  13.544  19.334  0.00  0.00    +0.000 A 
ATOM     18  C   UNL     1      -2.227  13.021  19.636  0.00  0.00    +0.000 A 
ATOM     19  C   UNL     1      -2.473  11.655  19.529  0.00  0.00    +0.000 A 
ATOM     20  C   UNL     1      -1.461  10.815  19.114  0.00  0.00    +0.000 A 
ATOM     21  C   UNL     1      -0.176  11.316  18.814  0.00  0.00    +0.000 A 
ATOM     22  H   UNL     1       0.085   8.973  17.587  0.00  0.00    +0.000 HD
ENDBRANCH   5   7
BRANCH   1  24
ATOM     23  C   UNL     1       1.281   3.092  18.688  0.00  0.00    +0.000 C 
ATOM     24  C   UNL     1       2.532   3.710  19.352  0.00  0.00    +0.000 C 
ATOM     25  C   UNL     1       2.015   4.467  20.616  0.00  0.00    +0.000 C 
ATOM     26  C   UNL     1       3.501   2.635  19.895  0.00  0.00    +0.000 C 
ENDBRANCH   1  24
BRANCH   3  27
ATOM     27  C   UNL     1       5.444   3.806  15.417  0.00  0.00    +0.000 C 
ATOM     28  N   UNL     1       5.770   4.083  14.213  0.00  0.00    +0.000 NA
BRANCH  28  29
ATOM     29  N   UNL     1       6.474   3.185  13.438  0.00  0.00    +0.000 N 
ATOM     30  C   UNL     1       5.951   2.798  12.179  0.00  0.00    +0.000 C 
ATOM     31  N   UNL     1       6.611   2.006  11.412  0.00  0.00    +0.000 NA
ATOM     32  N   UNL     1       4.702   3.306  11.750  0.00  0.00    +0.000 N 
ATOM     33  H   UNL     1       7.381   2.797  13.763  0.00  0.00    +0.000 HD
ATOM     34  H   UNL     1       7.524   1.622  11.681  0.00  0.00    +0.000 HD
ATOM     35  H   UNL     1       4.159   3.941  12.348  0.00  0.00    +0.000 HD
ATOM     36  H   UNL     1       4.296   3.033  10.845  0.00  0.00    +0.000 HD
ENDBRANCH  28  29
ENDBRANCH   3  27
BRANCH   4  37
ATOM     37  O   UNL     1       5.379   6.911  15.492  0.00  0.00    +0.000 OA
ATOM     38  H   UNL     1       5.508   6.642  14.577  0.00  0.00    +0.000 HD
ENDBRANCH   4  37
TORSDOF 5
ENDMDL
MODEL 9
REMARK VINA RESULT:      -6.8      1.109      1.241
REMARK  Name = 
REMARK  8 active torsions:
REMARK  status: ('A' for Active; 'I' for Inactive)
REMARK    1  A    between atoms: C_1  and  C_2
REMARK    2  A    between atoms: C_2  and  C_3
REMARK    3  A    between atoms: C_2  and  C_4
REMARK    4  A    between atoms: C_2  and  C_5
REMARK    5  A    between atoms: C_7  and  C_8
REMARK    6  A    between atoms: N_9  and  N_10
REMARK    7  A    between atoms: C_14  and  O_15
REMARK    8  A    between atoms: C_16  and  C_17
REMARK                            x       y       z     vdW  Elec       q    Type
REMARK                         _______ _______ _______ _____ _____    ______ ____
ROOT
ATOM      1  C   UNL     1      -2.026  11.160  18.135  0.00  0.00    +0.000 A 
ATOM      2  C   UNL     1      -1.395  12.377  18.175  0.00  0.00    +0.000 A 
ATOM      3  C   UNL     1      -0.217  12.584  18.889  0.00  0.00    +0.000 A 
ATOM      4  C   UNL     1       0.393  11.474  19.625  0.00  0.00    +0.000 A 
ATOM      5  C   UNL     1      -0.208  10.160  19.627  0.00  0.00    +0.000 A 
ATOM      6  C   UNL     1      -1.441  10.101  18.866  0.00  0.00    +0.000 A 
ENDROOT
BRANCH   5   7
ATOM      7  C   UNL     1       0.430   8.897  20.433  0.00  0.00    +0.000 C 
ATOM      8  C   UNL     1       1.307   7.930  19.878  0.00  0.00    +0.000 C 
ATOM      9  C   UNL     1       1.770   8.237  18.573  0.00  0.00    +0.000 C 
ATOM     10  O   UNL     1       2.411   9.263  18.409  0.00  0.00    +0.000 OA
ATOM     11  N   UNL     1       2.075   7.170  17.876  0.00  0.00    +0.000 N 
ATOM     12  C   UNL     1       2.465   6.245  18.821  0.00  0.00    +0.000 A 
ATOM     13  C   UNL     1       2.072   6.570  20.124  0.00  0.00    +0.000 A 
ATOM     14  C   UNL     1       2.502   5.624  21.126  0.00  0.00    +0.000 A 
ATOM     15  C   UNL     1       3.342   4.489  20.750  0.00  0.00    +0.000 A 
ATOM     16  C   UNL     1       3.715   4.263  19.388  0.00  0.00    +0.000 A 
ATOM     17  C   UNL     1       4.571   3.213  18.932  0.00  0.00    +0.000 A 
ATOM     18  C   UNL     1       4.871   3.078  17.556  0.00  0.00    +0.000 A 
ATOM     19  C   UNL     1       4.349   3.978  16.630  0.00  0.00    +0.000 A 
ATOM     20  C   UNL     1       3.528   4.996  17.064  0.00  0.00    +0.000 A 
ATOM     21  C   UNL     1       3.222   5.151  18.434  0.00  0.00    +0.000 A 
ATOM     22  H   UNL     1       1.254   6.661  17.478  0.00  0.00    +0.000 HD
ENDBRANCH   5   7
BRANCH   1  24
ATOM     23  C   UNL     1      -2.783  11.199  15.766  0.00  0.00    +0.000 C 
ATOM     24  C   UNL     1      -3.274  10.965  17.212  0.00  0.00    +0.000 C 
ATOM     25  C   UNL     1      -4.451  11.968  17.431  0.00  0.00    +0.000 C 
ATOM     26  C   UNL     1      -3.898   9.564  17.402  0.00  0.00    +0.000 C 
ENDBRANCH   1  24
BRANCH   3  27
ATOM     27  C   UNL     1       0.253  14.003  18.729  0.00  0.00    +0.000 C 
ATOM     28  N   UNL     1       1.455  14.401  18.899  0.00  0.00    +0.000 NA
BRANCH  28  29
ATOM     29  N   UNL     1       1.804  15.723  18.710  0.00  0.00    +0.000 N 
ATOM     30  C   UNL     1       2.913  16.035  17.884  0.00  0.00    +0.000 C 
ATOM     31  N   UNL     1       3.227  17.258  17.646  0.00  0.00    +0.000 NA
ATOM     32  N   UNL     1       3.666  14.992  17.295  0.00  0.00    +0.000 N 
ATOM     33  H   UNL     1       1.263  16.486  19.159  0.00  0.00    +0.000 HD
ATOM     34  H   UNL     1       2.703  18.043  18.046  0.00  0.00    +0.000 HD
ATOM     35  H   UNL     1       3.430  14.007  17.471  0.00  0.00    +0.000 HD
ATOM     36  H   UNL     1       4.481  15.192  16.699  0.00  0.00    +0.000 HD
ENDBRANCH  28  29
ENDBRANCH   3  27
BRANCH   4  37
ATOM     37  O   UNL     1       1.536  11.660  20.315  0.00  0.00    +0.000 OA
ATOM     38  H   UNL     1       2.257  12.221  20.011  0.00  0.00    +0.000 HD
ENDBRANCH   4  37
TORSDOF 5
ENDMDL
