MODEL 1
REMARK VINA RESULT:      -8.5      0.000      0.000
REMARK  Name = 
REMARK  5 active torsions:
REMARK  status: ('A' for Active; 'I' for Inactive)
REMARK    1  A    between atoms: C_1  and  O_2
REMARK    2  A    between atoms: O_2  and  C_3
REMARK    3  A    between atoms: C_6  and  C_7
REMARK    4  A    between atoms: C_7  and  C_9
REMARK    5  A    between atoms: C_9  and  N_10
REMARK                            x       y       z     vdW  Elec       q    Type
REMARK                         _______ _______ _______ _____ _____    ______ ____
ROOT
ATOM      1  N   UNL     1       4.987   5.160  18.064  0.00  0.00    +0.000 N 
ATOM      2  C   UNL     1       5.939   4.525  18.794  0.00  0.00    +0.000 C 
ATOM      3  O   UNL     1       7.117   4.818  18.899  0.00  0.00    +0.000 OA
ATOM      4  N   UNL     1       5.363   3.422  19.392  0.00  0.00    +0.000 N 
ATOM      5  C   UNL     1       3.910   3.443  19.256  0.00  0.00    +0.000 C 
ATOM      6  C   UNL     1       3.340   4.156  20.499  0.00  0.00    +0.000 C 
ATOM      7  C   UNL     1       1.897   4.628  20.385  0.00  0.00    +0.000 C 
ATOM      8  C   UNL     1       0.872   3.519  20.153  0.00  0.00    +0.000 C 
ATOM      9  C   UNL     1       0.894   2.948  18.741  0.00  0.00    +0.000 C 
ATOM     10  C   UNL     1       1.960   1.892  18.455  0.00  0.00    +0.000 C 
ATOM     11  C   UNL     1       3.344   2.036  19.091  0.00  0.00    +0.000 C 
ATOM     12  C   UNL     1       3.874   4.373  18.025  0.00  0.00    +0.000 C 
ATOM     13  O   UNL     1       2.996   4.445  17.178  0.00  0.00    +0.000 OA
ATOM     14  H   UNL     1       5.889   2.872  20.060  0.00  0.00    +0.000 HD
ENDROOT
BRANCH   1  15
ATOM     15  C   UNL     1       5.170   6.346  17.255  0.00  0.00    +0.000 C 
BRANCH  15  16
ATOM     16  C   UNL     1       6.434   6.166  16.410  0.00  0.00    +0.000 C 
ATOM     17  O   UNL     1       7.515   6.642  16.763  0.00  0.00    +0.000 OA
BRANCH  16  21
ATOM     18  C   UNL     1       6.410   3.734  12.853  0.00  0.00    +0.000 A 
ATOM     19  C   UNL     1       7.458   4.620  13.105  0.00  0.00    +0.000 A 
ATOM     20  C   UNL     1       7.458   5.410  14.257  0.00  0.00    +0.000 A 
ATOM     21  C   UNL     1       6.387   5.341  15.166  0.00  0.00    +0.000 A 
ATOM     22  C   UNL     1       5.330   4.468  14.890  0.00  0.00    +0.000 A 
ATOM     23  C   UNL     1       5.345   3.666  13.745  0.00  0.00    +0.000 A 
BRANCH  18  25
ATOM     24  C   UNL     1       5.478   2.060  11.463  0.00  0.00    +0.000 C 
ATOM     25  O   UNL     1       6.513   3.011  11.696  0.00  0.00    +0.000 OA
ENDBRANCH  18  25
ENDBRANCH  16  21
ENDBRANCH  15  16
ENDBRANCH   1  15
TORSDOF 4
ENDMDL
MODEL 2
REMARK VINA RESULT:      -8.5      0.734      1.144
REMARK  Name = 
REMARK  5 active torsions:
REMARK  status: ('A' for Active; 'I' for Inactive)
REMARK    1  A    between atoms: C_1  and  O_2
REMARK    2  A    between atoms: O_2  and  C_3
REMARK    3  A    between atoms: C_6  and  C_7
REMARK    4  A    between atoms: C_7  and  C_9
REMARK    5  A    between atoms: C_9  and  N_10
REMARK                            x       y       z     vdW  Elec       q    Type
REMARK                         _______ _______ _______ _____ _____    ______ ____
ROOT
ATOM      1  N   UNL     1       4.760   5.328  18.493  0.00  0.00    +0.000 N 
ATOM      2  C   UNL     1       5.765   4.650  19.104  0.00  0.00    +0.000 C 
ATOM      3  O   UNL     1       6.915   5.016  19.276  0.00  0.00    +0.000 OA
ATOM      4  N   UNL     1       5.287   3.410  19.480  0.00  0.00    +0.000 N 
ATOM      5  C   UNL     1       3.836   3.335  19.332  0.00  0.00    +0.000 C 
ATOM      6  C   UNL     1       3.212   3.755  20.679  0.00  0.00    +0.000 C 
ATOM      7  C   UNL     1       1.734   4.117  20.636  0.00  0.00    +0.000 C 
ATOM      8  C   UNL     1       0.806   2.988  20.190  0.00  0.00    +0.000 C 
ATOM      9  C   UNL     1       0.871   2.693  18.698  0.00  0.00    +0.000 C 
ATOM     10  C   UNL     1       2.022   1.802  18.234  0.00  0.00    +0.000 C 
ATOM     11  C   UNL     1       3.390   1.941  18.903  0.00  0.00    +0.000 C 
ATOM     12  C   UNL     1       3.718   4.471  18.295  0.00  0.00    +0.000 C 
ATOM     13  O   UNL     1       2.834   4.626  17.465  0.00  0.00    +0.000 OA
ATOM     14  H   UNL     1       5.859   2.792  20.041  0.00  0.00    +0.000 HD
ENDROOT
BRANCH   1  15
ATOM     15  C   UNL     1       4.840   6.654  17.920  0.00  0.00    +0.000 C 
BRANCH  15  16
ATOM     16  C   UNL     1       6.040   6.701  16.970  0.00  0.00    +0.000 C 
ATOM     17  O   UNL     1       6.974   7.484  17.155  0.00  0.00    +0.000 OA
BRANCH  16  21
ATOM     18  C   UNL     1       6.248   4.013  13.608  0.00  0.00    +0.000 A 
ATOM     19  C   UNL     1       5.036   4.594  13.985  0.00  0.00    +0.000 A 
ATOM     20  C   UNL     1       4.973   5.461  15.079  0.00  0.00    +0.000 A 
ATOM     21  C   UNL     1       6.127   5.737  15.832  0.00  0.00    +0.000 A 
ATOM     22  C   UNL     1       7.331   5.130  15.462  0.00  0.00    +0.000 A 
ATOM     23  C   UNL     1       7.391   4.278  14.354  0.00  0.00    +0.000 A 
BRANCH  18  25
ATOM     24  C   UNL     1       4.941   3.129  11.844  0.00  0.00    +0.000 C 
ATOM     25  O   UNL     1       6.193   3.182  12.523  0.00  0.00    +0.000 OA
ENDBRANCH  18  25
ENDBRANCH  16  21
ENDBRANCH  15  16
ENDBRANCH   1  15
TORSDOF 4
ENDMDL
MODEL 3
REMARK VINA RESULT:      -8.4      1.339      2.352
REMARK  Name = 
REMARK  5 active torsions:
REMARK  status: ('A' for Active; 'I' for Inactive)
REMARK    1  A    between atoms: C_1  and  O_2
REMARK    2  A    between atoms: O_2  and  C_3
REMARK    3  A    between atoms: C_6  and  C_7
REMARK    4  A    between atoms: C_7  and  C_9
REMARK    5  A    between atoms: C_9  and  N_10
REMARK                            x       y       z     vdW  Elec       q    Type
REMARK                         _______ _______ _______ _____ _____    ______ ____
ROOT
ATOM      1  N   UNL     1       5.131   5.283  18.196  0.00  0.00    +0.000 N 
ATOM      2  C   UNL     1       4.501   6.434  17.847  0.00  0.00    +0.000 C 
ATOM      3  O   UNL     1       4.977   7.402  17.281  0.00  0.00    +0.000 OA
ATOM      4  N   UNL     1       3.194   6.363  18.286  0.00  0.00    +0.000 N 
ATOM      5  C   UNL     1       2.858   5.017  18.739  0.00  0.00    +0.000 C 
ATOM      6  C   UNL     1       2.276   4.254  17.531  0.00  0.00    +0.000 C 
ATOM      7  C   UNL     1       2.220   2.739  17.673  0.00  0.00    +0.000 C 
ATOM      8  C   UNL     1       1.352   2.230  18.822  0.00  0.00    +0.000 C 
ATOM      9  C   UNL     1       1.976   2.428  20.197  0.00  0.00    +0.000 C 
ATOM     10  C   UNL     1       1.819   3.814  20.818  0.00  0.00    +0.000 C 
ATOM     11  C   UNL     1       1.891   5.049  19.918  0.00  0.00    +0.000 C 
ATOM     12  C   UNL     1       4.309   4.573  19.020  0.00  0.00    +0.000 C 
ATOM     13  O   UNL     1       4.680   3.710  19.802  0.00  0.00    +0.000 OA
ATOM     14  H   UNL     1       2.532   7.086  18.033  0.00  0.00    +0.000 HD
ENDROOT
BRANCH   1  15
ATOM     15  C   UNL     1       6.518   4.953  17.954  0.00  0.00    +0.000 C 
BRANCH  15  16
ATOM     16  C   UNL     1       6.941   5.584  16.624  0.00  0.00    +0.000 C 
ATOM     17  O   UNL     1       7.582   6.636  16.588  0.00  0.00    +0.000 OA
BRANCH  16  21
ATOM     18  C   UNL     1       5.947   3.626  12.916  0.00  0.00    +0.000 A 
ATOM     19  C   UNL     1       5.181   3.414  14.063  0.00  0.00    +0.000 A 
ATOM     20  C   UNL     1       5.511   4.047  15.264  0.00  0.00    +0.000 A 
ATOM     21  C   UNL     1       6.637   4.886  15.339  0.00  0.00    +0.000 A 
ATOM     22  C   UNL     1       7.412   5.070  14.190  0.00  0.00    +0.000 A 
ATOM     23  C   UNL     1       7.065   4.449  12.986  0.00  0.00    +0.000 A 
BRANCH  18  25
ATOM     24  C   UNL     1       4.207   3.240  11.357  0.00  0.00    +0.000 C 
ATOM     25  O   UNL     1       5.533   2.956  11.797  0.00  0.00    +0.000 OA
ENDBRANCH  18  25
ENDBRANCH  16  21
ENDBRANCH  15  16
ENDBRANCH   1  15
TORSDOF 4
ENDMDL
MODEL 4
REMARK VINA RESULT:      -8.4      1.539      2.424
REMARK  Name = 
REMARK  5 active torsions:
REMARK  status: ('A' for Active; 'I' for Inactive)
REMARK    1  A    between atoms: C_1  and  O_2
REMARK    2  A    between atoms: O_2  and  C_3
REMARK    3  A    between atoms: C_6  and  C_7
REMARK    4  A    between atoms: C_7  and  C_9
REMARK    5  A    between atoms: C_9  and  N_10
REMARK                            x       y       z     vdW  Elec       q    Type
REMARK                         _______ _______ _______ _____ _____    ______ ____
ROOT
ATOM      1  N   UNL     1       5.065   6.074  18.111  0.00  0.00    +0.000 N 
ATOM      2  C   UNL     1       4.093   6.771  17.469  0.00  0.00    +0.000 C 
ATOM      3  O   UNL     1       4.231   7.696  16.687  0.00  0.00    +0.000 OA
ATOM      4  N   UNL     1       2.867   6.287  17.882  0.00  0.00    +0.000 N 
ATOM      5  C   UNL     1       3.015   5.056  18.653  0.00  0.00    +0.000 C 
ATOM      6  C   UNL     1       2.916   3.877  17.664  0.00  0.00    +0.000 C 
ATOM      7  C   UNL     1       3.421   2.537  18.181  0.00  0.00    +0.000 C 
ATOM      8  C   UNL     1       2.679   1.996  19.403  0.00  0.00    +0.000 C 
ATOM      9  C   UNL     1       3.013   2.726  20.697  0.00  0.00    +0.000 C 
ATOM     10  C   UNL     1       2.269   4.037  20.945  0.00  0.00    +0.000 C 
ATOM     11  C   UNL     1       1.975   4.964  19.764  0.00  0.00    +0.000 C 
ATOM     12  C   UNL     1       4.482   5.299  19.069  0.00  0.00    +0.000 C 
ATOM     13  O   UNL     1       5.055   4.852  20.052  0.00  0.00    +0.000 OA
ATOM     14  H   UNL     1       2.016   6.612  17.441  0.00  0.00    +0.000 HD
ENDROOT
BRANCH   1  15
ATOM     15  C   UNL     1       6.492   6.277  17.991  0.00  0.00    +0.000 C 
BRANCH  15  16
ATOM     16  C   UNL     1       7.108   5.025  17.359  0.00  0.00    +0.000 C 
ATOM     17  O   UNL     1       7.837   4.272  18.008  0.00  0.00    +0.000 OA
BRANCH  16  21
ATOM     18  C   UNL     1       6.259   3.921  13.281  0.00  0.00    +0.000 A 
ATOM     19  C   UNL     1       7.303   4.797  13.582  0.00  0.00    +0.000 A 
ATOM     20  C   UNL     1       7.571   5.156  14.905  0.00  0.00    +0.000 A 
ATOM     21  C   UNL     1       6.773   4.659  15.951  0.00  0.00    +0.000 A 
ATOM     22  C   UNL     1       5.714   3.803  15.636  0.00  0.00    +0.000 A 
ATOM     23  C   UNL     1       5.463   3.432  14.311  0.00  0.00    +0.000 A 
BRANCH  18  25
ATOM     24  C   UNL     1       5.811   2.278  11.637  0.00  0.00    +0.000 C 
ATOM     25  O   UNL     1       6.088   3.639  11.953  0.00  0.00    +0.000 OA
ENDBRANCH  18  25
ENDBRANCH  16  21
ENDBRANCH  15  16
ENDBRANCH   1  15
TORSDOF 4
ENDMDL
MODEL 5
REMARK VINA RESULT:      -8.4      1.550      2.617
REMARK  Name = 
REMARK  5 active torsions:
REMARK  status: ('A' for Active; 'I' for Inactive)
REMARK    1  A    between atoms: C_1  and  O_2
REMARK    2  A    between atoms: O_2  and  C_3
REMARK    3  A    between atoms: C_6  and  C_7
REMARK    4  A    between atoms: C_7  and  C_9
REMARK    5  A    between atoms: C_9  and  N_10
REMARK                            x       y       z     vdW  Elec       q    Type
REMARK                         _______ _______ _______ _____ _____    ______ ____
ROOT
ATOM      1  N   UNL     1       4.955   6.073  18.102  0.00  0.00    +0.000 N 
ATOM      2  C   UNL     1       3.968   6.784  17.499  0.00  0.00    +0.000 C 
ATOM      3  O   UNL     1       4.087   7.743  16.758  0.00  0.00    +0.000 OA
ATOM      4  N   UNL     1       2.753   6.266  17.902  0.00  0.00    +0.000 N 
ATOM      5  C   UNL     1       2.924   5.005  18.617  0.00  0.00    +0.000 C 
ATOM      6  C   UNL     1       2.830   3.869  17.579  0.00  0.00    +0.000 C 
ATOM      7  C   UNL     1       3.357   2.514  18.033  0.00  0.00    +0.000 C 
ATOM      8  C   UNL     1       2.635   1.911  19.236  0.00  0.00    +0.000 C 
ATOM      9  C   UNL     1       2.971   2.589  20.558  0.00  0.00    +0.000 C 
ATOM     10  C   UNL     1       2.212   3.878  20.869  0.00  0.00    +0.000 C 
ATOM     11  C   UNL     1       1.895   4.851  19.732  0.00  0.00    +0.000 C 
ATOM     12  C   UNL     1       4.391   5.250  19.031  0.00  0.00    +0.000 C 
ATOM     13  O   UNL     1       4.979   4.768  19.988  0.00  0.00    +0.000 OA
ATOM     14  H   UNL     1       1.894   6.599  17.483  0.00  0.00    +0.000 HD
ENDROOT
BRANCH   1  15
ATOM     15  C   UNL     1       6.379   6.300  17.978  0.00  0.00    +0.000 C 
BRANCH  15  16
ATOM     16  C   UNL     1       7.026   5.026  17.425  0.00  0.00    +0.000 C 
ATOM     17  O   UNL     1       7.625   4.240  18.162  0.00  0.00    +0.000 OA
BRANCH  16  21
ATOM     18  C   UNL     1       6.477   4.068  13.260  0.00  0.00    +0.000 A 
ATOM     19  C   UNL     1       5.722   3.430  14.245  0.00  0.00    +0.000 A 
ATOM     20  C   UNL     1       5.908   3.741  15.595  0.00  0.00    +0.000 A 
ATOM     21  C   UNL     1       6.878   4.682  15.980  0.00  0.00    +0.000 A 
ATOM     22  C   UNL     1       7.647   5.296  14.986  0.00  0.00    +0.000 A 
ATOM     23  C   UNL     1       7.443   4.995  13.636  0.00  0.00    +0.000 A 
BRANCH  18  25
ATOM     24  C   UNL     1       5.307   2.596  11.822  0.00  0.00    +0.000 C 
ATOM     25  O   UNL     1       6.212   3.687  11.973  0.00  0.00    +0.000 OA
ENDBRANCH  18  25
ENDBRANCH  16  21
ENDBRANCH  15  16
ENDBRANCH   1  15
TORSDOF 4
ENDMDL
MODEL 6
REMARK VINA RESULT:      -8.4      0.479      1.089
REMARK  Name = 
REMARK  5 active torsions:
REMARK  status: ('A' for Active; 'I' for Inactive)
REMARK    1  A    between atoms: C_1  and  O_2
REMARK    2  A    between atoms: O_2  and  C_3
REMARK    3  A    between atoms: C_6  and  C_7
REMARK    4  A    between atoms: C_7  and  C_9
REMARK    5  A    between atoms: C_9  and  N_10
REMARK                            x       y       z     vdW  Elec       q    Type
REMARK                         _______ _______ _______ _____ _____    ______ ____
ROOT
ATOM      1  N   UNL     1       5.007   5.123  17.808  0.00  0.00    +0.000 N 
ATOM      2  C   UNL     1       5.966   4.596  18.610  0.00  0.00    +0.000 C 
ATOM      3  O   UNL     1       7.138   4.923  18.685  0.00  0.00    +0.000 OA
ATOM      4  N   UNL     1       5.408   3.558  19.330  0.00  0.00    +0.000 N 
ATOM      5  C   UNL     1       3.956   3.534  19.187  0.00  0.00    +0.000 C 
ATOM      6  C   UNL     1       3.364   4.376  20.336  0.00  0.00    +0.000 C 
ATOM      7  C   UNL     1       1.912   4.802  20.162  0.00  0.00    +0.000 C 
ATOM      8  C   UNL     1       0.911   3.653  20.056  0.00  0.00    +0.000 C 
ATOM      9  C   UNL     1       0.953   2.922  18.721  0.00  0.00    +0.000 C 
ATOM     10  C   UNL     1       2.041   1.862  18.564  0.00  0.00    +0.000 C 
ATOM     11  C   UNL     1       3.418   2.107  19.184  0.00  0.00    +0.000 C 
ATOM     12  C   UNL     1       3.910   4.314  17.856  0.00  0.00    +0.000 C 
ATOM     13  O   UNL     1       3.036   4.269  17.002  0.00  0.00    +0.000 OA
ATOM     14  H   UNL     1       5.940   3.101  20.060  0.00  0.00    +0.000 HD
ENDROOT
BRANCH   1  15
ATOM     15  C   UNL     1       5.172   6.210  16.867  0.00  0.00    +0.000 C 
BRANCH  15  16
ATOM     16  C   UNL     1       6.434   5.948  16.041  0.00  0.00    +0.000 C 
ATOM     17  O   UNL     1       7.528   6.406  16.377  0.00  0.00    +0.000 OA
BRANCH  16  21
ATOM     18  C   UNL     1       6.137   3.466  12.531  0.00  0.00    +0.000 A 
ATOM     19  C   UNL     1       5.086   3.537  13.446  0.00  0.00    +0.000 A 
ATOM     20  C   UNL     1       5.190   4.339  14.585  0.00  0.00    +0.000 A 
ATOM     21  C   UNL     1       6.367   5.065  14.838  0.00  0.00    +0.000 A 
ATOM     22  C   UNL     1       7.423   4.966  13.927  0.00  0.00    +0.000 A 
ATOM     23  C   UNL     1       7.306   4.176  12.779  0.00  0.00    +0.000 A 
BRANCH  18  25
ATOM     24  C   UNL     1       6.999   1.773  11.118  0.00  0.00    +0.000 C 
ATOM     25  O   UNL     1       5.927   2.650  11.452  0.00  0.00    +0.000 OA
ENDBRANCH  18  25
ENDBRANCH  16  21
ENDBRANCH  15  16
ENDBRANCH   1  15
TORSDOF 4
ENDMDL
MODEL 7
REMARK VINA RESULT:      -8.3      2.953      6.822
REMARK  Name = 
REMARK  5 active torsions:
REMARK  status: ('A' for Active; 'I' for Inactive)
REMARK    1  A    between atoms: C_1  and  O_2
REMARK    2  A    between atoms: O_2  and  C_3
REMARK    3  A    between atoms: C_6  and  C_7
REMARK    4  A    between atoms: C_7  and  C_9
REMARK    5  A    between atoms: C_9  and  N_10
REMARK                            x       y       z     vdW  Elec       q    Type
REMARK                         _______ _______ _______ _____ _____    ______ ____
ROOT
ATOM      1  N   UNL     1       3.917   3.694  19.112  0.00  0.00    +0.000 N 
ATOM      2  C   UNL     1       3.709   2.887  18.040  0.00  0.00    +0.000 C 
ATOM      3  O   UNL     1       2.845   2.039  17.902  0.00  0.00    +0.000 OA
ATOM      4  N   UNL     1       4.691   3.147  17.105  0.00  0.00    +0.000 N 
ATOM      5  C   UNL     1       5.452   4.342  17.452  0.00  0.00    +0.000 C 
ATOM      6  C   UNL     1       4.769   5.542  16.765  0.00  0.00    +0.000 C 
ATOM      7  C   UNL     1       5.157   6.915  17.294  0.00  0.00    +0.000 C 
ATOM      8  C   UNL     1       6.638   7.266  17.154  0.00  0.00    +0.000 C 
ATOM      9  C   UNL     1       7.538   6.530  18.137  0.00  0.00    +0.000 C 
ATOM     10  C   UNL     1       7.937   5.106  17.753  0.00  0.00    +0.000 C 
ATOM     11  C   UNL     1       6.917   4.209  17.050  0.00  0.00    +0.000 C 
ATOM     12  C   UNL     1       5.122   4.314  18.960  0.00  0.00    +0.000 C 
ATOM     13  O   UNL     1       5.781   4.793  19.870  0.00  0.00    +0.000 OA
ATOM     14  H   UNL     1       4.650   2.714  16.190  0.00  0.00    +0.000 HD
ENDROOT
BRANCH   1  15
ATOM     15  C   UNL     1       3.136   3.727  20.329  0.00  0.00    +0.000 C 
BRANCH  15  16
ATOM     16  C   UNL     1       1.806   4.426  20.032  0.00  0.00    +0.000 C 
ATOM     17  O   UNL     1       0.770   3.783  19.851  0.00  0.00    +0.000 OA
BRANCH  16  21
ATOM     18  C   UNL     1       1.515   8.724  19.915  0.00  0.00    +0.000 A 
ATOM     19  C   UNL     1       1.990   8.010  18.814  0.00  0.00    +0.000 A 
ATOM     20  C   UNL     1       2.087   6.617  18.859  0.00  0.00    +0.000 A 
ATOM     21  C   UNL     1       1.733   5.918  20.027  0.00  0.00    +0.000 A 
ATOM     22  C   UNL     1       1.283   6.645  21.132  0.00  0.00    +0.000 A 
ATOM     23  C   UNL     1       1.170   8.038  21.074  0.00  0.00    +0.000 A 
BRANCH  18  25
ATOM     24  C   UNL     1       1.060  10.545  18.474  0.00  0.00    +0.000 C 
ATOM     25  O   UNL     1       1.462  10.082  19.760  0.00  0.00    +0.000 OA
ENDBRANCH  18  25
ENDBRANCH  16  21
ENDBRANCH  15  16
ENDBRANCH   1  15
TORSDOF 4
ENDMDL
MODEL 8
REMARK VINA RESULT:      -8.3      2.930      6.786
REMARK  Name = 
REMARK  5 active torsions:
REMARK  status: ('A' for Active; 'I' for Inactive)
REMARK    1  A    between atoms: C_1  and  O_2
REMARK    2  A    between atoms: O_2  and  C_3
REMARK    3  A    between atoms: C_6  and  C_7
REMARK    4  A    between atoms: C_7  and  C_9
REMARK    5  A    between atoms: C_9  and  N_10
REMARK                            x       y       z     vdW  Elec       q    Type
REMARK                         _______ _______ _______ _____ _____    ______ ____
ROOT
ATOM      1  N   UNL     1       4.031   3.621  18.961  0.00  0.00    +0.000 N 
ATOM      2  C   UNL     1       3.929   2.820  17.869  0.00  0.00    +0.000 C 
ATOM      3  O   UNL     1       3.111   1.940  17.664  0.00  0.00    +0.000 OA
ATOM      4  N   UNL     1       4.961   3.130  17.006  0.00  0.00    +0.000 N 
ATOM      5  C   UNL     1       5.648   4.350  17.417  0.00  0.00    +0.000 C 
ATOM      6  C   UNL     1       4.966   5.531  16.697  0.00  0.00    +0.000 C 
ATOM      7  C   UNL     1       5.262   6.912  17.266  0.00  0.00    +0.000 C 
ATOM      8  C   UNL     1       6.734   7.322  17.231  0.00  0.00    +0.000 C 
ATOM      9  C   UNL     1       7.594   6.609  18.266  0.00  0.00    +0.000 C 
ATOM     10  C   UNL     1       8.075   5.207  17.896  0.00  0.00    +0.000 C 
ATOM     11  C   UNL     1       7.142   4.279  17.115  0.00  0.00    +0.000 C 
ATOM     12  C   UNL     1       5.218   4.289  18.898  0.00  0.00    +0.000 C 
ATOM     13  O   UNL     1       5.794   4.782  19.857  0.00  0.00    +0.000 OA
ATOM     14  H   UNL     1       5.000   2.709  16.086  0.00  0.00    +0.000 HD
ENDROOT
BRANCH   1  15
ATOM     15  C   UNL     1       3.168   3.608  20.122  0.00  0.00    +0.000 C 
BRANCH  15  16
ATOM     16  C   UNL     1       1.842   4.275  19.747  0.00  0.00    +0.000 C 
ATOM     17  O   UNL     1       0.825   3.609  19.540  0.00  0.00    +0.000 OA
BRANCH  16  21
ATOM     18  C   UNL     1       1.650   8.579  19.688  0.00  0.00    +0.000 A 
ATOM     19  C   UNL     1       1.342   7.866  20.848  0.00  0.00    +0.000 A 
ATOM     20  C   UNL     1       1.401   6.470  20.860  0.00  0.00    +0.000 A 
ATOM     21  C   UNL     1       1.745   5.764  19.694  0.00  0.00    +0.000 A 
ATOM     22  C   UNL     1       2.026   6.488  18.531  0.00  0.00    +0.000 A 
ATOM     23  C   UNL     1       1.985   7.885  18.531  0.00  0.00    +0.000 A 
BRANCH  18  25
ATOM     24  C   UNL     1       1.123  10.624  18.619  0.00  0.00    +0.000 C 
ATOM     25  O   UNL     1       1.560   9.941  19.791  0.00  0.00    +0.000 OA
ENDBRANCH  18  25
ENDBRANCH  16  21
ENDBRANCH  15  16
ENDBRANCH   1  15
TORSDOF 4
ENDMDL
MODEL 9
REMARK VINA RESULT:      -8.2      4.021      8.138
REMARK  Name = 
REMARK  5 active torsions:
REMARK  status: ('A' for Active; 'I' for Inactive)
REMARK    1  A    between atoms: C_1  and  O_2
REMARK    2  A    between atoms: O_2  and  C_3
REMARK    3  A    between atoms: C_6  and  C_7
REMARK    4  A    between atoms: C_7  and  C_9
REMARK    5  A    between atoms: C_9  and  N_10
REMARK                            x       y       z     vdW  Elec       q    Type
REMARK                         _______ _______ _______ _____ _____    ______ ____
ROOT
ATOM      1  N   UNL     1       3.042   5.514  18.709  0.00  0.00    +0.000 N 
ATOM      2  C   UNL     1       2.648   4.702  17.695  0.00  0.00    +0.000 C 
ATOM      3  O   UNL     1       1.516   4.336  17.430  0.00  0.00    +0.000 OA
ATOM      4  N   UNL     1       3.771   4.295  17.003  0.00  0.00    +0.000 N 
ATOM      5  C   UNL     1       4.951   5.050  17.415  0.00  0.00    +0.000 C 
ATOM      6  C   UNL     1       5.069   6.270  16.480  0.00  0.00    +0.000 C 
ATOM      7  C   UNL     1       5.986   7.386  16.962  0.00  0.00    +0.000 C 
ATOM      8  C   UNL     1       7.448   6.983  17.151  0.00  0.00    +0.000 C 
ATOM      9  C   UNL     1       7.693   6.122  18.383  0.00  0.00    +0.000 C 
ATOM     10  C   UNL     1       7.400   4.630  18.235  0.00  0.00    +0.000 C 
ATOM     11  C   UNL     1       6.206   4.184  17.390  0.00  0.00    +0.000 C 
ATOM     12  C   UNL     1       4.402   5.469  18.796  0.00  0.00    +0.000 C 
ATOM     13  O   UNL     1       5.049   5.759  19.791  0.00  0.00    +0.000 OA
ATOM     14  H   UNL     1       3.677   3.762  16.148  0.00  0.00    +0.000 HD
ENDROOT
BRANCH   1  15
ATOM     15  C   UNL     1       2.187   6.138  19.695  0.00  0.00    +0.000 C 
BRANCH  15  16
ATOM     16  C   UNL     1       2.010   7.612  19.319  0.00  0.00    +0.000 C 
ATOM     17  O   UNL     1       2.367   8.041  18.221  0.00  0.00    +0.000 OA
BRANCH  16  21
ATOM     18  C   UNL     1       0.154  10.306  22.125  0.00  0.00    +0.000 A 
ATOM     19  C   UNL     1       0.609   9.052  22.533  0.00  0.00    +0.000 A 
ATOM     20  C   UNL     1       1.206   8.180  21.618  0.00  0.00    +0.000 A 
ATOM     21  C   UNL     1       1.330   8.546  20.266  0.00  0.00    +0.000 A 
ATOM     22  C   UNL     1       0.847   9.794  19.863  0.00  0.00    +0.000 A 
ATOM     23  C   UNL     1       0.268  10.670  20.787  0.00  0.00    +0.000 A 
BRANCH  18  25
ATOM     24  C   UNL     1      -1.151  12.209  22.653  0.00  0.00    +0.000 C 
ATOM     25  O   UNL     1      -0.412  11.076  23.103  0.00  0.00    +0.000 OA
ENDBRANCH  18  25
ENDBRANCH  16  21
ENDBRANCH  15  16
ENDBRANCH   1  15
TORSDOF 4
ENDMDL
