MODEL 1
REMARK VINA RESULT:     -10.7      0.000      0.000
REMARK  Name = 
REMARK  4 active torsions:
REMARK  status: ('A' for Active; 'I' for Inactive)
REMARK    1  A    between atoms: C_2  and  C_3
REMARK    2  A    between atoms: C_3  and  C_4
REMARK    3  A    between atoms: N_13  and  C_14
REMARK    4  A    between atoms: C_19  and  C_20
REMARK                            x       y       z     vdW  Elec       q    Type
REMARK                         _______ _______ _______ _____ _____    ______ ____
ROOT
ATOM      1  C   UNL     1       3.338   4.198  20.024  0.00  0.00    +0.000 A 
ATOM      2  C   UNL     1       3.141   2.832  20.313  0.00  0.00    +0.000 A 
ATOM      3  C   UNL     1       1.864   2.329  20.544  0.00  0.00    +0.000 A 
ATOM      4  C   UNL     1       0.774   3.188  20.481  0.00  0.00    +0.000 A 
ATOM      5  C   UNL     1       0.966   4.541  20.206  0.00  0.00    +0.000 A 
ATOM      6  C   UNL     1       2.248   5.111  19.993  0.00  0.00    +0.000 A 
ENDROOT
BRANCH   6   7
ATOM      7  C   UNL     1       2.331   6.536  19.539  0.00  0.00    +0.000 A 
ATOM      8  C   UNL     1       2.814   6.887  18.252  0.00  0.00    +0.000 A 
ATOM      9  C   UNL     1       2.677   8.155  17.694  0.00  0.00    +0.000 A 
ATOM     10  C   UNL     1       1.916   9.112  18.340  0.00  0.00    +0.000 A 
ATOM     11  C   UNL     1       1.434   8.838  19.630  0.00  0.00    +0.000 A 
ATOM     12  C   UNL     1       1.761   7.627  20.252  0.00  0.00    +0.000 A 
ATOM     13  N   UNL     1       1.397   7.802  21.580  0.00  0.00    +0.000 N 
ATOM     14  C   UNL     1       0.707   8.986  21.761  0.00  0.00    +0.000 A 
ATOM     15  C   UNL     1       0.188   9.601  22.909  0.00  0.00    +0.000 A 
ATOM     16  C   UNL     1      -0.602  10.748  22.730  0.00  0.00    +0.000 A 
ATOM     17  C   UNL     1      -0.881  11.239  21.458  0.00  0.00    +0.000 A 
ATOM     18  C   UNL     1      -0.276  10.670  20.338  0.00  0.00    +0.000 A 
ATOM     19  C   UNL     1       0.569   9.554  20.504  0.00  0.00    +0.000 A 
ATOM     20  H   UNL     1       1.612   7.146  22.319  0.00  0.00    +0.000 HD
ENDBRANCH   6   7
BRANCH   1  23
ATOM     21  O   UNL     1       6.699   4.789  18.942  0.00  0.00    +0.000 OA
ATOM     22  C   UNL     1       5.526   4.422  18.808  0.00  0.00    +0.000 C 
ATOM     23  N   UNL     1       4.666   4.631  19.861  0.00  0.00    +0.000 N 
ATOM     24  H   UNL     1       5.022   5.299  20.539  0.00  0.00    +0.000 HD
BRANCH  22  25
ATOM     25  C   UNL     1       4.978   3.964  17.455  0.00  0.00    +0.000 C 
BRANCH  25  26
ATOM     26  C   UNL     1       5.808   4.313  16.235  0.00  0.00    +0.000 A 
ATOM     27  C   UNL     1       6.684   5.424  16.240  0.00  0.00    +0.000 A 
ATOM     28  C   UNL     1       7.391   5.800  15.090  0.00  0.00    +0.000 A 
ATOM     29  C   UNL     1       7.196   5.059  13.946  0.00  0.00    +0.000 A 
ATOM     30  C   UNL     1       6.341   3.985  13.923  0.00  0.00    +0.000 A 
ATOM     31  C   UNL     1       5.635   3.589  15.043  0.00  0.00    +0.000 A 
ATOM     32  O   UNL     1       6.275   3.402  12.695  0.00  0.00    +0.000 OA
ATOM     33  C   UNL     1       7.193   4.230  11.952  0.00  0.00    +0.000 C 
ATOM     34  O   UNL     1       7.780   5.286  12.739  0.00  0.00    +0.000 OA
ENDBRANCH  25  26
ENDBRANCH  22  25
ENDBRANCH   1  23
TORSDOF 4
ENDMDL
MODEL 2
REMARK VINA RESULT:     -10.4      0.633      1.208
REMARK  Name = 
REMARK  4 active torsions:
REMARK  status: ('A' for Active; 'I' for Inactive)
REMARK    1  A    between atoms: C_2  and  C_3
REMARK    2  A    between atoms: C_3  and  C_4
REMARK    3  A    between atoms: N_13  and  C_14
REMARK    4  A    between atoms: C_19  and  C_20
REMARK                            x       y       z     vdW  Elec       q    Type
REMARK                         _______ _______ _______ _____ _____    ______ ____
ROOT
ATOM      1  C   UNL     1       3.536   4.296  19.829  0.00  0.00    +0.000 A 
ATOM      2  C   UNL     1       3.415   2.931  20.163  0.00  0.00    +0.000 A 
ATOM      3  C   UNL     1       2.207   2.415  20.624  0.00  0.00    +0.000 A 
ATOM      4  C   UNL     1       1.110   3.259  20.749  0.00  0.00    +0.000 A 
ATOM      5  C   UNL     1       1.231   4.611  20.429  0.00  0.00    +0.000 A 
ATOM      6  C   UNL     1       2.444   5.194  19.984  0.00  0.00    +0.000 A 
ENDROOT
BRANCH   6   7
ATOM      7  C   UNL     1       2.424   6.614  19.508  0.00  0.00    +0.000 A 
ATOM      8  C   UNL     1       2.828   6.971  18.195  0.00  0.00    +0.000 A 
ATOM      9  C   UNL     1       2.593   8.220  17.627  0.00  0.00    +0.000 A 
ATOM     10  C   UNL     1       1.806   9.142  18.294  0.00  0.00    +0.000 A 
ATOM     11  C   UNL     1       1.399   8.861  19.608  0.00  0.00    +0.000 A 
ATOM     12  C   UNL     1       1.824   7.681  20.231  0.00  0.00    +0.000 A 
ATOM     13  N   UNL     1       1.509   7.857  21.571  0.00  0.00    +0.000 N 
ATOM     14  C   UNL     1       0.760   9.001  21.767  0.00  0.00    +0.000 A 
ATOM     15  C   UNL     1       0.258   9.604  22.929  0.00  0.00    +0.000 A 
ATOM     16  C   UNL     1      -0.606  10.700  22.771  0.00  0.00    +0.000 A 
ATOM     17  C   UNL     1      -0.969  11.154  21.506  0.00  0.00    +0.000 A 
ATOM     18  C   UNL     1      -0.382  10.602  20.367  0.00  0.00    +0.000 A 
ATOM     19  C   UNL     1       0.534   9.540  20.511  0.00  0.00    +0.000 A 
ATOM     20  H   UNL     1       1.794   7.226  22.308  0.00  0.00    +0.000 HD
ENDBRANCH   6   7
BRANCH   1  23
ATOM     21  O   UNL     1       6.648   4.901  18.166  0.00  0.00    +0.000 OA
ATOM     22  C   UNL     1       5.478   4.511  18.247  0.00  0.00    +0.000 C 
ATOM     23  N   UNL     1       4.807   4.743  19.426  0.00  0.00    +0.000 N 
ATOM     24  H   UNL     1       5.260   5.440  20.011  0.00  0.00    +0.000 HD
BRANCH  22  25
ATOM     25  C   UNL     1       4.716   3.998  17.024  0.00  0.00    +0.000 C 
BRANCH  25  26
ATOM     26  C   UNL     1       5.382   4.201  15.678  0.00  0.00    +0.000 A 
ATOM     27  C   UNL     1       4.945   3.496  14.532  0.00  0.00    +0.000 A 
ATOM     28  C   UNL     1       5.610   3.618  13.304  0.00  0.00    +0.000 A 
ATOM     29  C   UNL     1       6.714   4.439  13.251  0.00  0.00    +0.000 A 
ATOM     30  C   UNL     1       7.156   5.122  14.357  0.00  0.00    +0.000 A 
ATOM     31  C   UNL     1       6.518   5.023  15.579  0.00  0.00    +0.000 A 
ATOM     32  O   UNL     1       8.270   5.860  14.099  0.00  0.00    +0.000 OA
ATOM     33  C   UNL     1       8.471   5.567  12.701  0.00  0.00    +0.000 C 
ATOM     34  O   UNL     1       7.489   4.664  12.155  0.00  0.00    +0.000 OA
ENDBRANCH  25  26
ENDBRANCH  22  25
ENDBRANCH   1  23
TORSDOF 4
ENDMDL
MODEL 3
REMARK VINA RESULT:      -9.9      2.159      2.953
REMARK  Name = 
REMARK  4 active torsions:
REMARK  status: ('A' for Active; 'I' for Inactive)
REMARK    1  A    between atoms: C_2  and  C_3
REMARK    2  A    between atoms: C_3  and  C_4
REMARK    3  A    between atoms: N_13  and  C_14
REMARK    4  A    between atoms: C_19  and  C_20
REMARK                            x       y       z     vdW  Elec       q    Type
REMARK                         _______ _______ _______ _____ _____    ______ ____
ROOT
ATOM      1  C   UNL     1       2.448   3.898  18.908  0.00  0.00    +0.000 A 
ATOM      2  C   UNL     1       2.225   2.592  19.391  0.00  0.00    +0.000 A 
ATOM      3  C   UNL     1       1.957   2.367  20.739  0.00  0.00    +0.000 A 
ATOM      4  C   UNL     1       1.904   3.448  21.611  0.00  0.00    +0.000 A 
ATOM      5  C   UNL     1       2.135   4.738  21.137  0.00  0.00    +0.000 A 
ATOM      6  C   UNL     1       2.442   5.020  19.781  0.00  0.00    +0.000 A 
ENDROOT
BRANCH   6   7
ATOM      7  C   UNL     1       2.505   6.451  19.344  0.00  0.00    +0.000 A 
ATOM      8  C   UNL     1       2.992   6.824  18.064  0.00  0.00    +0.000 A 
ATOM      9  C   UNL     1       2.839   8.096  17.519  0.00  0.00    +0.000 A 
ATOM     10  C   UNL     1       2.057   9.033  18.171  0.00  0.00    +0.000 A 
ATOM     11  C   UNL     1       1.571   8.737  19.454  0.00  0.00    +0.000 A 
ATOM     12  C   UNL     1       1.913   7.524  20.065  0.00  0.00    +0.000 A 
ATOM     13  N   UNL     1       1.537   7.679  21.392  0.00  0.00    +0.000 N 
ATOM     14  C   UNL     1       0.827   8.849  21.581  0.00  0.00    +0.000 A 
ATOM     15  C   UNL     1       0.290   9.443  22.733  0.00  0.00    +0.000 A 
ATOM     16  C   UNL     1      -0.517  10.579  22.561  0.00  0.00    +0.000 A 
ATOM     17  C   UNL     1      -0.795  11.080  21.293  0.00  0.00    +0.000 A 
ATOM     18  C   UNL     1      -0.173  10.533  20.170  0.00  0.00    +0.000 A 
ATOM     19  C   UNL     1       0.689   9.430  20.330  0.00  0.00    +0.000 A 
ATOM     20  H   UNL     1       1.757   7.018  22.125  0.00  0.00    +0.000 HD
ENDBRANCH   6   7
BRANCH   1  23
ATOM     21  O   UNL     1       4.035   4.367  15.733  0.00  0.00    +0.000 OA
ATOM     22  C   UNL     1       4.002   4.128  16.945  0.00  0.00    +0.000 C 
ATOM     23  N   UNL     1       2.768   4.027  17.544  0.00  0.00    +0.000 N 
ATOM     24  H   UNL     1       2.010   3.903  16.877  0.00  0.00    +0.000 HD
BRANCH  22  25
ATOM     25  C   UNL     1       5.260   3.730  17.719  0.00  0.00    +0.000 C 
BRANCH  25  26
ATOM     26  C   UNL     1       6.251   4.839  18.016  0.00  0.00    +0.000 A 
ATOM     27  C   UNL     1       7.107   4.772  19.140  0.00  0.00    +0.000 A 
ATOM     28  C   UNL     1       7.966   5.831  19.464  0.00  0.00    +0.000 A 
ATOM     29  C   UNL     1       7.940   6.949  18.660  0.00  0.00    +0.000 A 
ATOM     30  C   UNL     1       7.107   7.031  17.572  0.00  0.00    +0.000 A 
ATOM     31  C   UNL     1       6.253   6.002  17.226  0.00  0.00    +0.000 A 
ATOM     32  O   UNL     1       7.219   8.222  16.923  0.00  0.00    +0.000 OA
ATOM     33  C   UNL     1       8.226   8.874  17.726  0.00  0.00    +0.000 C 
ATOM     34  O   UNL     1       8.686   8.073  18.832  0.00  0.00    +0.000 OA
ENDBRANCH  25  26
ENDBRANCH  22  25
ENDBRANCH   1  23
TORSDOF 4
ENDMDL
MODEL 4
REMARK VINA RESULT:      -9.9      4.069      6.728
REMARK  Name = 
REMARK  4 active torsions:
REMARK  status: ('A' for Active; 'I' for Inactive)
REMARK    1  A    between atoms: C_2  and  C_3
REMARK    2  A    between atoms: C_3  and  C_4
REMARK    3  A    between atoms: N_13  and  C_14
REMARK    4  A    between atoms: C_19  and  C_20
REMARK                            x       y       z     vdW  Elec       q    Type
REMARK                         _______ _______ _______ _____ _____    ______ ____
ROOT
ATOM      1  C   UNL     1       6.844   5.467  16.568  0.00  0.00    +0.000 A 
ATOM      2  C   UNL     1       7.684   5.070  15.508  0.00  0.00    +0.000 A 
ATOM      3  C   UNL     1       7.151   4.714  14.272  0.00  0.00    +0.000 A 
ATOM      4  C   UNL     1       5.774   4.759  14.087  0.00  0.00    +0.000 A 
ATOM      5  C   UNL     1       4.941   5.141  15.137  0.00  0.00    +0.000 A 
ATOM      6  C   UNL     1       5.430   5.485  16.424  0.00  0.00    +0.000 A 
ENDROOT
BRANCH   6   7
ATOM      7  C   UNL     1       4.469   6.043  17.428  0.00  0.00    +0.000 A 
ATOM      8  C   UNL     1       3.872   7.320  17.268  0.00  0.00    +0.000 A 
ATOM      9  C   UNL     1       2.797   7.772  18.028  0.00  0.00    +0.000 A 
ATOM     10  C   UNL     1       2.161   6.909  18.902  0.00  0.00    +0.000 A 
ATOM     11  C   UNL     1       2.719   5.640  19.128  0.00  0.00    +0.000 A 
ATOM     12  C   UNL     1       3.920   5.287  18.501  0.00  0.00    +0.000 A 
ATOM     13  N   UNL     1       4.334   4.135  19.155  0.00  0.00    +0.000 N 
ATOM     14  C   UNL     1       3.364   3.672  20.023  0.00  0.00    +0.000 A 
ATOM     15  C   UNL     1       3.344   2.591  20.916  0.00  0.00    +0.000 A 
ATOM     16  C   UNL     1       2.129   2.300  21.557  0.00  0.00    +0.000 A 
ATOM     17  C   UNL     1       0.981   3.042  21.296  0.00  0.00    +0.000 A 
ATOM     18  C   UNL     1       1.046   4.172  20.480  0.00  0.00    +0.000 A 
ATOM     19  C   UNL     1       2.273   4.514  19.876  0.00  0.00    +0.000 A 
ATOM     20  H   UNL     1       5.232   3.693  19.013  0.00  0.00    +0.000 HD
ENDBRANCH   6   7
BRANCH   1  23
ATOM     21  O   UNL     1       8.605   6.928  19.322  0.00  0.00    +0.000 OA
ATOM     22  C   UNL     1       7.989   6.943  18.251  0.00  0.00    +0.000 C 
ATOM     23  N   UNL     1       7.463   5.755  17.798  0.00  0.00    +0.000 N 
ATOM     24  H   UNL     1       7.414   5.041  18.520  0.00  0.00    +0.000 HD
BRANCH  22  25
ATOM     25  C   UNL     1       7.617   8.255  17.558  0.00  0.00    +0.000 C 
BRANCH  25  26
ATOM     26  C   UNL     1       8.319   9.504  18.052  0.00  0.00    +0.000 A 
ATOM     27  C   UNL     1       9.129   9.478  19.212  0.00  0.00    +0.000 A 
ATOM     28  C   UNL     1       9.714  10.646  19.719  0.00  0.00    +0.000 A 
ATOM     29  C   UNL     1       9.464  11.828  19.059  0.00  0.00    +0.000 A 
ATOM     30  C   UNL     1       8.672  11.871  17.938  0.00  0.00    +0.000 A 
ATOM     31  C   UNL     1       8.086  10.735  17.413  0.00  0.00    +0.000 A 
ATOM     32  O   UNL     1       8.535  13.133  17.449  0.00  0.00    +0.000 OA
ATOM     33  C   UNL     1       9.339  13.877  18.389  0.00  0.00    +0.000 C 
ATOM     34  O   UNL     1       9.930  13.055  19.415  0.00  0.00    +0.000 OA
ENDBRANCH  25  26
ENDBRANCH  22  25
ENDBRANCH   1  23
TORSDOF 4
ENDMDL
MODEL 5
REMARK VINA RESULT:      -9.6      4.030      6.799
REMARK  Name = 
REMARK  4 active torsions:
REMARK  status: ('A' for Active; 'I' for Inactive)
REMARK    1  A    between atoms: C_2  and  C_3
REMARK    2  A    between atoms: C_3  and  C_4
REMARK    3  A    between atoms: N_13  and  C_14
REMARK    4  A    between atoms: C_19  and  C_20
REMARK                            x       y       z     vdW  Elec       q    Type
REMARK                         _______ _______ _______ _____ _____    ______ ____
ROOT
ATOM      1  C   UNL     1       6.870   5.520  16.579  0.00  0.00    +0.000 A 
ATOM      2  C   UNL     1       7.709   5.119  15.519  0.00  0.00    +0.000 A 
ATOM      3  C   UNL     1       7.173   4.718  14.299  0.00  0.00    +0.000 A 
ATOM      4  C   UNL     1       5.794   4.721  14.128  0.00  0.00    +0.000 A 
ATOM      5  C   UNL     1       4.962   5.106  15.178  0.00  0.00    +0.000 A 
ATOM      6  C   UNL     1       5.454   5.495  16.450  0.00  0.00    +0.000 A 
ENDROOT
BRANCH   6   7
ATOM      7  C   UNL     1       4.489   6.051  17.452  0.00  0.00    +0.000 A 
ATOM      8  C   UNL     1       3.893   7.329  17.291  0.00  0.00    +0.000 A 
ATOM      9  C   UNL     1       2.815   7.780  18.047  0.00  0.00    +0.000 A 
ATOM     10  C   UNL     1       2.175   6.915  18.917  0.00  0.00    +0.000 A 
ATOM     11  C   UNL     1       2.732   5.645  19.143  0.00  0.00    +0.000 A 
ATOM     12  C   UNL     1       3.936   5.294  18.521  0.00  0.00    +0.000 A 
ATOM     13  N   UNL     1       4.347   4.141  19.175  0.00  0.00    +0.000 N 
ATOM     14  C   UNL     1       3.373   3.677  20.039  0.00  0.00    +0.000 A 
ATOM     15  C   UNL     1       3.350   2.594  20.929  0.00  0.00    +0.000 A 
ATOM     16  C   UNL     1       2.132   2.302  21.565  0.00  0.00    +0.000 A 
ATOM     17  C   UNL     1       0.985   3.045  21.300  0.00  0.00    +0.000 A 
ATOM     18  C   UNL     1       1.054   4.176  20.486  0.00  0.00    +0.000 A 
ATOM     19  C   UNL     1       2.283   4.519  19.888  0.00  0.00    +0.000 A 
ATOM     20  H   UNL     1       5.246   3.699  19.036  0.00  0.00    +0.000 HD
ENDBRANCH   6   7
BRANCH   1  23
ATOM     21  O   UNL     1       8.622   7.095  19.275  0.00  0.00    +0.000 OA
ATOM     22  C   UNL     1       7.995   7.067  18.210  0.00  0.00    +0.000 C 
ATOM     23  N   UNL     1       7.493   5.856  17.794  0.00  0.00    +0.000 N 
ATOM     24  H   UNL     1       7.468   5.160  18.535  0.00  0.00    +0.000 HD
BRANCH  22  25
ATOM     25  C   UNL     1       7.586   8.351  17.486  0.00  0.00    +0.000 C 
BRANCH  25  26
ATOM     26  C   UNL     1       8.200   9.640  17.994  0.00  0.00    +0.000 A 
ATOM     27  C   UNL     1       7.947  10.875  17.351  0.00  0.00    +0.000 A 
ATOM     28  C   UNL     1       8.577  12.055  17.767  0.00  0.00    +0.000 A 
ATOM     29  C   UNL     1       9.465  11.974  18.816  0.00  0.00    +0.000 A 
ATOM     30  C   UNL     1       9.729  10.781  19.443  0.00  0.00    +0.000 A 
ATOM     31  C   UNL     1       9.119   9.603  19.057  0.00  0.00    +0.000 A 
ATOM     32  O   UNL     1      10.647  10.912  20.439  0.00  0.00    +0.000 OA
ATOM     33  C   UNL     1      10.923  12.326  20.370  0.00  0.00    +0.000 C 
ATOM     34  O   UNL     1      10.178  13.007  19.340  0.00  0.00    +0.000 OA
ENDBRANCH  25  26
ENDBRANCH  22  25
ENDBRANCH   1  23
TORSDOF 4
ENDMDL
MODEL 6
REMARK VINA RESULT:      -9.6      2.004      2.795
REMARK  Name = 
REMARK  4 active torsions:
REMARK  status: ('A' for Active; 'I' for Inactive)
REMARK    1  A    between atoms: C_2  and  C_3
REMARK    2  A    between atoms: C_3  and  C_4
REMARK    3  A    between atoms: N_13  and  C_14
REMARK    4  A    between atoms: C_19  and  C_20
REMARK                            x       y       z     vdW  Elec       q    Type
REMARK                         _______ _______ _______ _____ _____    ______ ____
ROOT
ATOM      1  C   UNL     1       1.768   3.687  19.463  0.00  0.00    +0.000 A 
ATOM      2  C   UNL     1       1.548   2.461  20.124  0.00  0.00    +0.000 A 
ATOM      3  C   UNL     1       1.740   2.349  21.499  0.00  0.00    +0.000 A 
ATOM      4  C   UNL     1       2.147   3.463  22.221  0.00  0.00    +0.000 A 
ATOM      5  C   UNL     1       2.375   4.674  21.568  0.00  0.00    +0.000 A 
ATOM      6  C   UNL     1       2.224   4.835  20.168  0.00  0.00    +0.000 A 
ENDROOT
BRANCH   6   7
ATOM      7  C   UNL     1       2.329   6.213  19.590  0.00  0.00    +0.000 A 
ATOM      8  C   UNL     1       2.804   6.441  18.273  0.00  0.00    +0.000 A 
ATOM      9  C   UNL     1       2.685   7.659  17.608  0.00  0.00    +0.000 A 
ATOM     10  C   UNL     1       1.949   8.683  18.176  0.00  0.00    +0.000 A 
ATOM     11  C   UNL     1       1.477   8.532  19.490  0.00  0.00    +0.000 A 
ATOM     12  C   UNL     1       1.789   7.373  20.211  0.00  0.00    +0.000 A 
ATOM     13  N   UNL     1       1.443   7.670  21.523  0.00  0.00    +0.000 N 
ATOM     14  C   UNL     1       0.778   8.879  21.606  0.00  0.00    +0.000 A 
ATOM     15  C   UNL     1       0.285   9.602  22.702  0.00  0.00    +0.000 A 
ATOM     16  C   UNL     1      -0.486  10.744  22.432  0.00  0.00    +0.000 A 
ATOM     17  C   UNL     1      -0.770  11.129  21.125  0.00  0.00    +0.000 A 
ATOM     18  C   UNL     1      -0.189  10.452  20.052  0.00  0.00    +0.000 A 
ATOM     19  C   UNL     1       0.637   9.339  20.307  0.00  0.00    +0.000 A 
ATOM     20  H   UNL     1       1.654   7.077  22.313  0.00  0.00    +0.000 HD
ENDBRANCH   6   7
BRANCH   1  23
ATOM     21  O   UNL     1       2.193   3.726  15.908  0.00  0.00    +0.000 OA
ATOM     22  C   UNL     1       2.551   3.552  17.078  0.00  0.00    +0.000 C 
ATOM     23  N   UNL     1       1.605   3.696  18.066  0.00  0.00    +0.000 N 
ATOM     24  H   UNL     1       0.653   3.677  17.710  0.00  0.00    +0.000 HD
BRANCH  22  25
ATOM     25  C   UNL     1       3.927   2.975  17.418  0.00  0.00    +0.000 C 
BRANCH  25  26
ATOM     26  C   UNL     1       5.014   3.975  17.759  0.00  0.00    +0.000 A 
ATOM     27  C   UNL     1       5.510   4.094  19.079  0.00  0.00    +0.000 A 
ATOM     28  C   UNL     1       6.456   5.072  19.416  0.00  0.00    +0.000 A 
ATOM     29  C   UNL     1       6.879   5.926  18.421  0.00  0.00    +0.000 A 
ATOM     30  C   UNL     1       6.399   5.828  17.139  0.00  0.00    +0.000 A 
ATOM     31  C   UNL     1       5.470   4.872  16.777  0.00  0.00    +0.000 A 
ATOM     32  O   UNL     1       6.927   6.774  16.315  0.00  0.00    +0.000 OA
ATOM     33  C   UNL     1       7.800   7.472  17.228  0.00  0.00    +0.000 C 
ATOM     34  O   UNL     1       7.773   6.941  18.568  0.00  0.00    +0.000 OA
ENDBRANCH  25  26
ENDBRANCH  22  25
ENDBRANCH   1  23
TORSDOF 4
ENDMDL
MODEL 7
REMARK VINA RESULT:      -9.4      1.975      3.006
REMARK  Name = 
REMARK  4 active torsions:
REMARK  status: ('A' for Active; 'I' for Inactive)
REMARK    1  A    between atoms: C_2  and  C_3
REMARK    2  A    between atoms: C_3  and  C_4
REMARK    3  A    between atoms: N_13  and  C_14
REMARK    4  A    between atoms: C_19  and  C_20
REMARK                            x       y       z     vdW  Elec       q    Type
REMARK                         _______ _______ _______ _____ _____    ______ ____
ROOT
ATOM      1  C   UNL     1       1.616   3.702  19.592  0.00  0.00    +0.000 A 
ATOM      2  C   UNL     1       1.403   2.476  20.256  0.00  0.00    +0.000 A 
ATOM      3  C   UNL     1       1.713   2.333  21.605  0.00  0.00    +0.000 A 
ATOM      4  C   UNL     1       2.233   3.417  22.302  0.00  0.00    +0.000 A 
ATOM      5  C   UNL     1       2.454   4.627  21.646  0.00  0.00    +0.000 A 
ATOM      6  C   UNL     1       2.184   4.818  20.267  0.00  0.00    +0.000 A 
ENDROOT
BRANCH   6   7
ATOM      7  C   UNL     1       2.297   6.200  19.699  0.00  0.00    +0.000 A 
ATOM      8  C   UNL     1       2.799   6.436  18.393  0.00  0.00    +0.000 A 
ATOM      9  C   UNL     1       2.690   7.657  17.733  0.00  0.00    +0.000 A 
ATOM     10  C   UNL     1       1.940   8.676  18.291  0.00  0.00    +0.000 A 
ATOM     11  C   UNL     1       1.441   8.516  19.594  0.00  0.00    +0.000 A 
ATOM     12  C   UNL     1       1.741   7.354  20.315  0.00  0.00    +0.000 A 
ATOM     13  N   UNL     1       1.368   7.643  21.621  0.00  0.00    +0.000 N 
ATOM     14  C   UNL     1       0.698   8.849  21.698  0.00  0.00    +0.000 A 
ATOM     15  C   UNL     1       0.180   9.565  22.787  0.00  0.00    +0.000 A 
ATOM     16  C   UNL     1      -0.588  10.707  22.507  0.00  0.00    +0.000 A 
ATOM     17  C   UNL     1      -0.846  11.098  21.197  0.00  0.00    +0.000 A 
ATOM     18  C   UNL     1      -0.241  10.429  20.133  0.00  0.00    +0.000 A 
ATOM     19  C   UNL     1       0.582   9.316  20.398  0.00  0.00    +0.000 A 
ATOM     20  H   UNL     1       1.564   7.046  22.413  0.00  0.00    +0.000 HD
ENDBRANCH   6   7
BRANCH   1  23
ATOM     21  O   UNL     1       1.718   3.777  16.014  0.00  0.00    +0.000 OA
ATOM     22  C   UNL     1       2.172   3.567  17.144  0.00  0.00    +0.000 C 
ATOM     23  N   UNL     1       1.328   3.741  18.216  0.00  0.00    +0.000 N 
ATOM     24  H   UNL     1       0.347   3.773  17.949  0.00  0.00    +0.000 HD
BRANCH  22  25
ATOM     25  C   UNL     1       3.543   2.920  17.351  0.00  0.00    +0.000 C 
BRANCH  25  26
ATOM     26  C   UNL     1       4.727   3.861  17.454  0.00  0.00    +0.000 A 
ATOM     27  C   UNL     1       5.341   4.394  16.296  0.00  0.00    +0.000 A 
ATOM     28  C   UNL     1       6.485   5.198  16.383  0.00  0.00    +0.000 A 
ATOM     29  C   UNL     1       7.004   5.444  17.635  0.00  0.00    +0.000 A 
ATOM     30  C   UNL     1       6.426   4.925  18.766  0.00  0.00    +0.000 A 
ATOM     31  C   UNL     1       5.295   4.133  18.711  0.00  0.00    +0.000 A 
ATOM     32  O   UNL     1       7.101   5.268  19.897  0.00  0.00    +0.000 OA
ATOM     33  C   UNL     1       8.166   6.069  19.344  0.00  0.00    +0.000 C 
ATOM     34  O   UNL     1       8.113   6.183  17.908  0.00  0.00    +0.000 OA
ENDBRANCH  25  26
ENDBRANCH  22  25
ENDBRANCH   1  23
TORSDOF 4
ENDMDL
MODEL 8
REMARK VINA RESULT:      -9.3      1.510      1.734
REMARK  Name = 
REMARK  4 active torsions:
REMARK  status: ('A' for Active; 'I' for Inactive)
REMARK    1  A    between atoms: C_2  and  C_3
REMARK    2  A    between atoms: C_3  and  C_4
REMARK    3  A    between atoms: N_13  and  C_14
REMARK    4  A    between atoms: C_19  and  C_20
REMARK                            x       y       z     vdW  Elec       q    Type
REMARK                         _______ _______ _______ _____ _____    ______ ____
ROOT
ATOM      1  C   UNL     1       1.800   3.637  19.487  0.00  0.00    +0.000 A 
ATOM      2  C   UNL     1       1.514   2.443  20.180  0.00  0.00    +0.000 A 
ATOM      3  C   UNL     1       1.719   2.351  21.554  0.00  0.00    +0.000 A 
ATOM      4  C   UNL     1       2.205   3.454  22.245  0.00  0.00    +0.000 A 
ATOM      5  C   UNL     1       2.498   4.632  21.559  0.00  0.00    +0.000 A 
ATOM      6  C   UNL     1       2.337   4.770  20.157  0.00  0.00    +0.000 A 
ENDROOT
BRANCH   6   7
ATOM      7  C   UNL     1       2.519   6.126  19.546  0.00  0.00    +0.000 A 
ATOM      8  C   UNL     1       3.138   6.301  18.282  0.00  0.00    +0.000 A 
ATOM      9  C   UNL     1       3.106   7.494  17.564  0.00  0.00    +0.000 A 
ATOM     10  C   UNL     1       2.323   8.544  18.010  0.00  0.00    +0.000 A 
ATOM     11  C   UNL     1       1.707   8.444  19.268  0.00  0.00    +0.000 A 
ATOM     12  C   UNL     1       1.925   7.311  20.061  0.00  0.00    +0.000 A 
ATOM     13  N   UNL     1       1.441   7.659  21.314  0.00  0.00    +0.000 N 
ATOM     14  C   UNL     1       0.783   8.873  21.280  0.00  0.00    +0.000 A 
ATOM     15  C   UNL     1       0.179   9.639  22.288  0.00  0.00    +0.000 A 
ATOM     16  C   UNL     1      -0.546  10.776  21.893  0.00  0.00    +0.000 A 
ATOM     17  C   UNL     1      -0.680  11.114  20.549  0.00  0.00    +0.000 A 
ATOM     18  C   UNL     1       0.009  10.394  19.573  0.00  0.00    +0.000 A 
ATOM     19  C   UNL     1       0.790   9.286  19.957  0.00  0.00    +0.000 A 
ATOM     20  H   UNL     1       1.556   7.094  22.145  0.00  0.00    +0.000 HD
ENDBRANCH   6   7
BRANCH   1  23
ATOM     21  O   UNL     1       2.172   3.657  15.926  0.00  0.00    +0.000 OA
ATOM     22  C   UNL     1       2.555   3.511  17.092  0.00  0.00    +0.000 C 
ATOM     23  N   UNL     1       1.617   3.624  18.092  0.00  0.00    +0.000 N 
ATOM     24  H   UNL     1       0.661   3.559  17.751  0.00  0.00    +0.000 HD
BRANCH  22  25
ATOM     25  C   UNL     1       3.959   2.999  17.418  0.00  0.00    +0.000 C 
BRANCH  25  26
ATOM     26  C   UNL     1       5.107   3.652  16.674  0.00  0.00    +0.000 A 
ATOM     27  C   UNL     1       6.003   4.526  17.333  0.00  0.00    +0.000 A 
ATOM     28  C   UNL     1       7.015   5.196  16.632  0.00  0.00    +0.000 A 
ATOM     29  C   UNL     1       7.102   4.987  15.274  0.00  0.00    +0.000 A 
ATOM     30  C   UNL     1       6.233   4.150  14.619  0.00  0.00    +0.000 A 
ATOM     31  C   UNL     1       5.229   3.473  15.285  0.00  0.00    +0.000 A 
ATOM     32  O   UNL     1       6.475   4.096  13.281  0.00  0.00    +0.000 OA
ATOM     33  C   UNL     1       7.602   4.991  13.173  0.00  0.00    +0.000 C 
ATOM     34  O   UNL     1       8.004   5.562  14.434  0.00  0.00    +0.000 OA
ENDBRANCH  25  26
ENDBRANCH  22  25
ENDBRANCH   1  23
TORSDOF 4
ENDMDL
MODEL 9
REMARK VINA RESULT:      -9.2      3.999      7.357
REMARK  Name = 
REMARK  4 active torsions:
REMARK  status: ('A' for Active; 'I' for Inactive)
REMARK    1  A    between atoms: C_2  and  C_3
REMARK    2  A    between atoms: C_3  and  C_4
REMARK    3  A    between atoms: N_13  and  C_14
REMARK    4  A    between atoms: C_19  and  C_20
REMARK                            x       y       z     vdW  Elec       q    Type
REMARK                         _______ _______ _______ _____ _____    ______ ____
ROOT
ATOM      1  C   UNL     1      -0.031  11.435  20.510  0.00  0.00    +0.000 A 
ATOM      2  C   UNL     1       0.945  12.100  21.280  0.00  0.00    +0.000 A 
ATOM      3  C   UNL     1       1.650  13.181  20.758  0.00  0.00    +0.000 A 
ATOM      4  C   UNL     1       1.378  13.608  19.464  0.00  0.00    +0.000 A 
ATOM      5  C   UNL     1       0.421  12.946  18.697  0.00  0.00    +0.000 A 
ATOM      6  C   UNL     1      -0.304  11.822  19.169  0.00  0.00    +0.000 A 
ENDROOT
BRANCH   6   7
ATOM      7  C   UNL     1      -1.425  11.289  18.331  0.00  0.00    +0.000 A 
ATOM      8  C   UNL     1      -1.231  10.239  17.397  0.00  0.00    +0.000 A 
ATOM      9  C   UNL     1      -2.273   9.546  16.786  0.00  0.00    +0.000 A 
ATOM     10  C   UNL     1      -3.577   9.770  17.188  0.00  0.00    +0.000 A 
ATOM     11  C   UNL     1      -3.840  10.815  18.089  0.00  0.00    +0.000 A 
ATOM     12  C   UNL     1      -2.791  11.631  18.531  0.00  0.00    +0.000 A 
ATOM     13  N   UNL     1      -3.417  12.710  19.141  0.00  0.00    +0.000 N 
ATOM     14  C   UNL     1      -4.780  12.506  19.248  0.00  0.00    +0.000 A 
ATOM     15  C   UNL     1      -5.812  13.318  19.741  0.00  0.00    +0.000 A 
ATOM     16  C   UNL     1      -7.091  12.748  19.847  0.00  0.00    +0.000 A 
ATOM     17  C   UNL     1      -7.320  11.420  19.499  0.00  0.00    +0.000 A 
ATOM     18  C   UNL     1      -6.302  10.661  18.920  0.00  0.00    +0.000 A 
ATOM     19  C   UNL     1      -5.026  11.236  18.751  0.00  0.00    +0.000 A 
ATOM     20  H   UNL     1      -2.935  13.537  19.464  0.00  0.00    +0.000 HD
ENDBRANCH   6   7
BRANCH   1  23
ATOM     21  O   UNL     1      -0.934   8.190  21.724  0.00  0.00    +0.000 OA
ATOM     22  C   UNL     1      -0.155   9.054  21.307  0.00  0.00    +0.000 C 
ATOM     23  N   UNL     1      -0.654  10.319  21.097  0.00  0.00    +0.000 N 
ATOM     24  H   UNL     1      -1.550  10.474  21.552  0.00  0.00    +0.000 HD
BRANCH  22  25
ATOM     25  C   UNL     1       1.354   8.809  21.241  0.00  0.00    +0.000 C 
BRANCH  25  26
ATOM     26  C   UNL     1       1.830   7.789  20.226  0.00  0.00    +0.000 A 
ATOM     27  C   UNL     1       2.121   8.164  18.893  0.00  0.00    +0.000 A 
ATOM     28  C   UNL     1       2.482   7.212  17.931  0.00  0.00    +0.000 A 
ATOM     29  C   UNL     1       2.530   5.892  18.320  0.00  0.00    +0.000 A 
ATOM     30  C   UNL     1       2.240   5.511  19.607  0.00  0.00    +0.000 A 
ATOM     31  C   UNL     1       1.886   6.429  20.577  0.00  0.00    +0.000 A 
ATOM     32  O   UNL     1       2.326   4.164  19.781  0.00  0.00    +0.000 OA
ATOM     33  C   UNL     1       2.712   3.744  18.455  0.00  0.00    +0.000 C 
ATOM     34  O   UNL     1       2.841   4.835  17.522  0.00  0.00    +0.000 OA
ENDBRANCH  25  26
ENDBRANCH  22  25
ENDBRANCH   1  23
TORSDOF 4
ENDMDL
