MODEL 1
REMARK VINA RESULT:      -6.3      0.000      0.000
REMARK  Name = 
REMARK  7 active torsions:
REMARK  status: ('A' for Active; 'I' for Inactive)
REMARK    1  A    between atoms: C_1  and  C_2
REMARK    2  A    between atoms: C_2  and  C_3
REMARK    3  A    between atoms: C_2  and  N_4
REMARK    4  A    between atoms: N_4  and  C_5
REMARK    5  A    between atoms: C_5  and  C_6
REMARK    6  A    between atoms: C_16  and  C_17
REMARK    7  A    between atoms: C_24  and  C_26
REMARK                            x       y       z     vdW  Elec       q    Type
REMARK                         _______ _______ _______ _____ _____    ______ ____
ROOT
ATOM      1  C   UNL     1       8.667  15.668  20.427  0.00  0.00    +0.000 C 
ATOM      2  O   UNL     1       9.495  15.338  21.274  0.00  0.00    +0.000 OA
ATOM      3  N   UNL     1       7.377  16.092  20.724  0.00  0.00    +0.000 N 
ATOM      4  C   UNL     1       6.641  16.984  19.827  0.00  0.00    +0.000 C 
ATOM      5  C   UNL     1       5.625  16.201  19.017  0.00  0.00    +0.000 C 
ATOM      6  N   UNL     1       4.865  15.342  19.905  0.00  0.00    +0.000 N 
ATOM      7  C   UNL     1       3.704  14.711  19.563  0.00  0.00    +0.000 A 
ATOM      8  C   UNL     1       3.248  14.055  20.681  0.00  0.00    +0.000 A 
ATOM      9  C   UNL     1       4.189  14.278  21.717  0.00  0.00    +0.000 A 
ATOM     10  C   UNL     1       5.237  15.028  21.197  0.00  0.00    +0.000 A 
ATOM     11  C   UNL     1       6.561  15.514  21.829  0.00  0.00    +0.000 C 
ENDROOT
BRANCH  11  12
ATOM     12  C   UNL     1       7.227  14.448  22.700  0.00  0.00    +0.000 A 
ATOM     13  C   UNL     1       7.305  13.105  22.268  0.00  0.00    +0.000 A 
ATOM     14  C   UNL     1       7.895  12.112  23.058  0.00  0.00    +0.000 A 
ATOM     15  C   UNL     1       8.453  12.444  24.290  0.00  0.00    +0.000 A 
ATOM     16  C   UNL     1       8.413  13.758  24.729  0.00  0.00    +0.000 A 
ATOM     17  C   UNL     1       7.805  14.756  23.949  0.00  0.00    +0.000 A 
ATOM     18 CL   UNL     1       7.806  16.360  24.596  0.00  0.00    +0.000 Cl
ENDBRANCH  11  12
BRANCH   1  19
ATOM     19  C   UNL     1       9.002  15.480  18.928  0.00  0.00    +0.000 C 
BRANCH  19  20
ATOM     20  N   UNL     1      10.309  15.354  18.272  0.00  0.00    +0.000 N 
ATOM     21  C   UNL     1      11.030  14.122  18.288  0.00  0.00    +0.000 C 
ATOM     22  O   UNL     1      12.195  14.048  17.882  0.00  0.00    +0.000 OA
BRANCH  21  23
ATOM     23  C   UNL     1      10.409  12.823  18.726  0.00  0.00    +0.000 A 
ATOM     24  C   UNL     1      10.680  12.385  20.035  0.00  0.00    +0.000 A 
ATOM     25  C   UNL     1      10.162  11.175  20.512  0.00  0.00    +0.000 A 
ATOM     26  C   UNL     1       9.378  10.380  19.681  0.00  0.00    +0.000 A 
ATOM     27  C   UNL     1       9.069  10.833  18.409  0.00  0.00    +0.000 A 
ATOM     28  F   UNL     1       8.312  10.078  17.602  0.00  0.00    +0.000 F 
ATOM     29  C   UNL     1       9.534  12.060  17.943  0.00  0.00    +0.000 A 
ENDBRANCH  21  23
BRANCH  20  31
ATOM     30  C   UNL     1      10.409  17.720  17.334  0.00  0.00    +0.000 C 
ATOM     31  C   UNL     1      11.135  16.562  18.015  0.00  0.00    +0.000 C 
ATOM     32  C   UNL     1      11.852  17.048  19.277  0.00  0.00    +0.000 C 
ENDBRANCH  20  31
ENDBRANCH  19  20
ENDBRANCH   1  19
TORSDOF 5
ENDMDL
MODEL 2
REMARK VINA RESULT:      -6.2     10.388     13.590
REMARK  Name = 
REMARK  7 active torsions:
REMARK  status: ('A' for Active; 'I' for Inactive)
REMARK    1  A    between atoms: C_1  and  C_2
REMARK    2  A    between atoms: C_2  and  C_3
REMARK    3  A    between atoms: C_2  and  N_4
REMARK    4  A    between atoms: N_4  and  C_5
REMARK    5  A    between atoms: C_5  and  C_6
REMARK    6  A    between atoms: C_16  and  C_17
REMARK    7  A    between atoms: C_24  and  C_26
REMARK                            x       y       z     vdW  Elec       q    Type
REMARK                         _______ _______ _______ _____ _____    ______ ____
ROOT
ATOM      1  C   UNL     1      -3.160  12.834  20.979  0.00  0.00    +0.000 C 
ATOM      2  O   UNL     1      -3.563  13.134  19.857  0.00  0.00    +0.000 OA
ATOM      3  N   UNL     1      -1.843  12.490  21.266  0.00  0.00    +0.000 N 
ATOM      4  C   UNL     1      -1.274  12.695  22.599  0.00  0.00    +0.000 C 
ATOM      5  C   UNL     1      -1.222  11.384  23.359  0.00  0.00    +0.000 C 
ATOM      6  N   UNL     1      -0.635  10.363  22.512  0.00  0.00    +0.000 N 
ATOM      7  C   UNL     1      -0.190   9.151  22.958  0.00  0.00    +0.000 A 
ATOM      8  C   UNL     1       0.360   8.495  21.884  0.00  0.00    +0.000 A 
ATOM      9  C   UNL     1       0.209   9.334  20.751  0.00  0.00    +0.000 A 
ATOM     10  C   UNL     1      -0.482  10.473  21.145  0.00  0.00    +0.000 A 
ATOM     11  C   UNL     1      -0.987  11.693  20.342  0.00  0.00    +0.000 C 
ENDROOT
BRANCH  11  12
ATOM     12  C   UNL     1      -1.595  11.304  18.993  0.00  0.00    +0.000 A 
ATOM     13  C   UNL     1      -2.393  10.145  18.867  0.00  0.00    +0.000 A 
ATOM     14  C   UNL     1      -2.943   9.763  17.638  0.00  0.00    +0.000 A 
ATOM     15  C   UNL     1      -2.736  10.550  16.508  0.00  0.00    +0.000 A 
ATOM     16  C   UNL     1      -1.976  11.706  16.608  0.00  0.00    +0.000 A 
ATOM     17  C   UNL     1      -1.405  12.085  17.835  0.00  0.00    +0.000 A 
ATOM     18 CL   UNL     1      -0.473  13.541  17.843  0.00  0.00    +0.000 Cl
ENDBRANCH  11  12
BRANCH   1  19
ATOM     19  C   UNL     1      -4.178  12.685  22.135  0.00  0.00    +0.000 C 
BRANCH  19  20
ATOM     20  N   UNL     1      -5.397  13.454  22.409  0.00  0.00    +0.000 N 
ATOM     21  C   UNL     1      -6.606  13.207  21.692  0.00  0.00    +0.000 C 
ATOM     22  O   UNL     1      -7.587  13.951  21.799  0.00  0.00    +0.000 OA
BRANCH  21  23
ATOM     23  C   UNL     1      -6.799  11.997  20.817  0.00  0.00    +0.000 A 
ATOM     24  C   UNL     1      -7.500  10.908  21.364  0.00  0.00    +0.000 A 
ATOM     25  C   UNL     1      -7.700   9.735  20.625  0.00  0.00    +0.000 A 
ATOM     26  C   UNL     1      -7.188   9.632  19.334  0.00  0.00    +0.000 A 
ATOM     27  C   UNL     1      -6.541  10.723  18.776  0.00  0.00    +0.000 A 
ATOM     28  F   UNL     1      -6.049  10.635  17.533  0.00  0.00    +0.000 F 
ATOM     29  C   UNL     1      -6.384  11.913  19.482  0.00  0.00    +0.000 A 
ENDBRANCH  21  23
BRANCH  20  31
ATOM     30  C   UNL     1      -4.382  14.882  24.258  0.00  0.00    +0.000 C 
ATOM     31  C   UNL     1      -5.308  14.793  23.047  0.00  0.00    +0.000 C 
ATOM     32  C   UNL     1      -4.973  15.892  22.035  0.00  0.00    +0.000 C 
ENDBRANCH  20  31
ENDBRANCH  19  20
ENDBRANCH   1  19
TORSDOF 5
ENDMDL
MODEL 3
REMARK VINA RESULT:      -6.1      7.890     12.035
REMARK  Name = 
REMARK  7 active torsions:
REMARK  status: ('A' for Active; 'I' for Inactive)
REMARK    1  A    between atoms: C_1  and  C_2
REMARK    2  A    between atoms: C_2  and  C_3
REMARK    3  A    between atoms: C_2  and  N_4
REMARK    4  A    between atoms: N_4  and  C_5
REMARK    5  A    between atoms: C_5  and  C_6
REMARK    6  A    between atoms: C_16  and  C_17
REMARK    7  A    between atoms: C_24  and  C_26
REMARK                            x       y       z     vdW  Elec       q    Type
REMARK                         _______ _______ _______ _____ _____    ______ ____
ROOT
ATOM      1  C   UNL     1      -1.620  12.037  19.516  0.00  0.00    +0.000 C 
ATOM      2  O   UNL     1      -1.729  10.813  19.486  0.00  0.00    +0.000 OA
ATOM      3  N   UNL     1      -0.466  12.725  19.153  0.00  0.00    +0.000 N 
ATOM      4  C   UNL     1      -0.522  14.101  18.657  0.00  0.00    +0.000 C 
ATOM      5  C   UNL     1      -0.120  15.074  19.749  0.00  0.00    +0.000 C 
ATOM      6  N   UNL     1       1.110  14.617  20.368  0.00  0.00    +0.000 N 
ATOM      7  C   UNL     1       1.892  15.379  21.186  0.00  0.00    +0.000 A 
ATOM      8  C   UNL     1       2.997  14.631  21.513  0.00  0.00    +0.000 A 
ATOM      9  C   UNL     1       2.852  13.366  20.890  0.00  0.00    +0.000 A 
ATOM     10  C   UNL     1       1.628  13.344  20.233  0.00  0.00    +0.000 A 
ATOM     11  C   UNL     1       0.907  12.226  19.447  0.00  0.00    +0.000 C 
ENDROOT
BRANCH  11  12
ATOM     12  C   UNL     1       1.021  10.859  20.122  0.00  0.00    +0.000 A 
ATOM     13  C   UNL     1       0.778  10.713  21.506  0.00  0.00    +0.000 A 
ATOM     14  C   UNL     1       0.894   9.475  22.147  0.00  0.00    +0.000 A 
ATOM     15  C   UNL     1       1.226   8.340  21.410  0.00  0.00    +0.000 A 
ATOM     16  C   UNL     1       1.446   8.449  20.046  0.00  0.00    +0.000 A 
ATOM     17  C   UNL     1       1.350   9.693  19.401  0.00  0.00    +0.000 A 
ATOM     18 CL   UNL     1       1.652   9.713  17.698  0.00  0.00    +0.000 Cl
ENDBRANCH  11  12
BRANCH   1  19
ATOM     19  C   UNL     1      -2.766  12.885  20.118  0.00  0.00    +0.000 C 
BRANCH  19  20
ATOM     20  N   UNL     1      -3.571  12.645  21.320  0.00  0.00    +0.000 N 
ATOM     21  C   UNL     1      -4.998  12.672  21.275  0.00  0.00    +0.000 C 
ATOM     22  O   UNL     1      -5.681  12.632  22.304  0.00  0.00    +0.000 OA
BRANCH  21  23
ATOM     23  C   UNL     1      -5.770  12.678  19.982  0.00  0.00    +0.000 A 
ATOM     24  C   UNL     1      -6.161  11.435  19.455  0.00  0.00    +0.000 A 
ATOM     25  C   UNL     1      -6.859  11.353  18.244  0.00  0.00    +0.000 A 
ATOM     26  C   UNL     1      -7.162  12.513  17.538  0.00  0.00    +0.000 A 
ATOM     27  C   UNL     1      -6.821  13.742  18.080  0.00  0.00    +0.000 A 
ATOM     28  F   UNL     1      -7.111  14.865  17.409  0.00  0.00    +0.000 F 
ATOM     29  C   UNL     1      -6.175  13.838  19.309  0.00  0.00    +0.000 A 
ENDBRANCH  21  23
BRANCH  20  31
ATOM     30  C   UNL     1      -2.253  11.651  23.260  0.00  0.00    +0.000 C 
ATOM     31  C   UNL     1      -2.982  12.855  22.668  0.00  0.00    +0.000 C 
ATOM     32  C   UNL     1      -2.090  14.099  22.718  0.00  0.00    +0.000 C 
ENDBRANCH  20  31
ENDBRANCH  19  20
ENDBRANCH   1  19
TORSDOF 5
ENDMDL
MODEL 4
REMARK VINA RESULT:      -5.9      9.417     12.449
REMARK  Name = 
REMARK  7 active torsions:
REMARK  status: ('A' for Active; 'I' for Inactive)
REMARK    1  A    between atoms: C_1  and  C_2
REMARK    2  A    between atoms: C_2  and  C_3
REMARK    3  A    between atoms: C_2  and  N_4
REMARK    4  A    between atoms: N_4  and  C_5
REMARK    5  A    between atoms: C_5  and  C_6
REMARK    6  A    between atoms: C_16  and  C_17
REMARK    7  A    between atoms: C_24  and  C_26
REMARK                            x       y       z     vdW  Elec       q    Type
REMARK                         _______ _______ _______ _____ _____    ______ ____
ROOT
ATOM      1  C   UNL     1      -2.948  13.133  20.037  0.00  0.00    +0.000 C 
ATOM      2  O   UNL     1      -2.236  12.209  19.648  0.00  0.00    +0.000 OA
ATOM      3  N   UNL     1      -2.504  14.166  20.856  0.00  0.00    +0.000 N 
ATOM      4  C   UNL     1      -3.141  15.483  20.837  0.00  0.00    +0.000 C 
ATOM      5  C   UNL     1      -4.060  15.644  22.033  0.00  0.00    +0.000 C 
ATOM      6  N   UNL     1      -3.356  15.240  23.235  0.00  0.00    +0.000 N 
ATOM      7  C   UNL     1      -3.779  15.509  24.505  0.00  0.00    +0.000 A 
ATOM      8  C   UNL     1      -2.820  15.035  25.366  0.00  0.00    +0.000 A 
ATOM      9  C   UNL     1      -1.803  14.435  24.581  0.00  0.00    +0.000 A 
ATOM     10  C   UNL     1      -2.187  14.506  23.248  0.00  0.00    +0.000 A 
ATOM     11  C   UNL     1      -1.523  13.968  21.960  0.00  0.00    +0.000 C 
ENDROOT
BRANCH  11  12
ATOM     12  C   UNL     1      -0.947  12.562  22.135  0.00  0.00    +0.000 A 
ATOM     13  C   UNL     1      -1.560  11.631  23.003  0.00  0.00    +0.000 A 
ATOM     14  C   UNL     1      -1.039  10.346  23.190  0.00  0.00    +0.000 A 
ATOM     15  C   UNL     1       0.095   9.947  22.486  0.00  0.00    +0.000 A 
ATOM     16  C   UNL     1       0.704  10.831  21.609  0.00  0.00    +0.000 A 
ATOM     17  C   UNL     1       0.196  12.130  21.432  0.00  0.00    +0.000 A 
ATOM     18 CL   UNL     1       1.038  13.150  20.318  0.00  0.00    +0.000 Cl
ENDBRANCH  11  12
BRANCH   1  19
ATOM     19  C   UNL     1      -4.464  13.101  19.730  0.00  0.00    +0.000 C 
BRANCH  19  20
ATOM     20  N   UNL     1      -5.423  12.001  19.878  0.00  0.00    +0.000 N 
ATOM     21  C   UNL     1      -5.535  10.977  18.889  0.00  0.00    +0.000 C 
ATOM     22  O   UNL     1      -6.444  10.140  18.922  0.00  0.00    +0.000 OA
BRANCH  21  23
ATOM     23  C   UNL     1      -4.526  10.799  17.786  0.00  0.00    +0.000 A 
ATOM     24  C   UNL     1      -4.780  11.449  16.565  0.00  0.00    +0.000 A 
ATOM     25  C   UNL     1      -3.903  11.313  15.481  0.00  0.00    +0.000 A 
ATOM     26  C   UNL     1      -2.769  10.516  15.601  0.00  0.00    +0.000 A 
ATOM     27  C   UNL     1      -2.491   9.916  16.818  0.00  0.00    +0.000 A 
ATOM     28  F   UNL     1      -1.401   9.149  16.945  0.00  0.00    +0.000 F 
ATOM     29  C   UNL     1      -3.327  10.087  17.919  0.00  0.00    +0.000 A 
ENDBRANCH  21  23
BRANCH  20  31
ATOM     30  C   UNL     1      -6.316  12.590  22.189  0.00  0.00    +0.000 C 
ATOM     31  C   UNL     1      -6.612  12.158  20.755  0.00  0.00    +0.000 C 
ATOM     32  C   UNL     1      -7.672  13.069  20.129  0.00  0.00    +0.000 C 
ENDBRANCH  20  31
ENDBRANCH  19  20
ENDBRANCH   1  19
TORSDOF 5
ENDMDL
MODEL 5
REMARK VINA RESULT:      -5.8      9.403     12.835
REMARK  Name = 
REMARK  7 active torsions:
REMARK  status: ('A' for Active; 'I' for Inactive)
REMARK    1  A    between atoms: C_1  and  C_2
REMARK    2  A    between atoms: C_2  and  C_3
REMARK    3  A    between atoms: C_2  and  N_4
REMARK    4  A    between atoms: N_4  and  C_5
REMARK    5  A    between atoms: C_5  and  C_6
REMARK    6  A    between atoms: C_16  and  C_17
REMARK    7  A    between atoms: C_24  and  C_26
REMARK                            x       y       z     vdW  Elec       q    Type
REMARK                         _______ _______ _______ _____ _____    ______ ____
ROOT
ATOM      1  C   UNL     1      -4.866  12.898  21.074  0.00  0.00    +0.000 C 
ATOM      2  O   UNL     1      -6.077  13.106  21.032  0.00  0.00    +0.000 OA
ATOM      3  N   UNL     1      -4.113  12.920  22.243  0.00  0.00    +0.000 N 
ATOM      4  C   UNL     1      -2.877  12.146  22.370  0.00  0.00    +0.000 C 
ATOM      5  C   UNL     1      -1.669  13.048  22.205  0.00  0.00    +0.000 C 
ATOM      6  N   UNL     1      -1.831  14.223  23.040  0.00  0.00    +0.000 N 
ATOM      7  C   UNL     1      -0.830  15.099  23.344  0.00  0.00    +0.000 A 
ATOM      8  C   UNL     1      -1.348  16.033  24.208  0.00  0.00    +0.000 A 
ATOM      9  C   UNL     1      -2.716  15.718  24.402  0.00  0.00    +0.000 A 
ATOM     10  C   UNL     1      -3.026  14.622  23.606  0.00  0.00    +0.000 A 
ATOM     11  C   UNL     1      -4.359  13.883  23.354  0.00  0.00    +0.000 C 
ENDROOT
BRANCH  11  12
ATOM     12  C   UNL     1      -5.545  14.836  23.199  0.00  0.00    +0.000 A 
ATOM     13  C   UNL     1      -5.382  16.099  22.587  0.00  0.00    +0.000 A 
ATOM     14  C   UNL     1      -6.450  16.993  22.450  0.00  0.00    +0.000 A 
ATOM     15  C   UNL     1      -7.720  16.632  22.895  0.00  0.00    +0.000 A 
ATOM     16  C   UNL     1      -7.914  15.389  23.477  0.00  0.00    +0.000 A 
ATOM     17  C   UNL     1      -6.841  14.495  23.634  0.00  0.00    +0.000 A 
ATOM     18 CL   UNL     1      -7.197  12.976  24.380  0.00  0.00    +0.000 Cl
ENDBRANCH  11  12
BRANCH   1  19
ATOM     19  C   UNL     1      -4.080  12.733  19.752  0.00  0.00    +0.000 C 
BRANCH  19  20
ATOM     20  N   UNL     1      -4.143  11.658  18.756  0.00  0.00    +0.000 N 
ATOM     21  C   UNL     1      -2.960  11.145  18.143  0.00  0.00    +0.000 C 
ATOM     22  O   UNL     1      -3.012  10.357  17.192  0.00  0.00    +0.000 OA
BRANCH  21  23
ATOM     23  C   UNL     1      -1.579  11.466  18.648  0.00  0.00    +0.000 A 
ATOM     24  C   UNL     1      -0.946  10.506  19.458  0.00  0.00    +0.000 A 
ATOM     25  C   UNL     1       0.328  10.738  19.990  0.00  0.00    +0.000 A 
ATOM     26  C   UNL     1       0.980  11.940  19.729  0.00  0.00    +0.000 A 
ATOM     27  C   UNL     1       0.380  12.865  18.890  0.00  0.00    +0.000 A 
ATOM     28  F   UNL     1       1.001  14.023  18.630  0.00  0.00    +0.000 F 
ATOM     29  C   UNL     1      -0.863  12.622  18.313  0.00  0.00    +0.000 A 
ENDBRANCH  21  23
BRANCH  20  31
ATOM     30  C   UNL     1      -6.431  10.540  18.714  0.00  0.00    +0.000 C 
ATOM     31  C   UNL     1      -5.399  11.410  18.001  0.00  0.00    +0.000 C 
ATOM     32  C   UNL     1      -6.042  12.712  17.513  0.00  0.00    +0.000 C 
ENDBRANCH  20  31
ENDBRANCH  19  20
ENDBRANCH   1  19
TORSDOF 5
ENDMDL
MODEL 6
REMARK VINA RESULT:      -5.8      2.210      6.002
REMARK  Name = 
REMARK  7 active torsions:
REMARK  status: ('A' for Active; 'I' for Inactive)
REMARK    1  A    between atoms: C_1  and  C_2
REMARK    2  A    between atoms: C_2  and  C_3
REMARK    3  A    between atoms: C_2  and  N_4
REMARK    4  A    between atoms: N_4  and  C_5
REMARK    5  A    between atoms: C_5  and  C_6
REMARK    6  A    between atoms: C_16  and  C_17
REMARK    7  A    between atoms: C_24  and  C_26
REMARK                            x       y       z     vdW  Elec       q    Type
REMARK                         _______ _______ _______ _____ _____    ______ ____
ROOT
ATOM      1  C   UNL     1       7.743  14.653  19.847  0.00  0.00    +0.000 C 
ATOM      2  O   UNL     1       7.909  13.442  19.982  0.00  0.00    +0.000 OA
ATOM      3  N   UNL     1       8.114  15.368  18.713  0.00  0.00    +0.000 N 
ATOM      4  C   UNL     1       7.431  16.606  18.334  0.00  0.00    +0.000 C 
ATOM      5  C   UNL     1       8.268  17.811  18.717  0.00  0.00    +0.000 C 
ATOM      6  N   UNL     1       9.630  17.612  18.261  0.00  0.00    +0.000 N 
ATOM      7  C   UNL     1      10.574  18.595  18.193  0.00  0.00    +0.000 A 
ATOM      8  C   UNL     1      11.707  18.041  17.649  0.00  0.00    +0.000 A 
ATOM      9  C   UNL     1      11.437  16.670  17.411  0.00  0.00    +0.000 A 
ATOM     10  C   UNL     1      10.154  16.396  17.867  0.00  0.00    +0.000 A 
ATOM     11  C   UNL     1       9.350  15.078  17.933  0.00  0.00    +0.000 C 
ENDROOT
BRANCH  11  12
ATOM     12  C   UNL     1      10.197  13.890  18.390  0.00  0.00    +0.000 A 
ATOM     13  C   UNL     1      10.253  12.704  17.624  0.00  0.00    +0.000 A 
ATOM     14  C   UNL     1      11.009  11.599  18.033  0.00  0.00    +0.000 A 
ATOM     15  C   UNL     1      11.756  11.665  19.207  0.00  0.00    +0.000 A 
ATOM     16  C   UNL     1      11.739  12.825  19.967  0.00  0.00    +0.000 A 
ATOM     17  C   UNL     1      10.967  13.930  19.570  0.00  0.00    +0.000 A 
ATOM     18 CL   UNL     1      11.016  15.322  20.596  0.00  0.00    +0.000 Cl
ENDBRANCH  11  12
BRANCH   1  19
ATOM     19  C   UNL     1       7.220  15.483  21.044  0.00  0.00    +0.000 C 
BRANCH  19  20
ATOM     20  N   UNL     1       5.884  15.507  21.649  0.00  0.00    +0.000 N 
ATOM     21  C   UNL     1       5.543  14.638  22.730  0.00  0.00    +0.000 C 
ATOM     22  O   UNL     1       4.381  14.536  23.138  0.00  0.00    +0.000 OA
BRANCH  21  23
ATOM     23  C   UNL     1       6.572  13.845  23.489  0.00  0.00    +0.000 A 
ATOM     24  C   UNL     1       7.121  14.433  24.643  0.00  0.00    +0.000 A 
ATOM     25  C   UNL     1       8.103  13.772  25.391  0.00  0.00    +0.000 A 
ATOM     26  C   UNL     1       8.558  12.520  24.987  0.00  0.00    +0.000 A 
ATOM     27  C   UNL     1       7.983  11.918  23.880  0.00  0.00    +0.000 A 
ATOM     28  F   UNL     1       8.411  10.712  23.486  0.00  0.00    +0.000 F 
ATOM     29  C   UNL     1       6.968  12.543  23.160  0.00  0.00    +0.000 A 
ENDBRANCH  21  23
BRANCH  20  31
ATOM     30  C   UNL     1       4.854  17.495  20.434  0.00  0.00    +0.000 C 
ATOM     31  C   UNL     1       4.726  16.042  20.885  0.00  0.00    +0.000 C 
ATOM     32  C   UNL     1       4.356  15.144  19.701  0.00  0.00    +0.000 C 
ENDBRANCH  20  31
ENDBRANCH  19  20
ENDBRANCH   1  19
TORSDOF 5
ENDMDL
MODEL 7
REMARK VINA RESULT:      -5.8      9.255     12.649
REMARK  Name = 
REMARK  7 active torsions:
REMARK  status: ('A' for Active; 'I' for Inactive)
REMARK    1  A    between atoms: C_1  and  C_2
REMARK    2  A    between atoms: C_2  and  C_3
REMARK    3  A    between atoms: C_2  and  N_4
REMARK    4  A    between atoms: N_4  and  C_5
REMARK    5  A    between atoms: C_5  and  C_6
REMARK    6  A    between atoms: C_16  and  C_17
REMARK    7  A    between atoms: C_24  and  C_26
REMARK                            x       y       z     vdW  Elec       q    Type
REMARK                         _______ _______ _______ _____ _____    ______ ____
ROOT
ATOM      1  C   UNL     1      -3.802  12.712  20.858  0.00  0.00    +0.000 C 
ATOM      2  O   UNL     1      -4.156  12.250  19.775  0.00  0.00    +0.000 OA
ATOM      3  N   UNL     1      -4.664  12.950  21.923  0.00  0.00    +0.000 N 
ATOM      4  C   UNL     1      -4.188  12.942  23.307  0.00  0.00    +0.000 C 
ATOM      5  C   UNL     1      -4.021  14.360  23.817  0.00  0.00    +0.000 C 
ATOM      6  N   UNL     1      -5.215  15.123  23.507  0.00  0.00    +0.000 N 
ATOM      7  C   UNL     1      -5.519  16.338  24.051  0.00  0.00    +0.000 A 
ATOM      8  C   UNL     1      -6.752  16.706  23.572  0.00  0.00    +0.000 A 
ATOM      9  C   UNL     1      -7.185  15.687  22.687  0.00  0.00    +0.000 A 
ATOM     10  C   UNL     1      -6.179  14.734  22.599  0.00  0.00    +0.000 A 
ATOM     11  C   UNL     1      -6.058  13.449  21.749  0.00  0.00    +0.000 C 
ENDROOT
BRANCH  11  12
ATOM     12  C   UNL     1      -6.555  13.637  20.315  0.00  0.00    +0.000 A 
ATOM     13  C   UNL     1      -6.290  14.832  19.609  0.00  0.00    +0.000 A 
ATOM     14  C   UNL     1      -6.751  15.032  18.303  0.00  0.00    +0.000 A 
ATOM     15  C   UNL     1      -7.463  14.025  17.656  0.00  0.00    +0.000 A 
ATOM     16  C   UNL     1      -7.717  12.832  18.316  0.00  0.00    +0.000 A 
ATOM     17  C   UNL     1      -7.273  12.633  19.634  0.00  0.00    +0.000 A 
ATOM     18 CL   UNL     1      -7.650  11.111  20.362  0.00  0.00    +0.000 Cl
ENDBRANCH  11  12
BRANCH   1  19
ATOM     19  C   UNL     1      -2.343  13.198  21.031  0.00  0.00    +0.000 C 
BRANCH  19  20
ATOM     20  N   UNL     1      -1.591  14.189  20.254  0.00  0.00    +0.000 N 
ATOM     21  C   UNL     1      -0.554  13.795  19.355  0.00  0.00    +0.000 C 
ATOM     22  O   UNL     1       0.190  14.623  18.819  0.00  0.00    +0.000 OA
BRANCH  21  23
ATOM     23  C   UNL     1      -0.339  12.363  18.941  0.00  0.00    +0.000 A 
ATOM     24  C   UNL     1       0.807  11.713  19.432  0.00  0.00    +0.000 A 
ATOM     25  C   UNL     1       1.094  10.390  19.074  0.00  0.00    +0.000 A 
ATOM     26  C   UNL     1       0.245   9.705  18.209  0.00  0.00    +0.000 A 
ATOM     27  C   UNL     1      -0.911  10.327  17.765  0.00  0.00    +0.000 A 
ATOM     28  F   UNL     1      -1.736   9.676  16.936  0.00  0.00    +0.000 F 
ATOM     29  C   UNL     1      -1.233  11.624  18.157  0.00  0.00    +0.000 A 
ENDBRANCH  21  23
BRANCH  20  31
ATOM     30  C   UNL     1      -2.853  16.347  20.740  0.00  0.00    +0.000 C 
ATOM     31  C   UNL     1      -1.521  15.602  20.711  0.00  0.00    +0.000 C 
ATOM     32  C   UNL     1      -0.803  15.735  22.057  0.00  0.00    +0.000 C 
ENDBRANCH  20  31
ENDBRANCH  19  20
ENDBRANCH   1  19
TORSDOF 5
ENDMDL
MODEL 8
REMARK VINA RESULT:      -5.7     10.444     13.269
REMARK  Name = 
REMARK  7 active torsions:
REMARK  status: ('A' for Active; 'I' for Inactive)
REMARK    1  A    between atoms: C_1  and  C_2
REMARK    2  A    between atoms: C_2  and  C_3
REMARK    3  A    between atoms: C_2  and  N_4
REMARK    4  A    between atoms: N_4  and  C_5
REMARK    5  A    between atoms: C_5  and  C_6
REMARK    6  A    between atoms: C_16  and  C_17
REMARK    7  A    between atoms: C_24  and  C_26
REMARK                            x       y       z     vdW  Elec       q    Type
REMARK                         _______ _______ _______ _____ _____    ______ ____
ROOT
ATOM      1  C   UNL     1      -3.341  12.819  20.944  0.00  0.00    +0.000 C 
ATOM      2  O   UNL     1      -3.772  13.061  19.818  0.00  0.00    +0.000 OA
ATOM      3  N   UNL     1      -2.009  12.531  21.222  0.00  0.00    +0.000 N 
ATOM      4  C   UNL     1      -1.427  12.807  22.537  0.00  0.00    +0.000 C 
ATOM      5  C   UNL     1      -1.318  11.529  23.346  0.00  0.00    +0.000 C 
ATOM      6  N   UNL     1      -0.710  10.496  22.530  0.00  0.00    +0.000 N 
ATOM      7  C   UNL     1      -0.217   9.319  23.014  0.00  0.00    +0.000 A 
ATOM      8  C   UNL     1       0.339   8.640  21.957  0.00  0.00    +0.000 A 
ATOM      9  C   UNL     1       0.143   9.429  20.795  0.00  0.00    +0.000 A 
ATOM     10  C   UNL     1      -0.581  10.558  21.156  0.00  0.00    +0.000 A 
ATOM     11  C   UNL     1      -1.140  11.728  20.316  0.00  0.00    +0.000 C 
ENDROOT
BRANCH  11  12
ATOM     12  C   UNL     1      -1.754  11.267  18.993  0.00  0.00    +0.000 A 
ATOM     13  C   UNL     1      -2.589  10.128  18.942  0.00  0.00    +0.000 A 
ATOM     14  C   UNL     1      -3.147   9.680  17.739  0.00  0.00    +0.000 A 
ATOM     15  C   UNL     1      -2.909  10.380  16.559  0.00  0.00    +0.000 A 
ATOM     16  C   UNL     1      -2.113  11.515  16.584  0.00  0.00    +0.000 A 
ATOM     17  C   UNL     1      -1.535  11.959  17.785  0.00  0.00    +0.000 A 
ATOM     18 CL   UNL     1      -0.555  13.382  17.699  0.00  0.00    +0.000 Cl
ENDBRANCH  11  12
BRANCH   1  19
ATOM     19  C   UNL     1      -4.336  12.681  22.121  0.00  0.00    +0.000 C 
BRANCH  19  20
ATOM     20  N   UNL     1      -5.474  13.532  22.486  0.00  0.00    +0.000 N 
ATOM     21  C   UNL     1      -5.313  14.652  23.356  0.00  0.00    +0.000 C 
ATOM     22  O   UNL     1      -6.285  15.276  23.796  0.00  0.00    +0.000 OA
BRANCH  21  23
ATOM     23  C   UNL     1      -3.963  15.195  23.741  0.00  0.00    +0.000 A 
ATOM     24  C   UNL     1      -3.314  16.033  22.816  0.00  0.00    +0.000 A 
ATOM     25  C   UNL     1      -2.045  16.558  23.087  0.00  0.00    +0.000 A 
ATOM     26  C   UNL     1      -1.402  16.240  24.280  0.00  0.00    +0.000 A 
ATOM     27  C   UNL     1      -2.060  15.456  25.213  0.00  0.00    +0.000 A 
ATOM     28  F   UNL     1      -1.451  15.147  26.365  0.00  0.00    +0.000 F 
ATOM     29  C   UNL     1      -3.344  14.973  24.977  0.00  0.00    +0.000 A 
ENDBRANCH  21  23
BRANCH  20  31
ATOM     30  C   UNL     1      -7.176  12.224  21.115  0.00  0.00    +0.000 C 
ATOM     31  C   UNL     1      -6.861  13.008  22.387  0.00  0.00    +0.000 C 
ATOM     32  C   UNL     1      -7.260  12.201  23.626  0.00  0.00    +0.000 C 
ENDBRANCH  20  31
ENDBRANCH  19  20
ENDBRANCH   1  19
TORSDOF 5
ENDMDL
MODEL 9
REMARK VINA RESULT:      -5.7      1.168      1.454
REMARK  Name = 
REMARK  7 active torsions:
REMARK  status: ('A' for Active; 'I' for Inactive)
REMARK    1  A    between atoms: C_1  and  C_2
REMARK    2  A    between atoms: C_2  and  C_3
REMARK    3  A    between atoms: C_2  and  N_4
REMARK    4  A    between atoms: N_4  and  C_5
REMARK    5  A    between atoms: C_5  and  C_6
REMARK    6  A    between atoms: C_16  and  C_17
REMARK    7  A    between atoms: C_24  and  C_26
REMARK                            x       y       z     vdW  Elec       q    Type
REMARK                         _______ _______ _______ _____ _____    ______ ____
ROOT
ATOM      1  C   UNL     1       8.907  15.451  21.384  0.00  0.00    +0.000 C 
ATOM      2  O   UNL     1       9.638  14.832  22.155  0.00  0.00    +0.000 OA
ATOM      3  N   UNL     1       7.726  16.078  21.766  0.00  0.00    +0.000 N 
ATOM      4  C   UNL     1       7.201  17.230  21.030  0.00  0.00    +0.000 C 
ATOM      5  C   UNL     1       6.059  16.805  20.128  0.00  0.00    +0.000 C 
ATOM      6  N   UNL     1       5.127  15.992  20.886  0.00  0.00    +0.000 N 
ATOM      7  C   UNL     1       3.866  15.673  20.471  0.00  0.00    +0.000 A 
ATOM      8  C   UNL     1       3.270  14.958  21.482  0.00  0.00    +0.000 A 
ATOM      9  C   UNL     1       4.221  14.822  22.524  0.00  0.00    +0.000 A 
ATOM     10  C   UNL     1       5.407  15.413  22.107  0.00  0.00    +0.000 A 
ATOM     11  C   UNL     1       6.794  15.514  22.783  0.00  0.00    +0.000 C 
ENDROOT
BRANCH  11  12
ATOM     12  C   UNL     1       7.215  14.214  23.467  0.00  0.00    +0.000 A 
ATOM     13  C   UNL     1       6.987  12.964  22.849  0.00  0.00    +0.000 A 
ATOM     14  C   UNL     1       7.350  11.761  23.466  0.00  0.00    +0.000 A 
ATOM     15  C   UNL     1       7.982  11.780  24.707  0.00  0.00    +0.000 A 
ATOM     16  C   UNL     1       8.240  12.993  25.327  0.00  0.00    +0.000 A 
ATOM     17  C   UNL     1       7.861  14.203  24.720  0.00  0.00    +0.000 A 
ATOM     18 CL   UNL     1       8.228  15.655  25.584  0.00  0.00    +0.000 Cl
ENDBRANCH  11  12
BRANCH   1  19
ATOM     19  C   UNL     1       9.218  15.432  19.868  0.00  0.00    +0.000 C 
BRANCH  19  20
ATOM     20  N   UNL     1      10.514  15.392  19.182  0.00  0.00    +0.000 N 
ATOM     21  C   UNL     1      11.173  14.154  18.915  0.00  0.00    +0.000 C 
ATOM     22  O   UNL     1      12.331  14.115  18.486  0.00  0.00    +0.000 OA
BRANCH  21  23
ATOM     23  C   UNL     1      10.490  12.821  19.066  0.00  0.00    +0.000 A 
ATOM     24  C   UNL     1      10.080  12.166  17.890  0.00  0.00    +0.000 A 
ATOM     25  C   UNL     1       9.415  10.936  17.946  0.00  0.00    +0.000 A 
ATOM     26  C   UNL     1       9.139  10.350  19.178  0.00  0.00    +0.000 A 
ATOM     27  C   UNL     1       9.586  10.969  20.334  0.00  0.00    +0.000 A 
ATOM     28  F   UNL     1       9.329  10.412  21.525  0.00  0.00    +0.000 F 
ATOM     29  C   UNL     1      10.296  12.166  20.288  0.00  0.00    +0.000 A 
ENDBRANCH  21  23
BRANCH  20  31
ATOM     30  C   UNL     1      10.738  17.892  18.748  0.00  0.00    +0.000 C 
ATOM     31  C   UNL     1      11.399  16.586  19.185  0.00  0.00    +0.000 C 
ATOM     32  C   UNL     1      12.113  16.770  20.527  0.00  0.00    +0.000 C 
ENDBRANCH  20  31
ENDBRANCH  19  20
ENDBRANCH   1  19
TORSDOF 5
ENDMDL
