MODEL 1
REMARK VINA RESULT:      -7.6      0.000      0.000
REMARK  Name = 
REMARK  5 active torsions:
REMARK  status: ('A' for Active; 'I' for Inactive)
REMARK    1  A    between atoms: C_1  and  O_2
REMARK    2  A    between atoms: O_2  and  C_3
REMARK    3  A    between atoms: C_3  and  C_4
REMARK    4  A    between atoms: C_4  and  N_5
REMARK    5  A    between atoms: C_6  and  C_8
REMARK                            x       y       z     vdW  Elec       q    Type
REMARK                         _______ _______ _______ _____ _____    ______ ____
ROOT
ATOM      1  C   UNL     1       7.176   4.591  15.400  0.00  0.00    +0.000 C 
ATOM      2  C   UNL     1       6.773   5.950  15.995  0.00  0.00    +0.000 C 
ATOM      3  C   UNL     1       5.338   5.701  16.388  0.00  0.00    +0.000 C 
ATOM      4  C   UNL     1       4.692   6.569  17.454  0.00  0.00    +0.000 C 
ATOM      5  C   UNL     1       3.284   6.024  17.762  0.00  0.00    +0.000 C 
ATOM      6  N   UNL     1       3.357   4.592  18.054  0.00  0.00    +0.000 N 
ATOM      7  C   UNL     1       2.570   4.049  19.040  0.00  0.00    +0.000 A 
ATOM      8  N   UNL     1       1.812   4.866  19.790  0.00  0.00    +0.000 NA
ATOM      9  C   UNL     1       1.101   4.322  20.793  0.00  0.00    +0.000 A 
ATOM     10  C   UNL     1       1.109   2.985  21.087  0.00  0.00    +0.000 A 
ATOM     11  C   UNL     1       1.903   2.220  20.274  0.00  0.00    +0.000 A 
ATOM     12  N   UNL     1       2.626   2.724  19.258  0.00  0.00    +0.000 NA
ATOM     13  C   UNL     1       4.026   3.714  17.094  0.00  0.00    +0.000 C 
ATOM     14  C   UNL     1       5.431   4.268  16.877  0.00  0.00    +0.000 C 
ATOM     15  O   UNL     1       6.217   3.612  15.880  0.00  0.00    +0.000 OA
ENDROOT
BRANCH   1  17
ATOM     16  N   UNL     1       6.451   3.598  13.285  0.00  0.00    +0.000 N 
ATOM     17  C   UNL     1       7.181   4.613  13.860  0.00  0.00    +0.000 C 
ATOM     18  O   UNL     1       7.745   5.483  13.205  0.00  0.00    +0.000 OA
ATOM     19  H   UNL     1       5.960   2.952  13.893  0.00  0.00    +0.000 HD
BRANCH  16  20
ATOM     20  C   UNL     1       6.272   3.488  11.853  0.00  0.00    +0.000 C 
BRANCH  20  21
ATOM     21  C   UNL     1       5.150   2.521  11.486  0.00  0.00    +0.000 C 
BRANCH  21  23
ATOM     22  C   UNL     1       3.441   3.599  10.268  0.00  0.00    +0.000 C 
ATOM     23  O   UNL     1       3.898   3.212  11.557  0.00  0.00    +0.000 OA
ENDBRANCH  21  23
ENDBRANCH  20  21
ENDBRANCH  16  20
ENDBRANCH   1  17
TORSDOF 4
ENDMDL
MODEL 2
REMARK VINA RESULT:      -7.6      0.970      1.258
REMARK  Name = 
REMARK  5 active torsions:
REMARK  status: ('A' for Active; 'I' for Inactive)
REMARK    1  A    between atoms: C_1  and  O_2
REMARK    2  A    between atoms: O_2  and  C_3
REMARK    3  A    between atoms: C_3  and  C_4
REMARK    4  A    between atoms: C_4  and  N_5
REMARK    5  A    between atoms: C_6  and  C_8
REMARK                            x       y       z     vdW  Elec       q    Type
REMARK                         _______ _______ _______ _____ _____    ______ ____
ROOT
ATOM      1  C   UNL     1       7.142   4.492  15.349  0.00  0.00    +0.000 C 
ATOM      2  C   UNL     1       6.776   5.860  15.949  0.00  0.00    +0.000 C 
ATOM      3  C   UNL     1       5.339   5.645  16.352  0.00  0.00    +0.000 C 
ATOM      4  C   UNL     1       4.722   6.527  17.424  0.00  0.00    +0.000 C 
ATOM      5  C   UNL     1       3.304   6.015  17.742  0.00  0.00    +0.000 C 
ATOM      6  N   UNL     1       3.344   4.582  18.031  0.00  0.00    +0.000 N 
ATOM      7  C   UNL     1       2.551   4.056  19.022  0.00  0.00    +0.000 A 
ATOM      8  N   UNL     1       1.819   4.890  19.779  0.00  0.00    +0.000 NA
ATOM      9  C   UNL     1       1.103   4.362  20.787  0.00  0.00    +0.000 A 
ATOM     10  C   UNL     1       1.080   3.024  21.078  0.00  0.00    +0.000 A 
ATOM     11  C   UNL     1       1.850   2.242  20.259  0.00  0.00    +0.000 A 
ATOM     12  N   UNL     1       2.577   2.730  19.238  0.00  0.00    +0.000 NA
ATOM     13  C   UNL     1       3.985   3.689  17.065  0.00  0.00    +0.000 C 
ATOM     14  C   UNL     1       5.401   4.209  16.838  0.00  0.00    +0.000 C 
ATOM     15  O   UNL     1       6.163   3.536  15.835  0.00  0.00    +0.000 OA
ENDROOT
BRANCH   1  17
ATOM     16  N   UNL     1       6.475   3.454  13.236  0.00  0.00    +0.000 N 
ATOM     17  C   UNL     1       7.136   4.516  13.809  0.00  0.00    +0.000 C 
ATOM     18  O   UNL     1       7.634   5.424  13.152  0.00  0.00    +0.000 OA
ATOM     19  H   UNL     1       6.033   2.775  13.847  0.00  0.00    +0.000 HD
BRANCH  16  20
ATOM     20  C   UNL     1       6.295   3.334  11.806  0.00  0.00    +0.000 C 
BRANCH  20  21
ATOM     21  C   UNL     1       5.553   2.056  11.424  0.00  0.00    +0.000 C 
BRANCH  21  23
ATOM     22  C   UNL     1       6.086  -0.235  11.240  0.00  0.00    +0.000 C 
ATOM     23  O   UNL     1       6.500   1.093  10.948  0.00  0.00    +0.000 OA
ENDBRANCH  21  23
ENDBRANCH  20  21
ENDBRANCH  16  20
ENDBRANCH   1  17
TORSDOF 4
ENDMDL
MODEL 3
REMARK VINA RESULT:      -7.0      2.944      7.629
REMARK  Name = 
REMARK  5 active torsions:
REMARK  status: ('A' for Active; 'I' for Inactive)
REMARK    1  A    between atoms: C_1  and  O_2
REMARK    2  A    between atoms: O_2  and  C_3
REMARK    3  A    between atoms: C_3  and  C_4
REMARK    4  A    between atoms: C_4  and  N_5
REMARK    5  A    between atoms: C_6  and  C_8
REMARK                            x       y       z     vdW  Elec       q    Type
REMARK                         _______ _______ _______ _____ _____    ______ ____
ROOT
ATOM      1  C   UNL     1       2.879   4.542  18.930  0.00  0.00    +0.000 C 
ATOM      2  C   UNL     1       3.772   5.792  18.989  0.00  0.00    +0.000 C 
ATOM      3  C   UNL     1       4.954   5.365  18.155  0.00  0.00    +0.000 C 
ATOM      4  C   UNL     1       5.842   6.421  17.518  0.00  0.00    +0.000 C 
ATOM      5  C   UNL     1       6.882   5.727  16.618  0.00  0.00    +0.000 C 
ATOM      6  N   UNL     1       6.213   4.808  15.698  0.00  0.00    +0.000 N 
ATOM      7  C   UNL     1       6.653   4.687  14.403  0.00  0.00    +0.000 A 
ATOM      8  N   UNL     1       7.638   5.493  13.973  0.00  0.00    +0.000 NA
ATOM      9  C   UNL     1       8.007   5.405  12.684  0.00  0.00    +0.000 A 
ATOM     10  C   UNL     1       7.436   4.539  11.791  0.00  0.00    +0.000 A 
ATOM     11  C   UNL     1       6.442   3.750  12.308  0.00  0.00    +0.000 A 
ATOM     12  N   UNL     1       6.046   3.804  13.592  0.00  0.00    +0.000 NA
ATOM     13  C   UNL     1       5.294   3.811  16.248  0.00  0.00    +0.000 C 
ATOM     14  C   UNL     1       4.255   4.560  17.076  0.00  0.00    +0.000 C 
ATOM     15  O   UNL     1       3.324   3.750  17.796  0.00  0.00    +0.000 OA
ENDROOT
BRANCH   1  17
ATOM     16  N   UNL     1       3.857   2.661  20.152  0.00  0.00    +0.000 N 
ATOM     17  C   UNL     1       2.966   3.708  20.221  0.00  0.00    +0.000 C 
ATOM     18  O   UNL     1       2.334   3.979  21.237  0.00  0.00    +0.000 OA
ATOM     19  H   UNL     1       4.391   2.539  19.298  0.00  0.00    +0.000 HD
BRANCH  16  20
ATOM     20  C   UNL     1       4.137   1.806  21.285  0.00  0.00    +0.000 C 
BRANCH  20  21
ATOM     21  C   UNL     1       5.363   0.927  21.053  0.00  0.00    +0.000 C 
BRANCH  21  23
ATOM     22  C   UNL     1       6.531  -0.616  22.404  0.00  0.00    +0.000 C 
ATOM     23  O   UNL     1       6.022   0.707  22.306  0.00  0.00    +0.000 OA
ENDBRANCH  21  23
ENDBRANCH  20  21
ENDBRANCH  16  20
ENDBRANCH   1  17
TORSDOF 4
ENDMDL
MODEL 4
REMARK VINA RESULT:      -6.4      2.628      7.366
REMARK  Name = 
REMARK  5 active torsions:
REMARK  status: ('A' for Active; 'I' for Inactive)
REMARK    1  A    between atoms: C_1  and  O_2
REMARK    2  A    between atoms: O_2  and  C_3
REMARK    3  A    between atoms: C_3  and  C_4
REMARK    4  A    between atoms: C_4  and  N_5
REMARK    5  A    between atoms: C_6  and  C_8
REMARK                            x       y       z     vdW  Elec       q    Type
REMARK                         _______ _______ _______ _____ _____    ______ ____
ROOT
ATOM      1  C   UNL     1       2.139   5.631  18.659  0.00  0.00    +0.000 C 
ATOM      2  C   UNL     1       3.151   6.789  18.643  0.00  0.00    +0.000 C 
ATOM      3  C   UNL     1       4.356   6.137  18.012  0.00  0.00    +0.000 C 
ATOM      4  C   UNL     1       5.408   7.001  17.339  0.00  0.00    +0.000 C 
ATOM      5  C   UNL     1       6.451   6.090  16.663  0.00  0.00    +0.000 C 
ATOM      6  N   UNL     1       5.778   5.110  15.810  0.00  0.00    +0.000 N 
ATOM      7  C   UNL     1       6.326   4.758  14.601  0.00  0.00    +0.000 A 
ATOM      8  N   UNL     1       7.428   5.399  14.175  0.00  0.00    +0.000 NA
ATOM      9  C   UNL     1       7.908   5.087  12.959  0.00  0.00    +0.000 A 
ATOM     10  C   UNL     1       7.336   4.155  12.136  0.00  0.00    +0.000 A 
ATOM     11  C   UNL     1       6.220   3.545  12.643  0.00  0.00    +0.000 A 
ATOM     12  N   UNL     1       5.709   3.824  13.857  0.00  0.00    +0.000 NA
ATOM     13  C   UNL     1       4.710   4.293  16.387  0.00  0.00    +0.000 C 
ATOM     14  C   UNL     1       3.682   5.248  16.983  0.00  0.00    +0.000 C 
ATOM     15  O   UNL     1       2.605   4.643  17.701  0.00  0.00    +0.000 OA
ENDROOT
BRANCH   1  17
ATOM     16  N   UNL     1       1.440   3.742  20.047  0.00  0.00    +0.000 N 
ATOM     17  C   UNL     1       2.013   4.993  20.054  0.00  0.00    +0.000 C 
ATOM     18  O   UNL     1       2.428   5.530  21.076  0.00  0.00    +0.000 OA
ATOM     19  H   UNL     1       1.179   3.336  19.155  0.00  0.00    +0.000 HD
BRANCH  16  20
ATOM     20  C   UNL     1       1.300   2.947  21.248  0.00  0.00    +0.000 C 
BRANCH  20  21
ATOM     21  C   UNL     1       2.392   1.886  21.366  0.00  0.00    +0.000 C 
BRANCH  21  23
ATOM     22  C   UNL     1       4.395   2.136  20.143  0.00  0.00    +0.000 C 
ATOM     23  O   UNL     1       3.672   2.526  21.302  0.00  0.00    +0.000 OA
ENDBRANCH  21  23
ENDBRANCH  20  21
ENDBRANCH  16  20
ENDBRANCH   1  17
TORSDOF 4
ENDMDL
MODEL 5
REMARK VINA RESULT:      -6.3      4.944      7.351
REMARK  Name = 
REMARK  5 active torsions:
REMARK  status: ('A' for Active; 'I' for Inactive)
REMARK    1  A    between atoms: C_1  and  O_2
REMARK    2  A    between atoms: O_2  and  C_3
REMARK    3  A    between atoms: C_3  and  C_4
REMARK    4  A    between atoms: C_4  and  N_5
REMARK    5  A    between atoms: C_6  and  C_8
REMARK                            x       y       z     vdW  Elec       q    Type
REMARK                         _______ _______ _______ _____ _____    ______ ____
ROOT
ATOM      1  C   UNL     1       3.386   6.515  18.797  0.00  0.00    +0.000 C 
ATOM      2  C   UNL     1       3.232   7.682  17.809  0.00  0.00    +0.000 C 
ATOM      3  C   UNL     1       1.900   8.258  18.217  0.00  0.00    +0.000 C 
ATOM      4  C   UNL     1       1.571   9.700  17.872  0.00  0.00    +0.000 C 
ATOM      5  C   UNL     1       0.222  10.077  18.515  0.00  0.00    +0.000 C 
ATOM      6  N   UNL     1       0.238   9.742  19.939  0.00  0.00    +0.000 N 
ATOM      7  C   UNL     1      -0.361  10.576  20.850  0.00  0.00    +0.000 A 
ATOM      8  N   UNL     1      -0.871  11.745  20.424  0.00  0.00    +0.000 NA
ATOM      9  C   UNL     1      -1.392  12.577  21.342  0.00  0.00    +0.000 A 
ATOM     10  C   UNL     1      -1.432  12.297  22.682  0.00  0.00    +0.000 A 
ATOM     11  C   UNL     1      -0.896  11.087  23.034  0.00  0.00    +0.000 A 
ATOM     12  N   UNL     1      -0.369  10.223  22.147  0.00  0.00    +0.000 NA
ATOM     13  C   UNL     1       0.612   8.384  20.337  0.00  0.00    +0.000 C 
ATOM     14  C   UNL     1       1.977   8.093  19.723  0.00  0.00    +0.000 C 
ATOM     15  O   UNL     1       2.475   6.765  19.901  0.00  0.00    +0.000 OA
ENDROOT
BRANCH   1  17
ATOM     16  N   UNL     1       1.968   4.524  18.687  0.00  0.00    +0.000 N 
ATOM     17  C   UNL     1       3.062   5.158  18.145  0.00  0.00    +0.000 C 
ATOM     18  O   UNL     1       3.693   4.704  17.196  0.00  0.00    +0.000 OA
ATOM     19  H   UNL     1       1.458   4.991  19.429  0.00  0.00    +0.000 HD
BRANCH  16  20
ATOM     20  C   UNL     1       1.459   3.274  18.164  0.00  0.00    +0.000 C 
BRANCH  20  21
ATOM     21  C   UNL     1       1.451   2.170  19.218  0.00  0.00    +0.000 C 
BRANCH  21  23
ATOM     22  C   UNL     1       1.544   2.607  21.535  0.00  0.00    +0.000 C 
ATOM     23  O   UNL     1       2.276   2.570  20.318  0.00  0.00    +0.000 OA
ENDBRANCH  21  23
ENDBRANCH  20  21
ENDBRANCH  16  20
ENDBRANCH   1  17
TORSDOF 4
ENDMDL
MODEL 6
REMARK VINA RESULT:      -6.3      5.872      8.103
REMARK  Name = 
REMARK  5 active torsions:
REMARK  status: ('A' for Active; 'I' for Inactive)
REMARK    1  A    between atoms: C_1  and  O_2
REMARK    2  A    between atoms: O_2  and  C_3
REMARK    3  A    between atoms: C_3  and  C_4
REMARK    4  A    between atoms: C_4  and  N_5
REMARK    5  A    between atoms: C_6  and  C_8
REMARK                            x       y       z     vdW  Elec       q    Type
REMARK                         _______ _______ _______ _____ _____    ______ ____
ROOT
ATOM      1  C   UNL     1       0.430  10.910  18.869  0.00  0.00    +0.000 C 
ATOM      2  C   UNL     1       0.534  10.212  20.235  0.00  0.00    +0.000 C 
ATOM      3  C   UNL     1       0.932   8.813  19.837  0.00  0.00    +0.000 C 
ATOM      4  C   UNL     1       1.631   7.918  20.845  0.00  0.00    +0.000 C 
ATOM      5  C   UNL     1       2.047   6.607  20.151  0.00  0.00    +0.000 C 
ATOM      6  N   UNL     1       2.792   6.905  18.928  0.00  0.00    +0.000 N 
ATOM      7  C   UNL     1       3.871   6.132  18.573  0.00  0.00    +0.000 A 
ATOM      8  N   UNL     1       4.285   5.169  19.413  0.00  0.00    +0.000 NA
ATOM      9  C   UNL     1       5.383   4.469  19.078  0.00  0.00    +0.000 A 
ATOM     10  C   UNL     1       6.097   4.686  17.930  0.00  0.00    +0.000 A 
ATOM     11  C   UNL     1       5.609   5.682  17.127  0.00  0.00    +0.000 A 
ATOM     12  N   UNL     1       4.511   6.402  17.423  0.00  0.00    +0.000 NA
ATOM     13  C   UNL     1       2.198   7.814  17.948  0.00  0.00    +0.000 C 
ATOM     14  C   UNL     1       1.865   9.111  18.678  0.00  0.00    +0.000 C 
ATOM     15  O   UNL     1       1.167  10.098  17.916  0.00  0.00    +0.000 OA
ENDROOT
BRANCH   1  17
ATOM     16  N   UNL     1      -1.388  10.219  17.385  0.00  0.00    +0.000 N 
ATOM     17  C   UNL     1      -1.031  11.066  18.409  0.00  0.00    +0.000 C 
ATOM     18  O   UNL     1      -1.820  11.843  18.938  0.00  0.00    +0.000 OA
ATOM     19  H   UNL     1      -0.698   9.560  17.042  0.00  0.00    +0.000 HD
BRANCH  16  20
ATOM     20  C   UNL     1      -2.736  10.161  16.863  0.00  0.00    +0.000 C 
BRANCH  20  21
ATOM     21  C   UNL     1      -2.903  11.009  15.605  0.00  0.00    +0.000 C 
BRANCH  21  23
ATOM     22  C   UNL     1      -3.138   9.797  13.594  0.00  0.00    +0.000 C 
ATOM     23  O   UNL     1      -3.812  10.350  14.716  0.00  0.00    +0.000 OA
ENDBRANCH  21  23
ENDBRANCH  20  21
ENDBRANCH  16  20
ENDBRANCH   1  17
TORSDOF 4
ENDMDL
MODEL 7
REMARK VINA RESULT:      -6.3      4.216      6.580
REMARK  Name = 
REMARK  5 active torsions:
REMARK  status: ('A' for Active; 'I' for Inactive)
REMARK    1  A    between atoms: C_1  and  O_2
REMARK    2  A    between atoms: O_2  and  C_3
REMARK    3  A    between atoms: C_3  and  C_4
REMARK    4  A    between atoms: C_4  and  N_5
REMARK    5  A    between atoms: C_6  and  C_8
REMARK                            x       y       z     vdW  Elec       q    Type
REMARK                         _______ _______ _______ _____ _____    ______ ____
ROOT
ATOM      1  C   UNL     1       3.501   5.067  18.061  0.00  0.00    +0.000 C 
ATOM      2  C   UNL     1       2.779   4.850  19.400  0.00  0.00    +0.000 C 
ATOM      3  C   UNL     1       2.570   6.267  19.872  0.00  0.00    +0.000 C 
ATOM      4  C   UNL     1       1.471   6.567  20.877  0.00  0.00    +0.000 C 
ATOM      5  C   UNL     1       1.382   8.091  21.085  0.00  0.00    +0.000 C 
ATOM      6  N   UNL     1       1.272   8.765  19.791  0.00  0.00    +0.000 N 
ATOM      7  C   UNL     1       0.451   9.856  19.649  0.00  0.00    +0.000 A 
ATOM      8  N   UNL     1      -0.319  10.229  20.685  0.00  0.00    +0.000 NA
ATOM      9  C   UNL     1      -1.165  11.258  20.504  0.00  0.00    +0.000 A 
ATOM     10  C   UNL     1      -1.281  11.942  19.324  0.00  0.00    +0.000 A 
ATOM     11  C   UNL     1      -0.461  11.503  18.319  0.00  0.00    +0.000 A 
ATOM     12  N   UNL     1       0.402  10.481  18.461  0.00  0.00    +0.000 NA
ATOM     13  C   UNL     1       2.265   8.466  18.758  0.00  0.00    +0.000 C 
ATOM     14  C   UNL     1       2.264   6.954  18.554  0.00  0.00    +0.000 C 
ATOM     15  O   UNL     1       3.253   6.441  17.659  0.00  0.00    +0.000 OA
ENDROOT
BRANCH   1  17
ATOM     16  N   UNL     1       5.781   5.661  17.401  0.00  0.00    +0.000 N 
ATOM     17  C   UNL     1       5.017   4.818  18.174  0.00  0.00    +0.000 C 
ATOM     18  O   UNL     1       5.502   3.975  18.922  0.00  0.00    +0.000 OA
ATOM     19  H   UNL     1       5.311   6.375  16.856  0.00  0.00    +0.000 HD
BRANCH  16  20
ATOM     20  C   UNL     1       7.228   5.635  17.425  0.00  0.00    +0.000 C 
BRANCH  20  21
ATOM     21  C   UNL     1       7.814   6.862  18.117  0.00  0.00    +0.000 C 
BRANCH  21  23
ATOM     22  C   UNL     1       8.127   9.189  17.878  0.00  0.00    +0.000 C 
ATOM     23  O   UNL     1       7.668   7.997  17.256  0.00  0.00    +0.000 OA
ENDBRANCH  21  23
ENDBRANCH  20  21
ENDBRANCH  16  20
ENDBRANCH   1  17
TORSDOF 4
ENDMDL
MODEL 8
REMARK VINA RESULT:      -6.3      4.038      6.130
REMARK  Name = 
REMARK  5 active torsions:
REMARK  status: ('A' for Active; 'I' for Inactive)
REMARK    1  A    between atoms: C_1  and  O_2
REMARK    2  A    between atoms: O_2  and  C_3
REMARK    3  A    between atoms: C_3  and  C_4
REMARK    4  A    between atoms: C_4  and  N_5
REMARK    5  A    between atoms: C_6  and  C_8
REMARK                            x       y       z     vdW  Elec       q    Type
REMARK                         _______ _______ _______ _____ _____    ______ ____
ROOT
ATOM      1  C   UNL     1       4.439   5.833  18.424  0.00  0.00    +0.000 C 
ATOM      2  C   UNL     1       4.149   7.046  17.527  0.00  0.00    +0.000 C 
ATOM      3  C   UNL     1       2.787   7.473  18.015  0.00  0.00    +0.000 C 
ATOM      4  C   UNL     1       2.322   8.900  17.785  0.00  0.00    +0.000 C 
ATOM      5  C   UNL     1       0.970   9.110  18.494  0.00  0.00    +0.000 C 
ATOM      6  N   UNL     1       1.067   8.681  19.889  0.00  0.00    +0.000 N 
ATOM      7  C   UNL     1       0.431   9.395  20.875  0.00  0.00    +0.000 A 
ATOM      8  N   UNL     1      -0.193  10.539  20.550  0.00  0.00    +0.000 NA
ATOM      9  C   UNL     1      -0.750  11.257  21.540  0.00  0.00    +0.000 A 
ATOM     10  C   UNL     1      -0.716  10.883  22.857  0.00  0.00    +0.000 A 
ATOM     11  C   UNL     1      -0.065   9.704  23.105  0.00  0.00    +0.000 A 
ATOM     12  N   UNL     1       0.502   8.954  22.143  0.00  0.00    +0.000 NA
ATOM     13  C   UNL     1       1.571   7.338  20.177  0.00  0.00    +0.000 C 
ATOM     14  C   UNL     1       2.934   7.212  19.503  0.00  0.00    +0.000 C 
ATOM     15  O   UNL     1       3.550   5.925  19.570  0.00  0.00    +0.000 OA
ENDROOT
BRANCH   1  17
ATOM     16  N   UNL     1       3.814   3.468  18.506  0.00  0.00    +0.000 N 
ATOM     17  C   UNL     1       4.210   4.500  17.686  0.00  0.00    +0.000 C 
ATOM     18  O   UNL     1       4.325   4.380  16.471  0.00  0.00    +0.000 OA
ATOM     19  H   UNL     1       3.679   3.660  19.492  0.00  0.00    +0.000 HD
BRANCH  16  20
ATOM     20  C   UNL     1       3.478   2.158  17.993  0.00  0.00    +0.000 C 
BRANCH  20  21
ATOM     21  C   UNL     1       2.157   1.640  18.557  0.00  0.00    +0.000 C 
BRANCH  21  23
ATOM     22  C   UNL     1       0.815   3.085  19.853  0.00  0.00    +0.000 C 
ATOM     23  O   UNL     1       1.196   2.701  18.539  0.00  0.00    +0.000 OA
ENDBRANCH  21  23
ENDBRANCH  20  21
ENDBRANCH  16  20
ENDBRANCH   1  17
TORSDOF 4
ENDMDL
MODEL 9
REMARK VINA RESULT:      -6.1      4.670      6.586
REMARK  Name = 
REMARK  5 active torsions:
REMARK  status: ('A' for Active; 'I' for Inactive)
REMARK    1  A    between atoms: C_1  and  O_2
REMARK    2  A    between atoms: O_2  and  C_3
REMARK    3  A    between atoms: C_3  and  C_4
REMARK    4  A    between atoms: C_4  and  N_5
REMARK    5  A    between atoms: C_6  and  C_8
REMARK                            x       y       z     vdW  Elec       q    Type
REMARK                         _______ _______ _______ _____ _____    ______ ____
ROOT
ATOM      1  C   UNL     1       3.085   5.933  18.289  0.00  0.00    +0.000 C 
ATOM      2  C   UNL     1       2.441   5.776  19.676  0.00  0.00    +0.000 C 
ATOM      3  C   UNL     1       2.202   7.213  20.070  0.00  0.00    +0.000 C 
ATOM      4  C   UNL     1       1.146   7.538  21.111  0.00  0.00    +0.000 C 
ATOM      5  C   UNL     1       1.008   9.068  21.228  0.00  0.00    +0.000 C 
ATOM      6  N   UNL     1       0.807   9.653  19.903  0.00  0.00    +0.000 N 
ATOM      7  C   UNL     1      -0.062  10.704  19.738  0.00  0.00    +0.000 A 
ATOM      8  N   UNL     1      -0.791  11.115  20.788  0.00  0.00    +0.000 NA
ATOM      9  C   UNL     1      -1.685  12.100  20.589  0.00  0.00    +0.000 A 
ATOM     10  C   UNL     1      -1.887  12.703  19.377  0.00  0.00    +0.000 A 
ATOM     11  C   UNL     1      -1.103  12.229  18.359  0.00  0.00    +0.000 A 
ATOM     12  N   UNL     1      -0.195  11.249  18.517  0.00  0.00    +0.000 NA
ATOM     13  C   UNL     1       1.756   9.324  18.839  0.00  0.00    +0.000 C 
ATOM     14  C   UNL     1       1.803   7.803  18.730  0.00  0.00    +0.000 C 
ATOM     15  O   UNL     1       2.764   7.269  17.817  0.00  0.00    +0.000 OA
ENDROOT
BRANCH   1  17
ATOM     16  N   UNL     1       5.254   6.077  17.165  0.00  0.00    +0.000 N 
ATOM     17  C   UNL     1       4.613   5.745  18.337  0.00  0.00    +0.000 C 
ATOM     18  O   UNL     1       5.211   5.378  19.343  0.00  0.00    +0.000 OA
ATOM     19  H   UNL     1       4.698   6.434  16.396  0.00  0.00    +0.000 HD
BRANCH  16  20
ATOM     20  C   UNL     1       6.694   6.039  17.033  0.00  0.00    +0.000 C 
BRANCH  20  21
ATOM     21  C   UNL     1       7.182   4.725  16.428  0.00  0.00    +0.000 C 
BRANCH  21  23
ATOM     22  C   UNL     1       6.553   4.323  14.190  0.00  0.00    +0.000 C 
ATOM     23  O   UNL     1       7.503   4.938  15.049  0.00  0.00    +0.000 OA
ENDBRANCH  21  23
ENDBRANCH  20  21
ENDBRANCH  16  20
ENDBRANCH   1  17
TORSDOF 4
ENDMDL
