MODEL 1
REMARK VINA RESULT:      -8.7      0.000      0.000
REMARK  Name = 
REMARK  4 active torsions:
REMARK  status: ('A' for Active; 'I' for Inactive)
REMARK    1  A    between atoms: C_1  and  C_2
REMARK    2  A    between atoms: C_5  and  C_6
REMARK    3  A    between atoms: C_7  and  C_8
REMARK    4  A    between atoms: C_10  and  N_11
REMARK                            x       y       z     vdW  Elec       q    Type
REMARK                         _______ _______ _______ _____ _____    ______ ____
ROOT
ATOM      1  C   UNL     1       2.873   5.571  18.274  0.00  0.00    +0.000 A 
ATOM      2  C   UNL     1       2.476   4.265  18.673  0.00  0.00    +0.000 A 
ATOM      3  C   UNL     1       3.020   3.143  18.036  0.00  0.00    +0.000 A 
ATOM      4  N   UNL     1       3.942   3.229  17.062  0.00  0.00    +0.000 NA
ATOM      5  C   UNL     1       4.383   4.452  16.691  0.00  0.00    +0.000 A 
ATOM      6  C   UNL     1       3.859   5.654  17.240  0.00  0.00    +0.000 A 
ATOM      7  C   UNL     1       4.382   6.955  16.649  0.00  0.00    +0.000 C 
ATOM      8  C   UNL     1       5.760   7.392  17.150  0.00  0.00    +0.000 C 
ATOM      9  S   UNL     1       6.997   6.125  17.112  0.00  0.00    +0.000 S 
ATOM     10  O   UNL     1       8.268   6.799  16.877  0.00  0.00    +0.000 OA
ATOM     11  O   UNL     1       6.830   5.268  18.259  0.00  0.00    +0.000 OA
ATOM     12  C   UNL     1       6.596   5.200  15.661  0.00  0.00    +0.000 A 
ATOM     13  C   UNL     1       7.476   5.282  14.570  0.00  0.00    +0.000 A 
ATOM     14  C   UNL     1       7.193   4.586  13.405  0.00  0.00    +0.000 A 
ATOM     15  C   UNL     1       6.053   3.786  13.345  0.00  0.00    +0.000 A 
ATOM     16  C   UNL     1       5.177   3.712  14.437  0.00  0.00    +0.000 A 
ATOM     17  C   UNL     1       5.410   4.441  15.617  0.00  0.00    +0.000 A 
ENDROOT
BRANCH   1  22
ATOM     18  C   UNL     1       0.483  10.355  20.657  0.00  0.00    +0.000 C 
ATOM     19  C   UNL     1       1.091   9.130  20.053  0.00  0.00    +0.000 A 
ATOM     20  C   UNL     1       1.257   9.029  18.683  0.00  0.00    +0.000 A 
ATOM     21  C   UNL     1       1.889   7.911  18.145  0.00  0.00    +0.000 A 
ATOM     22  C   UNL     1       2.266   6.793  18.905  0.00  0.00    +0.000 A 
ATOM     23  C   UNL     1       2.044   6.909  20.288  0.00  0.00    +0.000 A 
ATOM     24  C   UNL     1       1.511   8.074  20.859  0.00  0.00    +0.000 A 
ENDBRANCH   1  22
BRANCH   3  25
ATOM     25  N   UNL     1       2.564   1.849  18.291  0.00  0.00    +0.000 N 
ATOM     26  H   UNL     1       2.511   1.600  19.274  0.00  0.00    +0.000 HD
ATOM     27  H   UNL     1       3.124   1.194  17.752  0.00  0.00    +0.000 HD
ENDBRANCH   3  25
BRANCH   2  28
ATOM     28  C   UNL     1       1.534   4.014  19.732  0.00  0.00    +0.000 C 
ATOM     29  N   UNL     1       0.767   3.778  20.570  0.00  0.00    +0.000 NA
ENDBRANCH   2  28
TORSDOF 3
ENDMDL
MODEL 2
REMARK VINA RESULT:      -7.4      8.454     12.678
REMARK  Name = 
REMARK  4 active torsions:
REMARK  status: ('A' for Active; 'I' for Inactive)
REMARK    1  A    between atoms: C_1  and  C_2
REMARK    2  A    between atoms: C_5  and  C_6
REMARK    3  A    between atoms: C_7  and  C_8
REMARK    4  A    between atoms: C_10  and  N_11
REMARK                            x       y       z     vdW  Elec       q    Type
REMARK                         _______ _______ _______ _____ _____    ______ ____
ROOT
ATOM      1  C   UNL     1      -3.557  12.009  19.078  0.00  0.00    +0.000 A 
ATOM      2  C   UNL     1      -4.472  11.841  18.001  0.00  0.00    +0.000 A 
ATOM      3  C   UNL     1      -5.840  12.054  18.204  0.00  0.00    +0.000 A 
ATOM      4  N   UNL     1      -6.352  12.448  19.383  0.00  0.00    +0.000 NA
ATOM      5  C   UNL     1      -5.509  12.670  20.416  0.00  0.00    +0.000 A 
ATOM      6  C   UNL     1      -4.111  12.434  20.328  0.00  0.00    +0.000 A 
ATOM      7  C   UNL     1      -3.306  12.631  21.605  0.00  0.00    +0.000 C 
ATOM      8  C   UNL     1      -2.983  14.084  21.955  0.00  0.00    +0.000 C 
ATOM      9  S   UNL     1      -4.368  15.187  21.891  0.00  0.00    +0.000 S 
ATOM     10  O   UNL     1      -4.120  16.216  22.892  0.00  0.00    +0.000 OA
ATOM     11  O   UNL     1      -4.618  15.552  20.519  0.00  0.00    +0.000 OA
ATOM     12  C   UNL     1      -5.715  14.191  22.456  0.00  0.00    +0.000 A 
ATOM     13  C   UNL     1      -6.270  14.496  23.709  0.00  0.00    +0.000 A 
ATOM     14  C   UNL     1      -7.317  13.731  24.200  0.00  0.00    +0.000 A 
ATOM     15  C   UNL     1      -7.826  12.689  23.427  0.00  0.00    +0.000 A 
ATOM     16  C   UNL     1      -7.263  12.389  22.178  0.00  0.00    +0.000 A 
ATOM     17  C   UNL     1      -6.170  13.114  21.671  0.00  0.00    +0.000 A 
ENDROOT
BRANCH   1  22
ATOM     18  C   UNL     1       2.173  11.022  18.400  0.00  0.00    +0.000 C 
ATOM     19  C   UNL     1       0.709  11.269  18.576  0.00  0.00    +0.000 A 
ATOM     20  C   UNL     1       0.208  12.559  18.575  0.00  0.00    +0.000 A 
ATOM     21  C   UNL     1      -1.166  12.765  18.670  0.00  0.00    +0.000 A 
ATOM     22  C   UNL     1      -2.090  11.735  18.900  0.00  0.00    +0.000 A 
ATOM     23  C   UNL     1      -1.543  10.440  18.940  0.00  0.00    +0.000 A 
ATOM     24  C   UNL     1      -0.176  10.206  18.734  0.00  0.00    +0.000 A 
ENDBRANCH   1  22
BRANCH   3  25
ATOM     25  N   UNL     1      -6.792  11.769  17.224  0.00  0.00    +0.000 N 
ATOM     26  H   UNL     1      -6.457  11.189  16.460  0.00  0.00    +0.000 HD
ATOM     27  H   UNL     1      -7.200  12.642  16.902  0.00  0.00    +0.000 HD
ENDBRANCH   3  25
BRANCH   2  28
ATOM     28  C   UNL     1      -4.066  11.468  16.671  0.00  0.00    +0.000 C 
ATOM     29  N   UNL     1      -3.743  11.131  15.609  0.00  0.00    +0.000 NA
ENDBRANCH   2  28
TORSDOF 3
ENDMDL
MODEL 3
REMARK VINA RESULT:      -7.1      5.749     10.138
REMARK  Name = 
REMARK  4 active torsions:
REMARK  status: ('A' for Active; 'I' for Inactive)
REMARK    1  A    between atoms: C_1  and  C_2
REMARK    2  A    between atoms: C_5  and  C_6
REMARK    3  A    between atoms: C_7  and  C_8
REMARK    4  A    between atoms: C_10  and  N_11
REMARK                            x       y       z     vdW  Elec       q    Type
REMARK                         _______ _______ _______ _____ _____    ______ ____
ROOT
ATOM      1  C   UNL     1      -0.258  11.308  19.598  0.00  0.00    +0.000 A 
ATOM      2  C   UNL     1      -1.605  11.362  19.146  0.00  0.00    +0.000 A 
ATOM      3  C   UNL     1      -2.425  12.435  19.513  0.00  0.00    +0.000 A 
ATOM      4  N   UNL     1      -1.993  13.462  20.264  0.00  0.00    +0.000 NA
ATOM      5  C   UNL     1      -0.703  13.474  20.669  0.00  0.00    +0.000 A 
ATOM      6  C   UNL     1       0.196  12.409  20.393  0.00  0.00    +0.000 A 
ATOM      7  C   UNL     1       1.586  12.518  21.002  0.00  0.00    +0.000 C 
ATOM      8  C   UNL     1       2.551  13.449  20.266  0.00  0.00    +0.000 C 
ATOM      9  S   UNL     1       1.889  15.048  19.884  0.00  0.00    +0.000 S 
ATOM     10  O   UNL     1       3.013  15.975  19.911  0.00  0.00    +0.000 OA
ATOM     11  O   UNL     1       1.059  14.946  18.710  0.00  0.00    +0.000 OA
ATOM     12  C   UNL     1       0.853  15.408  21.269  0.00  0.00    +0.000 A 
ATOM     13  C   UNL     1       1.262  16.427  22.143  0.00  0.00    +0.000 A 
ATOM     14  C   UNL     1       0.489  16.733  23.252  0.00  0.00    +0.000 A 
ATOM     15  C   UNL     1      -0.704  16.044  23.467  0.00  0.00    +0.000 A 
ATOM     16  C   UNL     1      -1.104  15.024  22.592  0.00  0.00    +0.000 A 
ATOM     17  C   UNL     1      -0.320  14.657  21.483  0.00  0.00    +0.000 A 
ENDROOT
BRANCH   1  22
ATOM     18  C   UNL     1       3.163   6.722  18.357  0.00  0.00    +0.000 C 
ATOM     19  C   UNL     1       2.288   7.894  18.668  0.00  0.00    +0.000 A 
ATOM     20  C   UNL     1       1.674   8.006  19.903  0.00  0.00    +0.000 A 
ATOM     21  C   UNL     1       0.920   9.139  20.199  0.00  0.00    +0.000 A 
ATOM     22  C   UNL     1       0.628  10.141  19.262  0.00  0.00    +0.000 A 
ATOM     23  C   UNL     1       1.231   9.976  18.003  0.00  0.00    +0.000 A 
ATOM     24  C   UNL     1       2.084   8.898  17.725  0.00  0.00    +0.000 A 
ENDBRANCH   1  22
BRANCH   3  25
ATOM     25  N   UNL     1      -3.788  12.467  19.215  0.00  0.00    +0.000 N 
ATOM     26  H   UNL     1      -4.189  11.572  18.951  0.00  0.00    +0.000 HD
ATOM     27  H   UNL     1      -3.953  13.189  18.520  0.00  0.00    +0.000 HD
ENDBRANCH   3  25
BRANCH   2  28
ATOM     28  C   UNL     1      -2.194  10.359  18.297  0.00  0.00    +0.000 C 
ATOM     29  N   UNL     1      -2.701   9.572  17.612  0.00  0.00    +0.000 NA
ENDBRANCH   2  28
TORSDOF 3
ENDMDL
MODEL 4
REMARK VINA RESULT:      -7.0      9.527     10.594
REMARK  Name = 
REMARK  4 active torsions:
REMARK  status: ('A' for Active; 'I' for Inactive)
REMARK    1  A    between atoms: C_1  and  C_2
REMARK    2  A    between atoms: C_5  and  C_6
REMARK    3  A    between atoms: C_7  and  C_8
REMARK    4  A    between atoms: C_10  and  N_11
REMARK                            x       y       z     vdW  Elec       q    Type
REMARK                         _______ _______ _______ _____ _____    ______ ____
ROOT
ATOM      1  C   UNL     1       7.391  14.129  21.503  0.00  0.00    +0.000 A 
ATOM      2  C   UNL     1       6.189  14.609  20.914  0.00  0.00    +0.000 A 
ATOM      3  C   UNL     1       6.218  15.204  19.648  0.00  0.00    +0.000 A 
ATOM      4  N   UNL     1       7.343  15.326  18.922  0.00  0.00    +0.000 NA
ATOM      5  C   UNL     1       8.498  14.835  19.425  0.00  0.00    +0.000 A 
ATOM      6  C   UNL     1       8.584  14.258  20.721  0.00  0.00    +0.000 A 
ATOM      7  C   UNL     1       9.971  13.843  21.189  0.00  0.00    +0.000 C 
ATOM      8  C   UNL     1      10.481  12.516  20.625  0.00  0.00    +0.000 C 
ATOM      9  S   UNL     1      10.317  12.347  18.869  0.00  0.00    +0.000 S 
ATOM     10  O   UNL     1      11.424  11.506  18.432  0.00  0.00    +0.000 OA
ATOM     11  O   UNL     1       8.958  11.982  18.555  0.00  0.00    +0.000 OA
ATOM     12  C   UNL     1      10.608  13.983  18.268  0.00  0.00    +0.000 A 
ATOM     13  C   UNL     1      11.792  14.214  17.551  0.00  0.00    +0.000 A 
ATOM     14  C   UNL     1      12.070  15.486  17.075  0.00  0.00    +0.000 A 
ATOM     15  C   UNL     1      11.151  16.513  17.286  0.00  0.00    +0.000 A 
ATOM     16  C   UNL     1       9.972  16.275  18.006  0.00  0.00    +0.000 A 
ATOM     17  C   UNL     1       9.681  15.008  18.544  0.00  0.00    +0.000 A 
ENDROOT
BRANCH   1  22
ATOM     18  C   UNL     1       7.398  11.884  26.910  0.00  0.00    +0.000 C 
ATOM     19  C   UNL     1       7.393  12.453  25.527  0.00  0.00    +0.000 A 
ATOM     20  C   UNL     1       7.511  13.817  25.327  0.00  0.00    +0.000 A 
ATOM     21  C   UNL     1       7.575  14.321  24.030  0.00  0.00    +0.000 A 
ATOM     22  C   UNL     1       7.396  13.533  22.883  0.00  0.00    +0.000 A 
ATOM     23  C   UNL     1       7.235  12.157  23.123  0.00  0.00    +0.000 A 
ATOM     24  C   UNL     1       7.280  11.619  24.417  0.00  0.00    +0.000 A 
ENDBRANCH   1  22
BRANCH   3  25
ATOM     25  N   UNL     1       5.096  15.815  19.086  0.00  0.00    +0.000 N 
ATOM     26  H   UNL     1       4.206  15.419  19.372  0.00  0.00    +0.000 HD
ATOM     27  H   UNL     1       5.208  15.837  18.077  0.00  0.00    +0.000 HD
ENDBRANCH   3  25
BRANCH   2  28
ATOM     28  C   UNL     1       4.901  14.505  21.550  0.00  0.00    +0.000 C 
ATOM     29  N   UNL     1       3.848  14.413  22.029  0.00  0.00    +0.000 NA
ENDBRANCH   2  28
TORSDOF 3
ENDMDL
MODEL 5
REMARK VINA RESULT:      -6.9      8.362     11.584
REMARK  Name = 
REMARK  4 active torsions:
REMARK  status: ('A' for Active; 'I' for Inactive)
REMARK    1  A    between atoms: C_1  and  C_2
REMARK    2  A    between atoms: C_5  and  C_6
REMARK    3  A    between atoms: C_7  and  C_8
REMARK    4  A    between atoms: C_10  and  N_11
REMARK                            x       y       z     vdW  Elec       q    Type
REMARK                         _______ _______ _______ _____ _____    ______ ____
ROOT
ATOM      1  C   UNL     1      -4.461  13.347  21.760  0.00  0.00    +0.000 A 
ATOM      2  C   UNL     1      -4.856  13.400  23.126  0.00  0.00    +0.000 A 
ATOM      3  C   UNL     1      -4.076  12.776  24.105  0.00  0.00    +0.000 A 
ATOM      4  N   UNL     1      -2.928  12.135  23.828  0.00  0.00    +0.000 NA
ATOM      5  C   UNL     1      -2.491  12.107  22.548  0.00  0.00    +0.000 A 
ATOM      6  C   UNL     1      -3.234  12.667  21.474  0.00  0.00    +0.000 A 
ATOM      7  C   UNL     1      -2.663  12.469  20.078  0.00  0.00    +0.000 C 
ATOM      8  C   UNL     1      -1.516  13.407  19.701  0.00  0.00    +0.000 C 
ATOM      9  S   UNL     1      -0.228  13.524  20.912  0.00  0.00    +0.000 S 
ATOM     10  O   UNL     1       1.005  13.776  20.176  0.00  0.00    +0.000 OA
ATOM     11  O   UNL     1      -0.645  14.421  21.960  0.00  0.00    +0.000 OA
ATOM     12  C   UNL     1      -0.139  11.890  21.579  0.00  0.00    +0.000 A 
ATOM     13  C   UNL     1       1.001  11.126  21.285  0.00  0.00    +0.000 A 
ATOM     14  C   UNL     1       1.106   9.833  21.774  0.00  0.00    +0.000 A 
ATOM     15  C   UNL     1       0.090   9.321  22.579  0.00  0.00    +0.000 A 
ATOM     16  C   UNL     1      -1.048  10.088  22.864  0.00  0.00    +0.000 A 
ATOM     17  C   UNL     1      -1.208  11.386  22.347  0.00  0.00    +0.000 A 
ENDROOT
BRANCH   1  22
ATOM     18  C   UNL     1      -7.806  15.684  17.563  0.00  0.00    +0.000 C 
ATOM     19  C   UNL     1      -6.952  15.093  18.638  0.00  0.00    +0.000 A 
ATOM     20  C   UNL     1      -7.048  13.749  18.953  0.00  0.00    +0.000 A 
ATOM     21  C   UNL     1      -6.194  13.201  19.908  0.00  0.00    +0.000 A 
ATOM     22  C   UNL     1      -5.308  13.965  20.683  0.00  0.00    +0.000 A 
ATOM     23  C   UNL     1      -5.266  15.334  20.367  0.00  0.00    +0.000 A 
ATOM     24  C   UNL     1      -6.037  15.881  19.332  0.00  0.00    +0.000 A 
ENDBRANCH   1  22
BRANCH   3  25
ATOM     25  N   UNL     1      -4.488  12.677  25.435  0.00  0.00    +0.000 N 
ATOM     26  H   UNL     1      -5.323  13.209  25.664  0.00  0.00    +0.000 HD
ATOM     27  H   UNL     1      -3.703  12.905  26.038  0.00  0.00    +0.000 HD
ENDBRANCH   3  25
BRANCH   2  28
ATOM     28  C   UNL     1      -6.035  14.090  23.581  0.00  0.00    +0.000 C 
ATOM     29  N   UNL     1      -6.964  14.674  23.959  0.00  0.00    +0.000 NA
ENDBRANCH   2  28
TORSDOF 3
ENDMDL
MODEL 6
REMARK VINA RESULT:      -6.8      7.930     10.121
REMARK  Name = 
REMARK  4 active torsions:
REMARK  status: ('A' for Active; 'I' for Inactive)
REMARK    1  A    between atoms: C_1  and  C_2
REMARK    2  A    between atoms: C_5  and  C_6
REMARK    3  A    between atoms: C_7  and  C_8
REMARK    4  A    between atoms: C_10  and  N_11
REMARK                            x       y       z     vdW  Elec       q    Type
REMARK                         _______ _______ _______ _____ _____    ______ ____
ROOT
ATOM      1  C   UNL     1      -0.337  14.070  21.195  0.00  0.00    +0.000 A 
ATOM      2  C   UNL     1      -1.209  13.975  22.315  0.00  0.00    +0.000 A 
ATOM      3  C   UNL     1      -2.334  13.144  22.258  0.00  0.00    +0.000 A 
ATOM      4  N   UNL     1      -2.631  12.387  21.188  0.00  0.00    +0.000 NA
ATOM      5  C   UNL     1      -1.797  12.409  20.124  0.00  0.00    +0.000 A 
ATOM      6  C   UNL     1      -0.657  13.256  20.062  0.00  0.00    +0.000 A 
ATOM      7  C   UNL     1       0.127  13.246  18.758  0.00  0.00    +0.000 C 
ATOM      8  C   UNL     1       1.069  12.056  18.572  0.00  0.00    +0.000 C 
ATOM      9  S   UNL     1       0.338  10.475  18.896  0.00  0.00    +0.000 S 
ATOM     10  O   UNL     1       1.010   9.525  18.018  0.00  0.00    +0.000 OA
ATOM     11  O   UNL     1       0.305  10.253  20.319  0.00  0.00    +0.000 OA
ATOM     12  C   UNL     1      -1.323  10.663  18.322  0.00  0.00    +0.000 A 
ATOM     13  C   UNL     1      -1.700   9.954  17.171  0.00  0.00    +0.000 A 
ATOM     14  C   UNL     1      -2.988  10.085  16.676  0.00  0.00    +0.000 A 
ATOM     15  C   UNL     1      -3.902  10.894  17.348  0.00  0.00    +0.000 A 
ATOM     16  C   UNL     1      -3.517  11.602  18.495  0.00  0.00    +0.000 A 
ATOM     17  C   UNL     1      -2.205  11.530  18.998  0.00  0.00    +0.000 A 
ENDROOT
BRANCH   1  22
ATOM     18  C   UNL     1       4.329  17.605  21.262  0.00  0.00    +0.000 C 
ATOM     19  C   UNL     1       3.135  16.706  21.240  0.00  0.00    +0.000 A 
ATOM     20  C   UNL     1       3.254  15.370  21.581  0.00  0.00    +0.000 A 
ATOM     21  C   UNL     1       2.119  14.564  21.623  0.00  0.00    +0.000 A 
ATOM     22  C   UNL     1       0.848  14.995  21.211  0.00  0.00    +0.000 A 
ATOM     23  C   UNL     1       0.770  16.346  20.830  0.00  0.00    +0.000 A 
ATOM     24  C   UNL     1       1.881  17.199  20.889  0.00  0.00    +0.000 A 
ENDBRANCH   1  22
BRANCH   3  25
ATOM     25  N   UNL     1      -3.295  13.120  23.270  0.00  0.00    +0.000 N 
ATOM     26  H   UNL     1      -3.214  12.342  23.917  0.00  0.00    +0.000 HD
ATOM     27  H   UNL     1      -4.216  13.182  22.846  0.00  0.00    +0.000 HD
ENDBRANCH   3  25
BRANCH   2  28
ATOM     28  C   UNL     1      -0.995  14.689  23.546  0.00  0.00    +0.000 C 
ATOM     29  N   UNL     1      -0.837  15.236  24.558  0.00  0.00    +0.000 NA
ENDBRANCH   2  28
TORSDOF 3
ENDMDL
MODEL 7
REMARK VINA RESULT:      -6.8      9.624     10.369
REMARK  Name = 
REMARK  4 active torsions:
REMARK  status: ('A' for Active; 'I' for Inactive)
REMARK    1  A    between atoms: C_1  and  C_2
REMARK    2  A    between atoms: C_5  and  C_6
REMARK    3  A    between atoms: C_7  and  C_8
REMARK    4  A    between atoms: C_10  and  N_11
REMARK                            x       y       z     vdW  Elec       q    Type
REMARK                         _______ _______ _______ _____ _____    ______ ____
ROOT
ATOM      1  C   UNL     1       6.433  14.798  20.728  0.00  0.00    +0.000 A 
ATOM      2  C   UNL     1       6.650  14.080  21.936  0.00  0.00    +0.000 A 
ATOM      3  C   UNL     1       7.776  13.260  22.071  0.00  0.00    +0.000 A 
ATOM      4  N   UNL     1       8.706  13.130  21.110  0.00  0.00    +0.000 NA
ATOM      5  C   UNL     1       8.563  13.837  19.967  0.00  0.00    +0.000 A 
ATOM      6  C   UNL     1       7.432  14.658  19.711  0.00  0.00    +0.000 A 
ATOM      7  C   UNL     1       7.362  15.311  18.339  0.00  0.00    +0.000 C 
ATOM      8  C   UNL     1       8.235  16.555  18.162  0.00  0.00    +0.000 C 
ATOM      9  S   UNL     1       9.912  16.364  18.700  0.00  0.00    +0.000 S 
ATOM     10  O   UNL     1      10.717  17.228  17.845  0.00  0.00    +0.000 OA
ATOM     11  O   UNL     1       9.967  16.504  20.133  0.00  0.00    +0.000 OA
ATOM     12  C   UNL     1      10.289  14.687  18.288  0.00  0.00    +0.000 A 
ATOM     13  C   UNL     1      11.207  14.460  17.251  0.00  0.00    +0.000 A 
ATOM     14  C   UNL     1      11.520  13.161  16.883  0.00  0.00    +0.000 A 
ATOM     15  C   UNL     1      10.943  12.096  17.572  0.00  0.00    +0.000 A 
ATOM     16  C   UNL     1      10.024  12.331  18.605  0.00  0.00    +0.000 A 
ATOM     17  C   UNL     1       9.649  13.635  18.973  0.00  0.00    +0.000 A 
ENDROOT
BRANCH   1  22
ATOM     18  C   UNL     1       1.606  18.023  19.975  0.00  0.00    +0.000 C 
ATOM     19  C   UNL     1       2.840  17.203  20.172  0.00  0.00    +0.000 A 
ATOM     20  C   UNL     1       2.851  15.858  19.846  0.00  0.00    +0.000 A 
ATOM     21  C   UNL     1       4.030  15.127  19.970  0.00  0.00    +0.000 A 
ATOM     22  C   UNL     1       5.205  15.644  20.537  0.00  0.00    +0.000 A 
ATOM     23  C   UNL     1       5.148  17.001  20.898  0.00  0.00    +0.000 A 
ATOM     24  C   UNL     1       4.004  17.780  20.676  0.00  0.00    +0.000 A 
ENDBRANCH   1  22
BRANCH   3  25
ATOM     25  N   UNL     1       7.964  12.428  23.176  0.00  0.00    +0.000 N 
ATOM     26  H   UNL     1       8.133  12.913  24.052  0.00  0.00    +0.000 HD
ATOM     27  H   UNL     1       8.691  11.753  22.957  0.00  0.00    +0.000 HD
ENDBRANCH   3  25
BRANCH   2  28
ATOM     28  C   UNL     1       5.766  14.155  23.070  0.00  0.00    +0.000 C 
ATOM     29  N   UNL     1       5.043  14.181  23.977  0.00  0.00    +0.000 NA
ENDBRANCH   2  28
TORSDOF 3
ENDMDL
MODEL 8
REMARK VINA RESULT:      -6.8      9.463     12.886
REMARK  Name = 
REMARK  4 active torsions:
REMARK  status: ('A' for Active; 'I' for Inactive)
REMARK    1  A    between atoms: C_1  and  C_2
REMARK    2  A    between atoms: C_5  and  C_6
REMARK    3  A    between atoms: C_7  and  C_8
REMARK    4  A    between atoms: C_10  and  N_11
REMARK                            x       y       z     vdW  Elec       q    Type
REMARK                         _______ _______ _______ _____ _____    ______ ____
ROOT
ATOM      1  C   UNL     1      -3.059  12.529  19.745  0.00  0.00    +0.000 A 
ATOM      2  C   UNL     1      -3.734  11.887  18.670  0.00  0.00    +0.000 A 
ATOM      3  C   UNL     1      -5.116  11.679  18.736  0.00  0.00    +0.000 A 
ATOM      4  N   UNL     1      -5.869  12.087  19.772  0.00  0.00    +0.000 NA
ATOM      5  C   UNL     1      -5.272  12.748  20.789  0.00  0.00    +0.000 A 
ATOM      6  C   UNL     1      -3.869  12.966  20.841  0.00  0.00    +0.000 A 
ATOM      7  C   UNL     1      -3.331  13.634  22.098  0.00  0.00    +0.000 C 
ATOM      8  C   UNL     1      -3.514  15.151  22.160  0.00  0.00    +0.000 C 
ATOM      9  S   UNL     1      -5.149  15.716  21.780  0.00  0.00    +0.000 S 
ATOM     10  O   UNL     1      -5.356  16.930  22.560  0.00  0.00    +0.000 OA
ATOM     11  O   UNL     1      -5.322  15.733  20.349  0.00  0.00    +0.000 OA
ATOM     12  C   UNL     1      -6.188  14.455  22.452  0.00  0.00    +0.000 A 
ATOM     13  C   UNL     1      -6.964  14.778  23.576  0.00  0.00    +0.000 A 
ATOM     14  C   UNL     1      -7.781  13.815  24.146  0.00  0.00    +0.000 A 
ATOM     15  C   UNL     1      -7.846  12.546  23.575  0.00  0.00    +0.000 A 
ATOM     16  C   UNL     1      -7.065  12.229  22.455  0.00  0.00    +0.000 A 
ATOM     17  C   UNL     1      -6.191  13.167  21.879  0.00  0.00    +0.000 A 
ENDROOT
BRANCH   1  22
ATOM     18  C   UNL     1       2.738  13.348  19.646  0.00  0.00    +0.000 C 
ATOM     19  C   UNL     1       1.258  13.135  19.676  0.00  0.00    +0.000 A 
ATOM     20  C   UNL     1       0.395  14.134  19.261  0.00  0.00    +0.000 A 
ATOM     21  C   UNL     1      -0.977  13.892  19.230  0.00  0.00    +0.000 A 
ATOM     22  C   UNL     1      -1.568  12.718  19.722  0.00  0.00    +0.000 A 
ATOM     23  C   UNL     1      -0.665  11.740  20.176  0.00  0.00    +0.000 A 
ATOM     24  C   UNL     1       0.723  11.924  20.110  0.00  0.00    +0.000 A 
ENDBRANCH   1  22
BRANCH   3  25
ATOM     25  N   UNL     1      -5.804  10.933  17.778  0.00  0.00    +0.000 N 
ATOM     26  H   UNL     1      -5.306  10.116  17.434  0.00  0.00    +0.000 HD
ATOM     27  H   UNL     1      -6.098  11.554  17.030  0.00  0.00    +0.000 HD
ENDBRANCH   3  25
BRANCH   2  28
ATOM     28  C   UNL     1      -3.069  11.437  17.475  0.00  0.00    +0.000 C 
ATOM     29  N   UNL     1      -2.534  11.040  16.525  0.00  0.00    +0.000 NA
ENDBRANCH   2  28
TORSDOF 3
ENDMDL
MODEL 9
REMARK VINA RESULT:      -6.7      8.229     10.308
REMARK  Name = 
REMARK  4 active torsions:
REMARK  status: ('A' for Active; 'I' for Inactive)
REMARK    1  A    between atoms: C_1  and  C_2
REMARK    2  A    between atoms: C_5  and  C_6
REMARK    3  A    between atoms: C_7  and  C_8
REMARK    4  A    between atoms: C_10  and  N_11
REMARK                            x       y       z     vdW  Elec       q    Type
REMARK                         _______ _______ _______ _____ _____    ______ ____
ROOT
ATOM      1  C   UNL     1      -1.414  13.932  21.111  0.00  0.00    +0.000 A 
ATOM      2  C   UNL     1      -2.433  13.742  22.085  0.00  0.00    +0.000 A 
ATOM      3  C   UNL     1      -3.506  12.885  21.818  0.00  0.00    +0.000 A 
ATOM      4  N   UNL     1      -3.620  12.189  20.674  0.00  0.00    +0.000 NA
ATOM      5  C   UNL     1      -2.644  12.301  19.745  0.00  0.00    +0.000 A 
ATOM      6  C   UNL     1      -1.539  13.182  19.898  0.00  0.00    +0.000 A 
ATOM      7  C   UNL     1      -0.578  13.276  18.722  0.00  0.00    +0.000 C 
ATOM      8  C   UNL     1       0.425  12.127  18.605  0.00  0.00    +0.000 C 
ATOM      9  S   UNL     1      -0.286  10.509  18.728  0.00  0.00    +0.000 S 
ATOM     10  O   UNL     1       0.539   9.635  17.903  0.00  0.00    +0.000 OA
ATOM     11  O   UNL     1      -0.513  10.197  20.116  0.00  0.00    +0.000 OA
ATOM     12  C   UNL     1      -1.854  10.686  17.932  0.00  0.00    +0.000 A 
ATOM     13  C   UNL     1      -2.038  10.041  16.699  0.00  0.00    +0.000 A 
ATOM     14  C   UNL     1      -3.246  10.166  16.032  0.00  0.00    +0.000 A 
ATOM     15  C   UNL     1      -4.276  10.905  16.611  0.00  0.00    +0.000 A 
ATOM     16  C   UNL     1      -4.084  11.551  17.841  0.00  0.00    +0.000 A 
ATOM     17  C   UNL     1      -2.855  11.483  18.523  0.00  0.00    +0.000 A 
ENDROOT
BRANCH   1  22
ATOM     18  C   UNL     1       3.063  17.586  22.052  0.00  0.00    +0.000 C 
ATOM     19  C   UNL     1       1.917  16.656  21.807  0.00  0.00    +0.000 A 
ATOM     20  C   UNL     1       2.056  15.297  22.023  0.00  0.00    +0.000 A 
ATOM     21  C   UNL     1       0.958  14.456  21.857  0.00  0.00    +0.000 A 
ATOM     22  C   UNL     1      -0.278  14.887  21.351  0.00  0.00    +0.000 A 
ATOM     23  C   UNL     1      -0.373  16.267  21.101  0.00  0.00    +0.000 A 
ATOM     24  C   UNL     1       0.688  17.144  21.368  0.00  0.00    +0.000 A 
ENDBRANCH   1  22
BRANCH   3  25
ATOM     25  N   UNL     1      -4.600  12.771  22.677  0.00  0.00    +0.000 N 
ATOM     26  H   UNL     1      -4.418  12.259  23.535  0.00  0.00    +0.000 HD
ATOM     27  H   UNL     1      -5.386  12.393  22.157  0.00  0.00    +0.000 HD
ENDBRANCH   3  25
BRANCH   2  28
ATOM     28  C   UNL     1      -2.423  14.384  23.374  0.00  0.00    +0.000 C 
ATOM     29  N   UNL     1      -2.441  14.876  24.425  0.00  0.00    +0.000 NA
ENDBRANCH   2  28
TORSDOF 3
ENDMDL
