MODEL 1
REMARK VINA RESULT:      -7.7      0.000      0.000
REMARK  Name = 
REMARK  14 active torsions:
REMARK  status: ('A' for Active; 'I' for Inactive)
REMARK    1  A    between atoms: C_1  and  C_2
REMARK    2  A    between atoms: C_2  and  N_3
REMARK    3  A    between atoms: N_3  and  C_4
REMARK    4  A    between atoms: N_3  and  C_6
REMARK    5  A    between atoms: C_4  and  C_5
REMARK    6  A    between atoms: C_6  and  C_7
REMARK    7  A    between atoms: C_7  and  C_8
REMARK    8  A    between atoms: C_8  and  N_9
REMARK    9  A    between atoms: N_9  and  C_10
REMARK   10  A    between atoms: C_10  and  C_11
REMARK   11  A    between atoms: C_15  and  O_16
REMARK   12  A    between atoms: O_16  and  C_17
REMARK   13  A    between atoms: C_22  and  O_23
REMARK   14  A    between atoms: N_26  and  C_27
REMARK                            x       y       z     vdW  Elec       q    Type
REMARK                         _______ _______ _______ _____ _____    ______ ____
ROOT
ATOM      1  N   UNL     1       3.616   5.445  17.871  0.00  0.00    +0.000 N 
ATOM      2  C   UNL     1       2.593   6.164  18.483  0.00  0.00    +0.000 C 
ATOM      3  O   UNL     1       1.571   5.581  18.846  0.00  0.00    +0.000 OA
ATOM      4  N   UNL     1       2.788   7.520  18.620  0.00  0.00    +0.000 N 
ATOM      5  H   UNL     1       3.536   7.936  18.089  0.00  0.00    +0.000 HD
ENDROOT
BRANCH   4   6
ATOM      6  C   UNL     1       1.850   8.423  19.177  0.00  0.00    +0.000 A 
ATOM      7  C   UNL     1       1.207   9.420  18.431  0.00  0.00    +0.000 A 
ATOM      8  C   UNL     1       0.369  10.352  19.049  0.00  0.00    +0.000 A 
ATOM      9  C   UNL     1       0.153  10.272  20.416  0.00  0.00    +0.000 A 
ATOM     10  F   UNL     1      -0.626  11.183  21.015  0.00  0.00    +0.000 F 
ATOM     11  C   UNL     1       0.737   9.260  21.167  0.00  0.00    +0.000 A 
ATOM     12  C   UNL     1       1.581   8.331  20.549  0.00  0.00    +0.000 A 
ENDBRANCH   4   6
BRANCH   1  13
ATOM     13  C   UNL     1       3.361   4.021  17.626  0.00  0.00    +0.000 C 
BRANCH  13  14
ATOM     14  C   UNL     1       4.219   3.062  18.477  0.00  0.00    +0.000 C 
BRANCH  14  15
ATOM     15  C   UNL     1       3.837   2.969  19.963  0.00  0.00    +0.000 C 
BRANCH  15  16
ATOM     16  N   UNL     1       2.684   2.103  20.264  0.00  0.00    +0.000 NA
BRANCH  16  18
ATOM     17  C   UNL     1       2.192   4.087  21.722  0.00  0.00    +0.000 C 
ATOM     18  C   UNL     1       1.830   2.660  21.326  0.00  0.00    +0.000 C 
ENDBRANCH  16  18
BRANCH  16  19
ATOM     19  C   UNL     1       1.949   1.744  19.036  0.00  0.00    +0.000 C 
ATOM     20  C   UNL     1       0.533   2.299  18.885  0.00  0.00    +0.000 C 
ENDBRANCH  16  19
ENDBRANCH  15  16
ENDBRANCH  14  15
ENDBRANCH  13  14
ENDBRANCH   1  13
BRANCH   1  21
ATOM     21  C   UNL     1       4.983   5.935  17.624  0.00  0.00    +0.000 C 
BRANCH  21  22
ATOM     22  C   UNL     1       5.587   5.571  16.288  0.00  0.00    +0.000 A 
ATOM     23  C   UNL     1       4.927   4.882  15.267  0.00  0.00    +0.000 A 
ATOM     24  C   UNL     1       5.620   4.490  14.101  0.00  0.00    +0.000 A 
ATOM     25  C   UNL     1       5.018   3.711  13.092  0.00  0.00    +0.000 A 
ATOM     26  C   UNL     1       5.752   3.260  11.991  0.00  0.00    +0.000 A 
ATOM     27  C   UNL     1       7.090   3.625  11.878  0.00  0.00    +0.000 A 
ATOM     28  C   UNL     1       7.677   4.430  12.864  0.00  0.00    +0.000 A 
ATOM     29  C   UNL     1       6.972   4.864  13.978  0.00  0.00    +0.000 A 
ATOM     30  N   UNL     1       7.603   5.593  14.912  0.00  0.00    +0.000 NA
ATOM     31  C   UNL     1       6.904   5.909  16.016  0.00  0.00    +0.000 A 
BRANCH  26  32
ATOM     32  O   UNL     1       5.059   2.472  11.116  0.00  0.00    +0.000 OA
ATOM     33  C   UNL     1       3.719   2.849  10.824  0.00  0.00    +0.000 C 
ENDBRANCH  26  32
BRANCH  31  34
ATOM     34  O   UNL     1       7.650   6.592  16.920  0.00  0.00    +0.000 OA
ATOM     35  H   UNL     1       8.304   5.901  17.140  0.00  0.00    +0.000 HD
ENDBRANCH  31  34
ENDBRANCH  21  22
ENDBRANCH   1  21
TORSDOF 11
ENDMDL
MODEL 2
REMARK VINA RESULT:      -7.6      0.600      1.301
REMARK  Name = 
REMARK  14 active torsions:
REMARK  status: ('A' for Active; 'I' for Inactive)
REMARK    1  A    between atoms: C_1  and  C_2
REMARK    2  A    between atoms: C_2  and  N_3
REMARK    3  A    between atoms: N_3  and  C_4
REMARK    4  A    between atoms: N_3  and  C_6
REMARK    5  A    between atoms: C_4  and  C_5
REMARK    6  A    between atoms: C_6  and  C_7
REMARK    7  A    between atoms: C_7  and  C_8
REMARK    8  A    between atoms: C_8  and  N_9
REMARK    9  A    between atoms: N_9  and  C_10
REMARK   10  A    between atoms: C_10  and  C_11
REMARK   11  A    between atoms: C_15  and  O_16
REMARK   12  A    between atoms: O_16  and  C_17
REMARK   13  A    between atoms: C_22  and  O_23
REMARK   14  A    between atoms: N_26  and  C_27
REMARK                            x       y       z     vdW  Elec       q    Type
REMARK                         _______ _______ _______ _____ _____    ______ ____
ROOT
ATOM      1  N   UNL     1       3.852   5.645  17.787  0.00  0.00    +0.000 N 
ATOM      2  C   UNL     1       2.778   6.305  18.380  0.00  0.00    +0.000 C 
ATOM      3  O   UNL     1       1.862   5.652  18.880  0.00  0.00    +0.000 OA
ATOM      4  N   UNL     1       2.803   7.681  18.342  0.00  0.00    +0.000 N 
ATOM      5  H   UNL     1       3.460   8.115  17.715  0.00  0.00    +0.000 HD
ENDROOT
BRANCH   4   6
ATOM      6  C   UNL     1       1.787   8.526  18.852  0.00  0.00    +0.000 A 
ATOM      7  C   UNL     1       1.057   9.418  18.055  0.00  0.00    +0.000 A 
ATOM      8  C   UNL     1       0.138  10.303  18.624  0.00  0.00    +0.000 A 
ATOM      9  C   UNL     1      -0.071  10.279  19.994  0.00  0.00    +0.000 A 
ATOM     10  F   UNL     1      -0.929  11.148  20.545  0.00  0.00    +0.000 F 
ATOM     11  C   UNL     1       0.601   9.367  20.798  0.00  0.00    +0.000 A 
ATOM     12  C   UNL     1       1.525   8.485  20.229  0.00  0.00    +0.000 A 
ENDBRANCH   4   6
BRANCH   1  13
ATOM     13  C   UNL     1       3.771   4.181  17.731  0.00  0.00    +0.000 C 
BRANCH  13  14
ATOM     14  C   UNL     1       4.775   3.450  18.647  0.00  0.00    +0.000 C 
BRANCH  14  15
ATOM     15  C   UNL     1       4.164   2.434  19.625  0.00  0.00    +0.000 C 
BRANCH  15  16
ATOM     16  N   UNL     1       2.734   2.624  19.919  0.00  0.00    +0.000 NA
BRANCH  16  18
ATOM     17  C   UNL     1       0.571   2.273  18.692  0.00  0.00    +0.000 C 
ATOM     18  C   UNL     1       1.882   1.671  19.187  0.00  0.00    +0.000 C 
ENDBRANCH  16  18
BRANCH  16  19
ATOM     19  C   UNL     1       2.485   2.648  21.374  0.00  0.00    +0.000 C 
ATOM     20  C   UNL     1       2.170   4.004  22.003  0.00  0.00    +0.000 C 
ENDBRANCH  16  19
ENDBRANCH  15  16
ENDBRANCH  14  15
ENDBRANCH  13  14
ENDBRANCH   1  13
BRANCH   1  21
ATOM     21  C   UNL     1       5.129   6.265  17.390  0.00  0.00    +0.000 C 
BRANCH  21  22
ATOM     22  C   UNL     1       5.728   5.774  16.093  0.00  0.00    +0.000 A 
ATOM     23  C   UNL     1       5.080   4.952  15.166  0.00  0.00    +0.000 A 
ATOM     24  C   UNL     1       5.771   4.457  14.040  0.00  0.00    +0.000 A 
ATOM     25  C   UNL     1       5.185   3.549  13.134  0.00  0.00    +0.000 A 
ATOM     26  C   UNL     1       5.920   3.003  12.078  0.00  0.00    +0.000 A 
ATOM     27  C   UNL     1       7.242   3.400  11.902  0.00  0.00    +0.000 A 
ATOM     28  C   UNL     1       7.812   4.332  12.781  0.00  0.00    +0.000 A 
ATOM     29  C   UNL     1       7.107   4.863  13.852  0.00  0.00    +0.000 A 
ATOM     30  N   UNL     1       7.722   5.713  14.687  0.00  0.00    +0.000 NA
ATOM     31  C   UNL     1       7.027   6.126  15.761  0.00  0.00    +0.000 A 
BRANCH  26  32
ATOM     32  O   UNL     1       5.245   2.098  11.308  0.00  0.00    +0.000 OA
ATOM     33  C   UNL     1       5.944   0.917  10.932  0.00  0.00    +0.000 C 
ENDBRANCH  26  32
BRANCH  31  34
ATOM     34  O   UNL     1       7.760   6.932  16.570  0.00  0.00    +0.000 OA
ATOM     35  H   UNL     1       7.398   6.660  17.436  0.00  0.00    +0.000 HD
ENDBRANCH  31  34
ENDBRANCH  21  22
ENDBRANCH   1  21
TORSDOF 11
ENDMDL
MODEL 3
REMARK VINA RESULT:      -7.6      4.228      7.952
REMARK  Name = 
REMARK  14 active torsions:
REMARK  status: ('A' for Active; 'I' for Inactive)
REMARK    1  A    between atoms: C_1  and  C_2
REMARK    2  A    between atoms: C_2  and  N_3
REMARK    3  A    between atoms: N_3  and  C_4
REMARK    4  A    between atoms: N_3  and  C_6
REMARK    5  A    between atoms: C_4  and  C_5
REMARK    6  A    between atoms: C_6  and  C_7
REMARK    7  A    between atoms: C_7  and  C_8
REMARK    8  A    between atoms: C_8  and  N_9
REMARK    9  A    between atoms: N_9  and  C_10
REMARK   10  A    between atoms: C_10  and  C_11
REMARK   11  A    between atoms: C_15  and  O_16
REMARK   12  A    between atoms: O_16  and  C_17
REMARK   13  A    between atoms: C_22  and  O_23
REMARK   14  A    between atoms: N_26  and  C_27
REMARK                            x       y       z     vdW  Elec       q    Type
REMARK                         _______ _______ _______ _____ _____    ______ ____
ROOT
ATOM      1  N   UNL     1       0.805  10.809  20.599  0.00  0.00    +0.000 N 
ATOM      2  C   UNL     1       1.405  12.049  20.400  0.00  0.00    +0.000 C 
ATOM      3  O   UNL     1       1.978  12.607  21.336  0.00  0.00    +0.000 OA
ATOM      4  N   UNL     1       1.292  12.594  19.140  0.00  0.00    +0.000 N 
ATOM      5  H   UNL     1       0.616  12.184  18.518  0.00  0.00    +0.000 HD
ENDROOT
BRANCH   4   6
ATOM      6  C   UNL     1       1.799  13.860  18.754  0.00  0.00    +0.000 A 
ATOM      7  C   UNL     1       1.103  15.059  18.954  0.00  0.00    +0.000 A 
ATOM      8  C   UNL     1       1.600  16.269  18.462  0.00  0.00    +0.000 A 
ATOM      9  C   UNL     1       2.811  16.283  17.788  0.00  0.00    +0.000 A 
ATOM     10  F   UNL     1       3.274  17.436  17.288  0.00  0.00    +0.000 F 
ATOM     11  C   UNL     1       3.545  15.115  17.624  0.00  0.00    +0.000 A 
ATOM     12  C   UNL     1       3.044  13.903  18.112  0.00  0.00    +0.000 A 
ENDBRANCH   4   6
BRANCH   1  13
ATOM     13  C   UNL     1       0.831  10.282  21.968  0.00  0.00    +0.000 C 
BRANCH  13  14
ATOM     14  C   UNL     1      -0.557   9.933  22.545  0.00  0.00    +0.000 C 
BRANCH  14  15
ATOM     15  C   UNL     1      -1.316  11.097  23.201  0.00  0.00    +0.000 C 
BRANCH  15  16
ATOM     16  N   UNL     1      -1.382  12.335  22.406  0.00  0.00    +0.000 NA
BRANCH  16  18
ATOM     17  C   UNL     1      -3.838  12.752  22.087  0.00  0.00    +0.000 C 
ATOM     18  C   UNL     1      -2.513  12.332  21.462  0.00  0.00    +0.000 C 
ENDBRANCH  16  18
BRANCH  16  19
ATOM     19  C   UNL     1      -1.332  13.530  23.270  0.00  0.00    +0.000 C 
ATOM     20  C   UNL     1      -0.443  14.685  22.810  0.00  0.00    +0.000 C 
ENDBRANCH  16  19
ENDBRANCH  15  16
ENDBRANCH  14  15
ENDBRANCH  13  14
ENDBRANCH   1  13
BRANCH   1  21
ATOM     21  C   UNL     1       0.321   9.908  19.539  0.00  0.00    +0.000 C 
BRANCH  21  22
ATOM     22  C   UNL     1       1.324   8.911  19.007  0.00  0.00    +0.000 A 
ATOM     23  C   UNL     1       1.548   7.635  19.531  0.00  0.00    +0.000 A 
ATOM     24  C   UNL     1       2.590   6.826  19.031  0.00  0.00    +0.000 A 
ATOM     25  C   UNL     1       2.911   5.574  19.594  0.00  0.00    +0.000 A 
ATOM     26  C   UNL     1       4.006   4.834  19.138  0.00  0.00    +0.000 A 
ATOM     27  C   UNL     1       4.763   5.332  18.082  0.00  0.00    +0.000 A 
ATOM     28  C   UNL     1       4.420   6.559  17.498  0.00  0.00    +0.000 A 
ATOM     29  C   UNL     1       3.354   7.322  17.955  0.00  0.00    +0.000 A 
ATOM     30  N   UNL     1       3.105   8.511  17.387  0.00  0.00    +0.000 NA
ATOM     31  C   UNL     1       2.122   9.253  17.926  0.00  0.00    +0.000 A 
BRANCH  26  32
ATOM     32  O   UNL     1       4.234   3.665  19.807  0.00  0.00    +0.000 OA
ATOM     33  C   UNL     1       3.098   2.973  20.311  0.00  0.00    +0.000 C 
ENDBRANCH  26  32
BRANCH  31  34
ATOM     34  O   UNL     1       1.994  10.459  17.317  0.00  0.00    +0.000 OA
ATOM     35  H   UNL     1       1.137  10.320  16.870  0.00  0.00    +0.000 HD
ENDBRANCH  31  34
ENDBRANCH  21  22
ENDBRANCH   1  21
TORSDOF 11
ENDMDL
MODEL 4
REMARK VINA RESULT:      -7.5      4.819     11.188
REMARK  Name = 
REMARK  14 active torsions:
REMARK  status: ('A' for Active; 'I' for Inactive)
REMARK    1  A    between atoms: C_1  and  C_2
REMARK    2  A    between atoms: C_2  and  N_3
REMARK    3  A    between atoms: N_3  and  C_4
REMARK    4  A    between atoms: N_3  and  C_6
REMARK    5  A    between atoms: C_4  and  C_5
REMARK    6  A    between atoms: C_6  and  C_7
REMARK    7  A    between atoms: C_7  and  C_8
REMARK    8  A    between atoms: C_8  and  N_9
REMARK    9  A    between atoms: N_9  and  C_10
REMARK   10  A    between atoms: C_10  and  C_11
REMARK   11  A    between atoms: C_15  and  O_16
REMARK   12  A    between atoms: O_16  and  C_17
REMARK   13  A    between atoms: C_22  and  O_23
REMARK   14  A    between atoms: N_26  and  C_27
REMARK                            x       y       z     vdW  Elec       q    Type
REMARK                         _______ _______ _______ _____ _____    ______ ____
ROOT
ATOM      1  N   UNL     1       0.754   9.790  19.358  0.00  0.00    +0.000 N 
ATOM      2  C   UNL     1       1.445   8.928  18.510  0.00  0.00    +0.000 C 
ATOM      3  O   UNL     1       1.389   9.095  17.292  0.00  0.00    +0.000 OA
ATOM      4  N   UNL     1       2.144   7.903  19.109  0.00  0.00    +0.000 N 
ATOM      5  H   UNL     1       1.941   7.709  20.076  0.00  0.00    +0.000 HD
ENDROOT
BRANCH   4   6
ATOM      6  C   UNL     1       2.872   6.905  18.418  0.00  0.00    +0.000 A 
ATOM      7  C   UNL     1       4.027   7.175  17.672  0.00  0.00    +0.000 A 
ATOM      8  C   UNL     1       4.650   6.173  16.923  0.00  0.00    +0.000 A 
ATOM      9  C   UNL     1       4.129   4.888  16.939  0.00  0.00    +0.000 A 
ATOM     10  F   UNL     1       4.706   3.934  16.198  0.00  0.00    +0.000 F 
ATOM     11  C   UNL     1       3.016   4.585  17.713  0.00  0.00    +0.000 A 
ATOM     12  C   UNL     1       2.390   5.589  18.458  0.00  0.00    +0.000 A 
ENDBRANCH   4   6
BRANCH   1  13
ATOM     13  C   UNL     1      -0.078  10.813  18.714  0.00  0.00    +0.000 C 
BRANCH  13  14
ATOM     14  C   UNL     1      -1.548  10.398  18.497  0.00  0.00    +0.000 C 
BRANCH  14  15
ATOM     15  C   UNL     1      -2.024  10.378  17.036  0.00  0.00    +0.000 C 
BRANCH  15  16
ATOM     16  N   UNL     1      -3.158  11.266  16.730  0.00  0.00    +0.000 NA
BRANCH  16  18
ATOM     17  C   UNL     1      -3.008   9.910  14.622  0.00  0.00    +0.000 C 
ATOM     18  C   UNL     1      -3.744  10.989  15.407  0.00  0.00    +0.000 C 
ENDBRANCH  16  18
BRANCH  16  19
ATOM     19  C   UNL     1      -4.144  11.271  17.828  0.00  0.00    +0.000 C 
ATOM     20  C   UNL     1      -5.558  11.747  17.492  0.00  0.00    +0.000 C 
ENDBRANCH  16  19
ENDBRANCH  15  16
ENDBRANCH  14  15
ENDBRANCH  13  14
ENDBRANCH   1  13
BRANCH   1  21
ATOM     21  C   UNL     1       0.930   9.886  20.817  0.00  0.00    +0.000 C 
BRANCH  21  22
ATOM     22  C   UNL     1       0.300  11.087  21.483  0.00  0.00    +0.000 A 
ATOM     23  C   UNL     1      -0.922  11.083  22.162  0.00  0.00    +0.000 A 
ATOM     24  C   UNL     1      -1.476  12.286  22.649  0.00  0.00    +0.000 A 
ATOM     25  C   UNL     1      -2.749  12.341  23.253  0.00  0.00    +0.000 A 
ATOM     26  C   UNL     1      -3.313  13.558  23.645  0.00  0.00    +0.000 A 
ATOM     27  C   UNL     1      -2.580  14.728  23.469  0.00  0.00    +0.000 A 
ATOM     28  C   UNL     1      -1.299  14.668  22.903  0.00  0.00    +0.000 A 
ATOM     29  C   UNL     1      -0.734  13.472  22.482  0.00  0.00    +0.000 A 
ATOM     30  N   UNL     1       0.476  13.485  21.903  0.00  0.00    +0.000 NA
ATOM     31  C   UNL     1       0.940  12.316  21.427  0.00  0.00    +0.000 A 
BRANCH  26  32
ATOM     32  O   UNL     1      -4.572  13.472  24.168  0.00  0.00    +0.000 OA
ATOM     33  C   UNL     1      -4.930  12.249  24.802  0.00  0.00    +0.000 C 
ENDBRANCH  26  32
BRANCH  31  34
ATOM     34  O   UNL     1       2.140  12.451  20.809  0.00  0.00    +0.000 OA
ATOM     35  H   UNL     1       2.277  13.409  20.936  0.00  0.00    +0.000 HD
ENDBRANCH  31  34
ENDBRANCH  21  22
ENDBRANCH   1  21
TORSDOF 11
ENDMDL
MODEL 5
REMARK VINA RESULT:      -7.5      4.431     10.220
REMARK  Name = 
REMARK  14 active torsions:
REMARK  status: ('A' for Active; 'I' for Inactive)
REMARK    1  A    between atoms: C_1  and  C_2
REMARK    2  A    between atoms: C_2  and  N_3
REMARK    3  A    between atoms: N_3  and  C_4
REMARK    4  A    between atoms: N_3  and  C_6
REMARK    5  A    between atoms: C_4  and  C_5
REMARK    6  A    between atoms: C_6  and  C_7
REMARK    7  A    between atoms: C_7  and  C_8
REMARK    8  A    between atoms: C_8  and  N_9
REMARK    9  A    between atoms: N_9  and  C_10
REMARK   10  A    between atoms: C_10  and  C_11
REMARK   11  A    between atoms: C_15  and  O_16
REMARK   12  A    between atoms: O_16  and  C_17
REMARK   13  A    between atoms: C_22  and  O_23
REMARK   14  A    between atoms: N_26  and  C_27
REMARK                            x       y       z     vdW  Elec       q    Type
REMARK                         _______ _______ _______ _____ _____    ______ ____
ROOT
ATOM      1  N   UNL     1       0.982   9.206  20.576  0.00  0.00    +0.000 N 
ATOM      2  C   UNL     1       1.497   8.009  20.086  0.00  0.00    +0.000 C 
ATOM      3  O   UNL     1       1.326   6.967  20.719  0.00  0.00    +0.000 OA
ATOM      4  N   UNL     1       2.205   8.079  18.907  0.00  0.00    +0.000 N 
ATOM      5  H   UNL     1       2.491   8.991  18.592  0.00  0.00    +0.000 HD
ENDROOT
BRANCH   4   6
ATOM      6  C   UNL     1       2.837   6.981  18.274  0.00  0.00    +0.000 A 
ATOM      7  C   UNL     1       2.401   5.657  18.416  0.00  0.00    +0.000 A 
ATOM      8  C   UNL     1       3.121   4.598  17.855  0.00  0.00    +0.000 A 
ATOM      9  C   UNL     1       4.269   4.867  17.127  0.00  0.00    +0.000 A 
ATOM     10  F   UNL     1       4.977   3.852  16.614  0.00  0.00    +0.000 F 
ATOM     11  C   UNL     1       4.692   6.176  16.927  0.00  0.00    +0.000 A 
ATOM     12  C   UNL     1       3.974   7.234  17.494  0.00  0.00    +0.000 A 
ENDBRANCH   4   6
BRANCH   1  13
ATOM     13  C   UNL     1       0.325   9.149  21.887  0.00  0.00    +0.000 C 
BRANCH  13  14
ATOM     14  C   UNL     1       0.164  10.517  22.582  0.00  0.00    +0.000 C 
BRANCH  14  15
ATOM     15  C   UNL     1      -1.245  10.834  23.108  0.00  0.00    +0.000 C 
BRANCH  15  16
ATOM     16  N   UNL     1      -1.549  12.265  23.272  0.00  0.00    +0.000 NA
BRANCH  16  18
ATOM     17  C   UNL     1      -0.836  14.615  22.750  0.00  0.00    +0.000 C 
ATOM     18  C   UNL     1      -0.615  13.124  22.524  0.00  0.00    +0.000 C 
ENDBRANCH  16  18
BRANCH  16  19
ATOM     19  C   UNL     1      -2.970  12.546  22.991  0.00  0.00    +0.000 C 
ATOM     20  C   UNL     1      -3.948  12.427  24.161  0.00  0.00    +0.000 C 
ENDBRANCH  16  19
ENDBRANCH  15  16
ENDBRANCH  14  15
ENDBRANCH  13  14
ENDBRANCH   1  13
BRANCH   1  21
ATOM     21  C   UNL     1       0.873  10.468  19.823  0.00  0.00    +0.000 C 
BRANCH  21  22
ATOM     22  C   UNL     1      -0.428  10.690  19.089  0.00  0.00    +0.000 A 
ATOM     23  C   UNL     1      -1.509  11.433  19.572  0.00  0.00    +0.000 A 
ATOM     24  C   UNL     1      -2.724  11.484  18.855  0.00  0.00    +0.000 A 
ATOM     25  C   UNL     1      -3.868  12.140  19.353  0.00  0.00    +0.000 A 
ATOM     26  C   UNL     1      -5.084  12.097  18.665  0.00  0.00    +0.000 A 
ATOM     27  C   UNL     1      -5.146  11.427  17.447  0.00  0.00    +0.000 A 
ATOM     28  C   UNL     1      -3.998  10.806  16.935  0.00  0.00    +0.000 A 
ATOM     29  C   UNL     1      -2.789  10.813  17.617  0.00  0.00    +0.000 A 
ATOM     30  N   UNL     1      -1.738  10.160  17.099  0.00  0.00    +0.000 NA
ATOM     31  C   UNL     1      -0.618  10.117  17.841  0.00  0.00    +0.000 A 
BRANCH  26  32
ATOM     32  O   UNL     1      -6.123  12.732  19.285  0.00  0.00    +0.000 OA
ATOM     33  C   UNL     1      -6.028  12.909  20.694  0.00  0.00    +0.000 C 
ENDBRANCH  26  32
BRANCH  31  34
ATOM     34  O   UNL     1       0.361   9.383  17.254  0.00  0.00    +0.000 OA
ATOM     35  H   UNL     1       1.040  10.077  17.153  0.00  0.00    +0.000 HD
ENDBRANCH  31  34
ENDBRANCH  21  22
ENDBRANCH   1  21
TORSDOF 11
ENDMDL
MODEL 6
REMARK VINA RESULT:      -7.4      4.783     11.183
REMARK  Name = 
REMARK  14 active torsions:
REMARK  status: ('A' for Active; 'I' for Inactive)
REMARK    1  A    between atoms: C_1  and  C_2
REMARK    2  A    between atoms: C_2  and  N_3
REMARK    3  A    between atoms: N_3  and  C_4
REMARK    4  A    between atoms: N_3  and  C_6
REMARK    5  A    between atoms: C_4  and  C_5
REMARK    6  A    between atoms: C_6  and  C_7
REMARK    7  A    between atoms: C_7  and  C_8
REMARK    8  A    between atoms: C_8  and  N_9
REMARK    9  A    between atoms: N_9  and  C_10
REMARK   10  A    between atoms: C_10  and  C_11
REMARK   11  A    between atoms: C_15  and  O_16
REMARK   12  A    between atoms: O_16  and  C_17
REMARK   13  A    between atoms: C_22  and  O_23
REMARK   14  A    between atoms: N_26  and  C_27
REMARK                            x       y       z     vdW  Elec       q    Type
REMARK                         _______ _______ _______ _____ _____    ______ ____
ROOT
ATOM      1  N   UNL     1       0.860   9.791  19.360  0.00  0.00    +0.000 N 
ATOM      2  C   UNL     1       1.532   8.920  18.507  0.00  0.00    +0.000 C 
ATOM      3  O   UNL     1       1.468   9.089  17.289  0.00  0.00    +0.000 OA
ATOM      4  N   UNL     1       2.220   7.884  19.099  0.00  0.00    +0.000 N 
ATOM      5  H   UNL     1       2.023   7.692  20.067  0.00  0.00    +0.000 HD
ENDROOT
BRANCH   4   6
ATOM      6  C   UNL     1       2.929   6.876  18.401  0.00  0.00    +0.000 A 
ATOM      7  C   UNL     1       4.086   7.129  17.653  0.00  0.00    +0.000 A 
ATOM      8  C   UNL     1       4.689   6.120  16.898  0.00  0.00    +0.000 A 
ATOM      9  C   UNL     1       4.146   4.845  16.910  0.00  0.00    +0.000 A 
ATOM     10  F   UNL     1       4.704   3.883  16.163  0.00  0.00    +0.000 F 
ATOM     11  C   UNL     1       3.030   4.557  17.686  0.00  0.00    +0.000 A 
ATOM     12  C   UNL     1       2.424   5.570  18.438  0.00  0.00    +0.000 A 
ENDBRANCH   4   6
BRANCH   1  13
ATOM     13  C   UNL     1       0.038  10.827  18.724  0.00  0.00    +0.000 C 
BRANCH  13  14
ATOM     14  C   UNL     1      -1.421  10.405  18.449  0.00  0.00    +0.000 C 
BRANCH  14  15
ATOM     15  C   UNL     1      -2.465  11.530  18.532  0.00  0.00    +0.000 C 
BRANCH  15  16
ATOM     16  N   UNL     1      -3.804  11.185  18.027  0.00  0.00    +0.000 NA
BRANCH  16  18
ATOM     17  C   UNL     1      -4.375  12.644  19.989  0.00  0.00    +0.000 C 
ATOM     18  C   UNL     1      -4.879  11.767  18.849  0.00  0.00    +0.000 C 
ENDBRANCH  16  18
BRANCH  16  19
ATOM     19  C   UNL     1      -3.927  11.487  16.587  0.00  0.00    +0.000 C 
ATOM     20  C   UNL     1      -3.596  10.360  15.609  0.00  0.00    +0.000 C 
ENDBRANCH  16  19
ENDBRANCH  15  16
ENDBRANCH  14  15
ENDBRANCH  13  14
ENDBRANCH   1  13
BRANCH   1  21
ATOM     21  C   UNL     1       1.049   9.883  20.819  0.00  0.00    +0.000 C 
BRANCH  21  22
ATOM     22  C   UNL     1       0.321  11.011  21.511  0.00  0.00    +0.000 A 
ATOM     23  C   UNL     1      -0.883  10.885  22.210  0.00  0.00    +0.000 A 
ATOM     24  C   UNL     1      -1.538  12.024  22.723  0.00  0.00    +0.000 A 
ATOM     25  C   UNL     1      -2.800  11.952  23.349  0.00  0.00    +0.000 A 
ATOM     26  C   UNL     1      -3.468  13.107  23.766  0.00  0.00    +0.000 A 
ATOM     27  C   UNL     1      -2.851  14.342  23.594  0.00  0.00    +0.000 A 
ATOM     28  C   UNL     1      -1.580  14.409  23.006  0.00  0.00    +0.000 A 
ATOM     29  C   UNL     1      -0.914  13.277  22.559  0.00  0.00    +0.000 A 
ATOM     30  N   UNL     1       0.280  13.410  21.960  0.00  0.00    +0.000 NA
ATOM     31  C   UNL     1       0.842  12.295  21.461  0.00  0.00    +0.000 A 
BRANCH  26  32
ATOM     32  O   UNL     1      -4.704  12.897  24.309  0.00  0.00    +0.000 OA
ATOM     33  C   UNL     1      -5.808  13.533  23.676  0.00  0.00    +0.000 C 
ENDBRANCH  26  32
BRANCH  31  34
ATOM     34  O   UNL     1       2.013  12.549  20.825  0.00  0.00    +0.000 OA
ATOM     35  H   UNL     1       1.923  13.515  20.706  0.00  0.00    +0.000 HD
ENDBRANCH  31  34
ENDBRANCH  21  22
ENDBRANCH   1  21
TORSDOF 11
ENDMDL
MODEL 7
REMARK VINA RESULT:      -7.4      4.404      8.065
REMARK  Name = 
REMARK  14 active torsions:
REMARK  status: ('A' for Active; 'I' for Inactive)
REMARK    1  A    between atoms: C_1  and  C_2
REMARK    2  A    between atoms: C_2  and  N_3
REMARK    3  A    between atoms: N_3  and  C_4
REMARK    4  A    between atoms: N_3  and  C_6
REMARK    5  A    between atoms: C_4  and  C_5
REMARK    6  A    between atoms: C_6  and  C_7
REMARK    7  A    between atoms: C_7  and  C_8
REMARK    8  A    between atoms: C_8  and  N_9
REMARK    9  A    between atoms: N_9  and  C_10
REMARK   10  A    between atoms: C_10  and  C_11
REMARK   11  A    between atoms: C_15  and  O_16
REMARK   12  A    between atoms: O_16  and  C_17
REMARK   13  A    between atoms: C_22  and  O_23
REMARK   14  A    between atoms: N_26  and  C_27
REMARK                            x       y       z     vdW  Elec       q    Type
REMARK                         _______ _______ _______ _____ _____    ______ ____
ROOT
ATOM      1  N   UNL     1       0.648  10.908  20.736  0.00  0.00    +0.000 N 
ATOM      2  C   UNL     1       1.338  12.086  20.464  0.00  0.00    +0.000 C 
ATOM      3  O   UNL     1       1.928  12.671  21.373  0.00  0.00    +0.000 OA
ATOM      4  N   UNL     1       1.291  12.543  19.166  0.00  0.00    +0.000 N 
ATOM      5  H   UNL     1       0.601  12.135  18.557  0.00  0.00    +0.000 HD
ENDROOT
BRANCH   4   6
ATOM      6  C   UNL     1       1.894  13.739  18.704  0.00  0.00    +0.000 A 
ATOM      7  C   UNL     1       3.186  13.788  18.163  0.00  0.00    +0.000 A 
ATOM      8  C   UNL     1       3.775  15.008  17.818  0.00  0.00    +0.000 A 
ATOM      9  C   UNL     1       3.059  16.182  17.992  0.00  0.00    +0.000 A 
ATOM     10  F   UNL     1       3.632  17.354  17.691  0.00  0.00    +0.000 F 
ATOM     11  C   UNL     1       1.757  16.153  18.476  0.00  0.00    +0.000 A 
ATOM     12  C   UNL     1       1.170  14.932  18.826  0.00  0.00    +0.000 A 
ENDBRANCH   4   6
BRANCH   1  13
ATOM     13  C   UNL     1       0.606  10.482  22.139  0.00  0.00    +0.000 C 
BRANCH  13  14
ATOM     14  C   UNL     1      -0.793  10.545  22.785  0.00  0.00    +0.000 C 
BRANCH  14  15
ATOM     15  C   UNL     1      -1.424  11.944  22.871  0.00  0.00    +0.000 C 
BRANCH  15  16
ATOM     16  N   UNL     1      -2.890  11.985  22.732  0.00  0.00    +0.000 NA
BRANCH  16  18
ATOM     17  C   UNL     1      -3.423  13.826  24.353  0.00  0.00    +0.000 C 
ATOM     18  C   UNL     1      -3.560  12.352  23.990  0.00  0.00    +0.000 C 
ENDBRANCH  16  18
BRANCH  16  19
ATOM     19  C   UNL     1      -3.295  12.811  21.578  0.00  0.00    +0.000 C 
ATOM     20  C   UNL     1      -2.346  12.848  20.381  0.00  0.00    +0.000 C 
ENDBRANCH  16  19
ENDBRANCH  15  16
ENDBRANCH  14  15
ENDBRANCH  13  14
ENDBRANCH   1  13
BRANCH   1  21
ATOM     21  C   UNL     1       0.125   9.966  19.731  0.00  0.00    +0.000 C 
BRANCH  21  22
ATOM     22  C   UNL     1       1.102   8.934  19.218  0.00  0.00    +0.000 A 
ATOM     23  C   UNL     1       1.335   7.686  19.802  0.00  0.00    +0.000 A 
ATOM     24  C   UNL     1       2.354   6.842  19.310  0.00  0.00    +0.000 A 
ATOM     25  C   UNL     1       2.686   5.619  19.928  0.00  0.00    +0.000 A 
ATOM     26  C   UNL     1       3.759   4.846  19.475  0.00  0.00    +0.000 A 
ATOM     27  C   UNL     1       4.481   5.280  18.367  0.00  0.00    +0.000 A 
ATOM     28  C   UNL     1       4.126   6.477  17.730  0.00  0.00    +0.000 A 
ATOM     29  C   UNL     1       3.082   7.272  18.183  0.00  0.00    +0.000 A 
ATOM     30  N   UNL     1       2.821   8.432  17.560  0.00  0.00    +0.000 NA
ATOM     31  C   UNL     1       1.863   9.210  18.093  0.00  0.00    +0.000 A 
BRANCH  26  32
ATOM     32  O   UNL     1       4.002   3.712  20.197  0.00  0.00    +0.000 OA
ATOM     33  C   UNL     1       4.264   2.520  19.465  0.00  0.00    +0.000 C 
ENDBRANCH  26  32
BRANCH  31  34
ATOM     34  O   UNL     1       1.722  10.383  17.425  0.00  0.00    +0.000 OA
ATOM     35  H   UNL     1       2.451  10.888  17.834  0.00  0.00    +0.000 HD
ENDBRANCH  31  34
ENDBRANCH  21  22
ENDBRANCH   1  21
TORSDOF 11
ENDMDL
MODEL 8
REMARK VINA RESULT:      -7.4      4.523      8.177
REMARK  Name = 
REMARK  14 active torsions:
REMARK  status: ('A' for Active; 'I' for Inactive)
REMARK    1  A    between atoms: C_1  and  C_2
REMARK    2  A    between atoms: C_2  and  N_3
REMARK    3  A    between atoms: N_3  and  C_4
REMARK    4  A    between atoms: N_3  and  C_6
REMARK    5  A    between atoms: C_4  and  C_5
REMARK    6  A    between atoms: C_6  and  C_7
REMARK    7  A    between atoms: C_7  and  C_8
REMARK    8  A    between atoms: C_8  and  N_9
REMARK    9  A    between atoms: N_9  and  C_10
REMARK   10  A    between atoms: C_10  and  C_11
REMARK   11  A    between atoms: C_15  and  O_16
REMARK   12  A    between atoms: O_16  and  C_17
REMARK   13  A    between atoms: C_22  and  O_23
REMARK   14  A    between atoms: N_26  and  C_27
REMARK                            x       y       z     vdW  Elec       q    Type
REMARK                         _______ _______ _______ _____ _____    ______ ____
ROOT
ATOM      1  N   UNL     1       0.084  11.161  19.557  0.00  0.00    +0.000 N 
ATOM      2  C   UNL     1       0.269  12.458  19.086  0.00  0.00    +0.000 C 
ATOM      3  O   UNL     1      -0.692  13.091  18.648  0.00  0.00    +0.000 OA
ATOM      4  N   UNL     1       1.556  12.949  19.120  0.00  0.00    +0.000 N 
ATOM      5  H   UNL     1       2.299  12.287  19.270  0.00  0.00    +0.000 HD
ENDROOT
BRANCH   4   6
ATOM      6  C   UNL     1       1.950  14.225  18.650  0.00  0.00    +0.000 A 
ATOM      7  C   UNL     1       1.218  15.394  18.895  0.00  0.00    +0.000 A 
ATOM      8  C   UNL     1       1.594  16.612  18.321  0.00  0.00    +0.000 A 
ATOM      9  C   UNL     1       2.722  16.665  17.519  0.00  0.00    +0.000 A 
ATOM     10  F   UNL     1       3.067  17.825  16.943  0.00  0.00    +0.000 F 
ATOM     11  C   UNL     1       3.495  15.530  17.304  0.00  0.00    +0.000 A 
ATOM     12  C   UNL     1       3.115  14.311  17.874  0.00  0.00    +0.000 A 
ENDBRANCH   4   6
BRANCH   1  13
ATOM     13  C   UNL     1      -1.265  10.601  19.419  0.00  0.00    +0.000 C 
BRANCH  13  14
ATOM     14  C   UNL     1      -1.510   9.844  18.096  0.00  0.00    +0.000 C 
BRANCH  14  15
ATOM     15  C   UNL     1      -2.082  10.686  16.945  0.00  0.00    +0.000 C 
BRANCH  15  16
ATOM     16  N   UNL     1      -3.546  10.632  16.791  0.00  0.00    +0.000 NA
BRANCH  16  18
ATOM     17  C   UNL     1      -5.576  12.063  17.160  0.00  0.00    +0.000 C 
ATOM     18  C   UNL     1      -4.238  11.567  17.695  0.00  0.00    +0.000 C 
ENDBRANCH  16  18
BRANCH  16  19
ATOM     19  C   UNL     1      -3.941  10.771  15.376  0.00  0.00    +0.000 C 
ATOM     20  C   UNL     1      -3.075  10.057  14.338  0.00  0.00    +0.000 C 
ENDBRANCH  16  19
ENDBRANCH  15  16
ENDBRANCH  14  15
ENDBRANCH  13  14
ENDBRANCH   1  13
BRANCH   1  21
ATOM     21  C   UNL     1       1.058  10.383  20.343  0.00  0.00    +0.000 C 
BRANCH  21  22
ATOM     22  C   UNL     1       1.521   9.085  19.725  0.00  0.00    +0.000 A 
ATOM     23  C   UNL     1       1.536   7.845  20.371  0.00  0.00    +0.000 A 
ATOM     24  C   UNL     1       2.097   6.714  19.742  0.00  0.00    +0.000 A 
ATOM     25  C   UNL     1       2.219   5.470  20.394  0.00  0.00    +0.000 A 
ATOM     26  C   UNL     1       2.860   4.390  19.780  0.00  0.00    +0.000 A 
ATOM     27  C   UNL     1       3.348   4.544  18.486  0.00  0.00    +0.000 A 
ATOM     28  C   UNL     1       3.193   5.770  17.824  0.00  0.00    +0.000 A 
ATOM     29  C   UNL     1       2.584   6.862  18.428  0.00  0.00    +0.000 A 
ATOM     30  N   UNL     1       2.508   8.024  17.761  0.00  0.00    +0.000 NA
ATOM     31  C   UNL     1       1.995   9.076  18.422  0.00  0.00    +0.000 A 
BRANCH  26  32
ATOM     32  O   UNL     1       2.954   3.261  20.544  0.00  0.00    +0.000 OA
ATOM     33  C   UNL     1       2.037   3.129  21.623  0.00  0.00    +0.000 C 
ENDBRANCH  26  32
BRANCH  31  34
ATOM     34  O   UNL     1       2.020  10.212  17.681  0.00  0.00    +0.000 OA
ATOM     35  H   UNL     1       2.640  10.740  18.220  0.00  0.00    +0.000 HD
ENDBRANCH  31  34
ENDBRANCH  21  22
ENDBRANCH   1  21
TORSDOF 11
ENDMDL
MODEL 9
REMARK VINA RESULT:      -7.2      4.524      8.130
REMARK  Name = 
REMARK  14 active torsions:
REMARK  status: ('A' for Active; 'I' for Inactive)
REMARK    1  A    between atoms: C_1  and  C_2
REMARK    2  A    between atoms: C_2  and  N_3
REMARK    3  A    between atoms: N_3  and  C_4
REMARK    4  A    between atoms: N_3  and  C_6
REMARK    5  A    between atoms: C_4  and  C_5
REMARK    6  A    between atoms: C_6  and  C_7
REMARK    7  A    between atoms: C_7  and  C_8
REMARK    8  A    between atoms: C_8  and  N_9
REMARK    9  A    between atoms: N_9  and  C_10
REMARK   10  A    between atoms: C_10  and  C_11
REMARK   11  A    between atoms: C_15  and  O_16
REMARK   12  A    between atoms: O_16  and  C_17
REMARK   13  A    between atoms: C_22  and  O_23
REMARK   14  A    between atoms: N_26  and  C_27
REMARK                            x       y       z     vdW  Elec       q    Type
REMARK                         _______ _______ _______ _____ _____    ______ ____
ROOT
ATOM      1  N   UNL     1       0.276  10.874  19.821  0.00  0.00    +0.000 N 
ATOM      2  C   UNL     1       0.674  12.154  19.445  0.00  0.00    +0.000 C 
ATOM      3  O   UNL     1      -0.139  12.919  18.927  0.00  0.00    +0.000 OA
ATOM      4  N   UNL     1       1.996  12.477  19.660  0.00  0.00    +0.000 N 
ATOM      5  H   UNL     1       2.629  11.721  19.864  0.00  0.00    +0.000 HD
ENDROOT
BRANCH   4   6
ATOM      6  C   UNL     1       2.598  13.710  19.309  0.00  0.00    +0.000 A 
ATOM      7  C   UNL     1       3.148  13.964  18.046  0.00  0.00    +0.000 A 
ATOM      8  C   UNL     1       3.822  15.159  17.782  0.00  0.00    +0.000 A 
ATOM      9  C   UNL     1       3.928  16.115  18.780  0.00  0.00    +0.000 A 
ATOM     10  F   UNL     1       4.601  17.247  18.540  0.00  0.00    +0.000 F 
ATOM     11  C   UNL     1       3.346  15.907  20.025  0.00  0.00    +0.000 A 
ATOM     12  C   UNL     1       2.675  14.709  20.289  0.00  0.00    +0.000 A 
ENDBRANCH   4   6
BRANCH   1  13
ATOM     13  C   UNL     1      -1.102  10.494  19.490  0.00  0.00    +0.000 C 
BRANCH  13  14
ATOM     14  C   UNL     1      -1.322  10.110  18.012  0.00  0.00    +0.000 C 
BRANCH  14  15
ATOM     15  C   UNL     1      -2.783   9.885  17.593  0.00  0.00    +0.000 C 
BRANCH  15  16
ATOM     16  N   UNL     1      -3.449  11.047  16.979  0.00  0.00    +0.000 NA
BRANCH  16  18
ATOM     17  C   UNL     1      -3.187   9.874  14.774  0.00  0.00    +0.000 C 
ATOM     18  C   UNL     1      -3.124  11.185  15.549  0.00  0.00    +0.000 C 
ENDBRANCH  16  18
BRANCH  16  19
ATOM     19  C   UNL     1      -4.897  11.046  17.263  0.00  0.00    +0.000 C 
ATOM     20  C   UNL     1      -5.629  12.383  17.151  0.00  0.00    +0.000 C 
ENDBRANCH  16  19
ENDBRANCH  15  16
ENDBRANCH  14  15
ENDBRANCH  13  14
ENDBRANCH   1  13
BRANCH   1  21
ATOM     21  C   UNL     1       1.041   9.951  20.677  0.00  0.00    +0.000 C 
BRANCH  21  22
ATOM     22  C   UNL     1       1.486   8.661  20.028  0.00  0.00    +0.000 A 
ATOM     23  C   UNL     1       1.445   7.400  20.630  0.00  0.00    +0.000 A 
ATOM     24  C   UNL     1       1.992   6.275  19.979  0.00  0.00    +0.000 A 
ATOM     25  C   UNL     1       2.058   5.006  20.590  0.00  0.00    +0.000 A 
ATOM     26  C   UNL     1       2.687   3.930  19.958  0.00  0.00    +0.000 A 
ATOM     27  C   UNL     1       3.220   4.113  18.686  0.00  0.00    +0.000 A 
ATOM     28  C   UNL     1       3.121   5.365  18.063  0.00  0.00    +0.000 A 
ATOM     29  C   UNL     1       2.525   6.453  18.686  0.00  0.00    +0.000 A 
ATOM     30  N   UNL     1       2.504   7.639  18.059  0.00  0.00    +0.000 NA
ATOM     31  C   UNL     1       2.001   8.683  18.741  0.00  0.00    +0.000 A 
BRANCH  26  32
ATOM     32  O   UNL     1       2.724   2.773  20.684  0.00  0.00    +0.000 OA
ATOM     33  C   UNL     1       1.752   2.619  21.711  0.00  0.00    +0.000 C 
ENDBRANCH  26  32
BRANCH  31  34
ATOM     34  O   UNL     1       2.082   9.843  18.041  0.00  0.00    +0.000 OA
ATOM     35  H   UNL     1       1.887   9.502  17.147  0.00  0.00    +0.000 HD
ENDBRANCH  31  34
ENDBRANCH  21  22
ENDBRANCH   1  21
TORSDOF 11
ENDMDL
