MODEL 1
REMARK VINA RESULT:      -8.6      0.000      0.000
REMARK  Name = 
REMARK  5 active torsions:
REMARK  status: ('A' for Active; 'I' for Inactive)
REMARK    1  A    between atoms: C_1  and  S_2
REMARK    2  A    between atoms: S_2  and  C_5
REMARK    3  A    between atoms: C_8  and  C_9
REMARK    4  A    between atoms: C_9  and  C_18
REMARK    5  A    between atoms: C_10  and  C_11
REMARK                            x       y       z     vdW  Elec       q    Type
REMARK                         _______ _______ _______ _____ _____    ______ ____
ROOT
ATOM      1  C   UNL     1       2.241   6.363  19.898  0.00  0.00    +0.000 C 
ATOM      2  C   UNL     1       1.341   5.370  20.077  0.00  0.00    +0.000 C 
ENDROOT
BRANCH   1   3
ATOM      3  C   UNL     1       1.854   7.729  20.486  0.00  0.00    +0.000 C 
ATOM      4  O   UNL     1       1.954   7.925  21.693  0.00  0.00    +0.000 OA
ATOM      5  N   UNL     1       1.359   8.635  19.569  0.00  0.00    +0.000 N 
ATOM      6  C   UNL     1       0.845   9.842  19.965  0.00  0.00    +0.000 A 
ATOM      7  N   UNL     1       0.902  10.425  21.136  0.00  0.00    +0.000 NA
ATOM      8  C   UNL     1       0.143  11.580  21.115  0.00  0.00    +0.000 A 
ATOM      9  C   UNL     1      -0.468  11.840  19.913  0.00  0.00    +0.000 A 
ATOM     10 BR   UNL     1      -1.626  13.271  19.605  0.00  0.00    +0.000 Br
ATOM     11  S   UNL     1      -0.038  10.671  18.753  0.00  0.00    +0.000 S 
ATOM     12  H   UNL     1       1.233   8.392  18.602  0.00  0.00    +0.000 HD
ENDBRANCH   1   3
BRANCH   2  13
ATOM     13  C   UNL     1       1.236   3.896  19.690  0.00  0.00    +0.000 C 
ATOM     14  C   UNL     1       1.125   3.767  18.152  0.00  0.00    +0.000 C 
ATOM     15  C   UNL     1       2.442   3.571  17.404  0.00  0.00    +0.000 C 
ATOM     16  C   UNL     1       2.835   2.101  17.269  0.00  0.00    +0.000 C 
ATOM     17  C   UNL     1       3.266   1.426  18.566  0.00  0.00    +0.000 C 
ATOM     18  C   UNL     1       2.248   1.510  19.706  0.00  0.00    +0.000 C 
ATOM     19  C   UNL     1       2.204   2.900  20.348  0.00  0.00    +0.000 C 
ENDBRANCH   2  13
BRANCH   1  23
ATOM     20  C   UNL     1       5.751   5.641  17.623  0.00  0.00    +0.000 A 
ATOM     21  C   UNL     1       5.646   5.116  18.913  0.00  0.00    +0.000 A 
ATOM     22  C   UNL     1       4.519   5.411  19.678  0.00  0.00    +0.000 A 
ATOM     23  C   UNL     1       3.503   6.225  19.155  0.00  0.00    +0.000 A 
ATOM     24  C   UNL     1       3.654   6.801  17.884  0.00  0.00    +0.000 A 
ATOM     25  C   UNL     1       4.786   6.517  17.118  0.00  0.00    +0.000 A 
BRANCH  20  27
ATOM     26  C   UNL     1       6.261   4.042  15.432  0.00  0.00    +0.000 C 
ATOM     27  S   UNL     1       7.092   5.115  16.583  0.00  0.00    +0.000 S 
ATOM     28  O   UNL     1       7.982   4.306  17.393  0.00  0.00    +0.000 OA
ATOM     29  O   UNL     1       7.575   6.275  15.861  0.00  0.00    +0.000 OA
ENDBRANCH  20  27
ENDBRANCH   1  23
TORSDOF 4
ENDMDL
MODEL 2
REMARK VINA RESULT:      -8.5      1.375      1.451
REMARK  Name = 
REMARK  5 active torsions:
REMARK  status: ('A' for Active; 'I' for Inactive)
REMARK    1  A    between atoms: C_1  and  S_2
REMARK    2  A    between atoms: S_2  and  C_5
REMARK    3  A    between atoms: C_8  and  C_9
REMARK    4  A    between atoms: C_9  and  C_18
REMARK    5  A    between atoms: C_10  and  C_11
REMARK                            x       y       z     vdW  Elec       q    Type
REMARK                         _______ _______ _______ _____ _____    ______ ____
ROOT
ATOM      1  C   UNL     1       2.393   6.993  19.158  0.00  0.00    +0.000 C 
ATOM      2  C   UNL     1       1.600   6.104  19.799  0.00  0.00    +0.000 C 
ENDROOT
BRANCH   1   3
ATOM      3  C   UNL     1       1.889   8.444  19.141  0.00  0.00    +0.000 C 
ATOM      4  O   UNL     1       2.278   9.216  18.271  0.00  0.00    +0.000 OA
ATOM      5  N   UNL     1       1.046   8.776  20.183  0.00  0.00    +0.000 N 
ATOM      6  C   UNL     1       0.627  10.066  20.379  0.00  0.00    +0.000 A 
ATOM      7  N   UNL     1       0.742  11.105  19.591  0.00  0.00    +0.000 NA
ATOM      8  C   UNL     1       0.284  12.234  20.244  0.00  0.00    +0.000 A 
ATOM      9  C   UNL     1      -0.173  12.010  21.518  0.00  0.00    +0.000 A 
ATOM     10 BR   UNL     1      -0.767  13.348  22.677  0.00  0.00    +0.000 Br
ATOM     11  S   UNL     1      -0.107  10.353  21.901  0.00  0.00    +0.000 S 
ATOM     12  H   UNL     1       0.819   8.119  20.909  0.00  0.00    +0.000 HD
ENDBRANCH   1   3
BRANCH   2  13
ATOM     13  C   UNL     1       1.631   4.602  20.077  0.00  0.00    +0.000 C 
ATOM     14  C   UNL     1       1.327   3.824  18.774  0.00  0.00    +0.000 C 
ATOM     15  C   UNL     1       2.543   3.403  17.951  0.00  0.00    +0.000 C 
ATOM     16  C   UNL     1       3.097   2.041  18.364  0.00  0.00    +0.000 C 
ATOM     17  C   UNL     1       3.784   2.008  19.724  0.00  0.00    +0.000 C 
ATOM     18  C   UNL     1       2.930   2.511  20.890  0.00  0.00    +0.000 C 
ATOM     19  C   UNL     1       2.799   4.038  20.901  0.00  0.00    +0.000 C 
ENDBRANCH   2  13
BRANCH   1  23
ATOM     20  C   UNL     1       5.856   5.663  17.096  0.00  0.00    +0.000 A 
ATOM     21  C   UNL     1       5.755   5.461  18.474  0.00  0.00    +0.000 A 
ATOM     22  C   UNL     1       4.646   5.958  19.155  0.00  0.00    +0.000 A 
ATOM     23  C   UNL     1       3.642   6.651  18.461  0.00  0.00    +0.000 A 
ATOM     24  C   UNL     1       3.790   6.905  17.089  0.00  0.00    +0.000 A 
ATOM     25  C   UNL     1       4.905   6.419  16.404  0.00  0.00    +0.000 A 
BRANCH  20  27
ATOM     26  C   UNL     1       6.292   3.619  15.294  0.00  0.00    +0.000 C 
ATOM     27  S   UNL     1       7.172   4.871  16.201  0.00  0.00    +0.000 S 
ATOM     28  O   UNL     1       8.025   4.212  17.170  0.00  0.00    +0.000 OA
ATOM     29  O   UNL     1       7.705   5.832  15.256  0.00  0.00    +0.000 OA
ENDBRANCH  20  27
ENDBRANCH   1  23
TORSDOF 4
ENDMDL
MODEL 3
REMARK VINA RESULT:      -8.3      1.603      1.902
REMARK  Name = 
REMARK  5 active torsions:
REMARK  status: ('A' for Active; 'I' for Inactive)
REMARK    1  A    between atoms: C_1  and  S_2
REMARK    2  A    between atoms: S_2  and  C_5
REMARK    3  A    between atoms: C_8  and  C_9
REMARK    4  A    between atoms: C_9  and  C_18
REMARK    5  A    between atoms: C_10  and  C_11
REMARK                            x       y       z     vdW  Elec       q    Type
REMARK                         _______ _______ _______ _____ _____    ______ ____
ROOT
ATOM      1  C   UNL     1       2.559   7.053  18.798  0.00  0.00    +0.000 C 
ATOM      2  C   UNL     1       2.041   6.325  19.813  0.00  0.00    +0.000 C 
ENDROOT
BRANCH   1   3
ATOM      3  C   UNL     1       1.969   8.460  18.617  0.00  0.00    +0.000 C 
ATOM      4  O   UNL     1       2.141   9.064  17.564  0.00  0.00    +0.000 OA
ATOM      5  N   UNL     1       1.311   8.958  19.724  0.00  0.00    +0.000 N 
ATOM      6  C   UNL     1       0.853  10.250  19.761  0.00  0.00    +0.000 A 
ATOM      7  N   UNL     1       0.755  11.123  18.792  0.00  0.00    +0.000 NA
ATOM      8  C   UNL     1       0.352  12.342  19.306  0.00  0.00    +0.000 A 
ATOM      9  C   UNL     1       0.152  12.349  20.664  0.00  0.00    +0.000 A 
ATOM     10 BR   UNL     1      -0.305  13.864  21.655  0.00  0.00    +0.000 Br
ATOM     11  S   UNL     1       0.392  10.797  21.318  0.00  0.00    +0.000 S 
ATOM     12  H   UNL     1       1.263   8.443  20.586  0.00  0.00    +0.000 HD
ENDBRANCH   1   3
BRANCH   2  13
ATOM     13  C   UNL     1       2.254   4.924  20.384  0.00  0.00    +0.000 C 
ATOM     14  C   UNL     1       1.009   4.050  20.099  0.00  0.00    +0.000 C 
ATOM     15  C   UNL     1       1.058   3.220  18.818  0.00  0.00    +0.000 C 
ATOM     16  C   UNL     1       1.692   1.846  19.023  0.00  0.00    +0.000 C 
ATOM     17  C   UNL     1       3.194   1.860  19.283  0.00  0.00    +0.000 C 
ATOM     18  C   UNL     1       3.638   2.733  20.458  0.00  0.00    +0.000 C 
ATOM     19  C   UNL     1       3.599   4.228  20.122  0.00  0.00    +0.000 C 
ENDBRANCH   2  13
BRANCH   1  23
ATOM     20  C   UNL     1       5.705   5.523  16.394  0.00  0.00    +0.000 A 
ATOM     21  C   UNL     1       5.833   6.788  16.971  0.00  0.00    +0.000 A 
ATOM     22  C   UNL     1       4.769   7.311  17.705  0.00  0.00    +0.000 A 
ATOM     23  C   UNL     1       3.587   6.572  17.863  0.00  0.00    +0.000 A 
ATOM     24  C   UNL     1       3.448   5.332  17.221  0.00  0.00    +0.000 A 
ATOM     25  C   UNL     1       4.506   4.808  16.475  0.00  0.00    +0.000 A 
BRANCH  20  27
ATOM     26  C   UNL     1       6.367   3.539  14.594  0.00  0.00    +0.000 C 
ATOM     27  S   UNL     1       7.122   4.781  15.620  0.00  0.00    +0.000 S 
ATOM     28  O   UNL     1       7.884   4.109  16.655  0.00  0.00    +0.000 OA
ATOM     29  O   UNL     1       7.731   5.777  14.762  0.00  0.00    +0.000 OA
ENDBRANCH  20  27
ENDBRANCH   1  23
TORSDOF 4
ENDMDL
MODEL 4
REMARK VINA RESULT:      -7.9      1.374      1.783
REMARK  Name = 
REMARK  5 active torsions:
REMARK  status: ('A' for Active; 'I' for Inactive)
REMARK    1  A    between atoms: C_1  and  S_2
REMARK    2  A    between atoms: S_2  and  C_5
REMARK    3  A    between atoms: C_8  and  C_9
REMARK    4  A    between atoms: C_9  and  C_18
REMARK    5  A    between atoms: C_10  and  C_11
REMARK                            x       y       z     vdW  Elec       q    Type
REMARK                         _______ _______ _______ _____ _____    ______ ____
ROOT
ATOM      1  C   UNL     1       2.228   6.882  19.568  0.00  0.00    +0.000 C 
ATOM      2  C   UNL     1       1.416   6.142  20.356  0.00  0.00    +0.000 C 
ENDROOT
BRANCH   1   3
ATOM      3  C   UNL     1       1.865   8.370  19.446  0.00  0.00    +0.000 C 
ATOM      4  O   UNL     1       2.396   9.060  18.582  0.00  0.00    +0.000 OA
ATOM      5  N   UNL     1       0.972   8.827  20.395  0.00  0.00    +0.000 N 
ATOM      6  C   UNL     1       0.661  10.158  20.499  0.00  0.00    +0.000 A 
ATOM      7  N   UNL     1       0.938  11.142  19.681  0.00  0.00    +0.000 NA
ATOM      8  C   UNL     1       0.534  12.338  20.243  0.00  0.00    +0.000 A 
ATOM      9  C   UNL     1      -0.047  12.220  21.481  0.00  0.00    +0.000 A 
ATOM     10 BR   UNL     1      -0.609  13.661  22.526  0.00  0.00    +0.000 Br
ATOM     11  S   UNL     1      -0.168  10.584  21.937  0.00  0.00    +0.000 S 
ATOM     12  H   UNL     1       0.625   8.230  21.125  0.00  0.00    +0.000 HD
ENDBRANCH   1   3
BRANCH   2  13
ATOM     13  C   UNL     1       1.328   4.677  20.780  0.00  0.00    +0.000 C 
ATOM     14  C   UNL     1       0.798   3.824  19.603  0.00  0.00    +0.000 C 
ATOM     15  C   UNL     1       1.861   3.199  18.702  0.00  0.00    +0.000 C 
ATOM     16  C   UNL     1       2.320   1.826  19.189  0.00  0.00    +0.000 C 
ATOM     17  C   UNL     1       3.155   1.840  20.465  0.00  0.00    +0.000 C 
ATOM     18  C   UNL     1       2.498   2.537  21.659  0.00  0.00    +0.000 C 
ATOM     19  C   UNL     1       2.522   4.063  21.528  0.00  0.00    +0.000 C 
ENDBRANCH   2  13
BRANCH   1  23
ATOM     20  C   UNL     1       5.696   5.678  17.437  0.00  0.00    +0.000 A 
ATOM     21  C   UNL     1       4.671   6.346  16.764  0.00  0.00    +0.000 A 
ATOM     22  C   UNL     1       3.508   6.680  17.454  0.00  0.00    +0.000 A 
ATOM     23  C   UNL     1       3.372   6.350  18.811  0.00  0.00    +0.000 A 
ATOM     24  C   UNL     1       4.381   5.618  19.457  0.00  0.00    +0.000 A 
ATOM     25  C   UNL     1       5.543   5.271  18.766  0.00  0.00    +0.000 A 
BRANCH  20  27
ATOM     26  C   UNL     1       6.725   4.672  15.082  0.00  0.00    +0.000 C 
ATOM     27  S   UNL     1       7.247   5.419  16.610  0.00  0.00    +0.000 S 
ATOM     28  O   UNL     1       7.987   4.429  17.368  0.00  0.00    +0.000 OA
ATOM     29  O   UNL     1       7.813   6.720  16.313  0.00  0.00    +0.000 OA
ENDBRANCH  20  27
ENDBRANCH   1  23
TORSDOF 4
ENDMDL
MODEL 5
REMARK VINA RESULT:      -7.9      1.573      1.787
REMARK  Name = 
REMARK  5 active torsions:
REMARK  status: ('A' for Active; 'I' for Inactive)
REMARK    1  A    between atoms: C_1  and  S_2
REMARK    2  A    between atoms: S_2  and  C_5
REMARK    3  A    between atoms: C_8  and  C_9
REMARK    4  A    between atoms: C_9  and  C_18
REMARK    5  A    between atoms: C_10  and  C_11
REMARK                            x       y       z     vdW  Elec       q    Type
REMARK                         _______ _______ _______ _____ _____    ______ ____
ROOT
ATOM      1  C   UNL     1       2.077   7.021  19.612  0.00  0.00    +0.000 C 
ATOM      2  C   UNL     1       1.323   6.132  20.297  0.00  0.00    +0.000 C 
ENDROOT
BRANCH   1   3
ATOM      3  C   UNL     1       1.556   8.466  19.597  0.00  0.00    +0.000 C 
ATOM      4  O   UNL     1       1.935   9.244  18.727  0.00  0.00    +0.000 OA
ATOM      5  N   UNL     1       0.711   8.787  20.641  0.00  0.00    +0.000 N 
ATOM      6  C   UNL     1       0.277  10.072  20.839  0.00  0.00    +0.000 A 
ATOM      7  N   UNL     1       0.379  11.113  20.051  0.00  0.00    +0.000 NA
ATOM      8  C   UNL     1      -0.092  12.236  20.706  0.00  0.00    +0.000 A 
ATOM      9  C   UNL     1      -0.544  12.005  21.981  0.00  0.00    +0.000 A 
ATOM     10 BR   UNL     1      -1.153  13.334  23.142  0.00  0.00    +0.000 Br
ATOM     11  S   UNL     1      -0.458  10.348  22.362  0.00  0.00    +0.000 S 
ATOM     12  H   UNL     1       0.493   8.126  21.366  0.00  0.00    +0.000 HD
ENDBRANCH   1   3
BRANCH   2  13
ATOM     13  C   UNL     1       1.383   4.634  20.593  0.00  0.00    +0.000 C 
ATOM     14  C   UNL     1       1.049   3.836  19.310  0.00  0.00    +0.000 C 
ATOM     15  C   UNL     1       2.245   3.420  18.455  0.00  0.00    +0.000 C 
ATOM     16  C   UNL     1       2.830   2.071  18.868  0.00  0.00    +0.000 C 
ATOM     17  C   UNL     1       3.559   2.065  20.206  0.00  0.00    +0.000 C 
ATOM     18  C   UNL     1       2.735   2.572  21.392  0.00  0.00    +0.000 C 
ATOM     19  C   UNL     1       2.583   4.097  21.388  0.00  0.00    +0.000 C 
ENDBRANCH   2  13
BRANCH   1  23
ATOM     20  C   UNL     1       5.459   5.707  17.409  0.00  0.00    +0.000 A 
ATOM     21  C   UNL     1       5.401   5.474  18.785  0.00  0.00    +0.000 A 
ATOM     22  C   UNL     1       4.319   5.966  19.513  0.00  0.00    +0.000 A 
ATOM     23  C   UNL     1       3.300   6.683  18.868  0.00  0.00    +0.000 A 
ATOM     24  C   UNL     1       3.407   6.968  17.497  0.00  0.00    +0.000 A 
ATOM     25  C   UNL     1       4.494   6.487  16.766  0.00  0.00    +0.000 A 
BRANCH  20  27
ATOM     26  C   UNL     1       7.871   4.402  17.723  0.00  0.00    +0.000 C 
ATOM     27  S   UNL     1       6.738   4.924  16.455  0.00  0.00    +0.000 S 
ATOM     28  O   UNL     1       7.386   5.952  15.664  0.00  0.00    +0.000 OA
ATOM     29  O   UNL     1       6.168   3.743  15.836  0.00  0.00    +0.000 OA
ENDBRANCH  20  27
ENDBRANCH   1  23
TORSDOF 4
ENDMDL
MODEL 6
REMARK VINA RESULT:      -7.8      2.797      4.595
REMARK  Name = 
REMARK  5 active torsions:
REMARK  status: ('A' for Active; 'I' for Inactive)
REMARK    1  A    between atoms: C_1  and  S_2
REMARK    2  A    between atoms: S_2  and  C_5
REMARK    3  A    between atoms: C_8  and  C_9
REMARK    4  A    between atoms: C_9  and  C_18
REMARK    5  A    between atoms: C_10  and  C_11
REMARK                            x       y       z     vdW  Elec       q    Type
REMARK                         _______ _______ _______ _____ _____    ______ ____
ROOT
ATOM      1  C   UNL     1       3.082   7.699  17.792  0.00  0.00    +0.000 C 
ATOM      2  C   UNL     1       4.163   7.925  17.012  0.00  0.00    +0.000 C 
ENDROOT
BRANCH   1   3
ATOM      3  C   UNL     1       2.241   8.937  18.141  0.00  0.00    +0.000 C 
ATOM      4  O   UNL     1       2.359   9.963  17.479  0.00  0.00    +0.000 OA
ATOM      5  N   UNL     1       1.428   8.792  19.248  0.00  0.00    +0.000 N 
ATOM      6  C   UNL     1       0.726   9.850  19.762  0.00  0.00    +0.000 A 
ATOM      7  N   UNL     1       0.521  11.038  19.250  0.00  0.00    +0.000 NA
ATOM      8  C   UNL     1      -0.144  11.829  20.167  0.00  0.00    +0.000 A 
ATOM      9  C   UNL     1      -0.429  11.206  21.357  0.00  0.00    +0.000 A 
ATOM     10 BR   UNL     1      -1.236  12.041  22.818  0.00  0.00    +0.000 Br
ATOM     11  S   UNL     1       0.068   9.579  21.320  0.00  0.00    +0.000 S 
ATOM     12  H   UNL     1       1.427   7.948  19.794  0.00  0.00    +0.000 HD
ENDBRANCH   1   3
BRANCH   2  13
ATOM     13  C   UNL     1       5.288   7.079  16.418  0.00  0.00    +0.000 C 
ATOM     14  C   UNL     1       6.556   7.209  17.296  0.00  0.00    +0.000 C 
ATOM     15  C   UNL     1       6.724   6.149  18.383  0.00  0.00    +0.000 C 
ATOM     16  C   UNL     1       7.469   4.908  17.893  0.00  0.00    +0.000 C 
ATOM     17  C   UNL     1       6.694   4.036  16.912  0.00  0.00    +0.000 C 
ATOM     18  C   UNL     1       6.178   4.763  15.668  0.00  0.00    +0.000 C 
ATOM     19  C   UNL     1       4.963   5.645  15.971  0.00  0.00    +0.000 C 
ENDBRANCH   2  13
BRANCH   1  23
ATOM     20  C   UNL     1       2.236   3.765  19.141  0.00  0.00    +0.000 A 
ATOM     21  C   UNL     1       1.510   4.297  18.073  0.00  0.00    +0.000 A 
ATOM     22  C   UNL     1       1.748   5.612  17.678  0.00  0.00    +0.000 A 
ATOM     23  C   UNL     1       2.707   6.389  18.346  0.00  0.00    +0.000 A 
ATOM     24  C   UNL     1       3.379   5.863  19.460  0.00  0.00    +0.000 A 
ATOM     25  C   UNL     1       3.136   4.550  19.867  0.00  0.00    +0.000 A 
BRANCH  20  27
ATOM     26  C   UNL     1       3.554   1.362  18.817  0.00  0.00    +0.000 C 
ATOM     27  S   UNL     1       2.067   2.037  19.523  0.00  0.00    +0.000 S 
ATOM     28  O   UNL     1       0.937   1.531  18.768  0.00  0.00    +0.000 OA
ATOM     29  O   UNL     1       2.138   1.893  20.963  0.00  0.00    +0.000 OA
ENDBRANCH  20  27
ENDBRANCH   1  23
TORSDOF 4
ENDMDL
MODEL 7
REMARK VINA RESULT:      -7.8      2.940      4.764
REMARK  Name = 
REMARK  5 active torsions:
REMARK  status: ('A' for Active; 'I' for Inactive)
REMARK    1  A    between atoms: C_1  and  S_2
REMARK    2  A    between atoms: S_2  and  C_5
REMARK    3  A    between atoms: C_8  and  C_9
REMARK    4  A    between atoms: C_9  and  C_18
REMARK    5  A    between atoms: C_10  and  C_11
REMARK                            x       y       z     vdW  Elec       q    Type
REMARK                         _______ _______ _______ _____ _____    ______ ____
ROOT
ATOM      1  C   UNL     1       3.237   7.533  17.730  0.00  0.00    +0.000 C 
ATOM      2  C   UNL     1       4.267   7.876  16.923  0.00  0.00    +0.000 C 
ENDROOT
BRANCH   1   3
ATOM      3  C   UNL     1       2.264   8.667  18.086  0.00  0.00    +0.000 C 
ATOM      4  O   UNL     1       2.182   9.654  17.362  0.00  0.00    +0.000 OA
ATOM      5  N   UNL     1       1.574   8.487  19.269  0.00  0.00    +0.000 N 
ATOM      6  C   UNL     1       0.777   9.474  19.788  0.00  0.00    +0.000 A 
ATOM      7  N   UNL     1       0.366  10.586  19.233  0.00  0.00    +0.000 NA
ATOM      8  C   UNL     1      -0.324  11.340  20.164  0.00  0.00    +0.000 A 
ATOM      9  C   UNL     1      -0.419  10.764  21.407  0.00  0.00    +0.000 A 
ATOM     10 BR   UNL     1      -1.210  11.578  22.889  0.00  0.00    +0.000 Br
ATOM     11  S   UNL     1       0.295   9.219  21.412  0.00  0.00    +0.000 S 
ATOM     12  H   UNL     1       1.737   7.689  19.859  0.00  0.00    +0.000 HD
ENDBRANCH   1   3
BRANCH   2  13
ATOM     13  C   UNL     1       5.472   7.162  16.312  0.00  0.00    +0.000 C 
ATOM     14  C   UNL     1       6.644   7.159  17.322  0.00  0.00    +0.000 C 
ATOM     15  C   UNL     1       6.740   5.931  18.226  0.00  0.00    +0.000 C 
ATOM     16  C   UNL     1       7.569   4.805  17.611  0.00  0.00    +0.000 C 
ATOM     17  C   UNL     1       6.922   4.101  16.424  0.00  0.00    +0.000 C 
ATOM     18  C   UNL     1       6.506   5.023  15.275  0.00  0.00    +0.000 C 
ATOM     19  C   UNL     1       5.238   5.821  15.598  0.00  0.00    +0.000 C 
ENDBRANCH   2  13
BRANCH   1  23
ATOM     20  C   UNL     1       2.398   3.825  19.616  0.00  0.00    +0.000 A 
ATOM     21  C   UNL     1       3.387   4.658  20.144  0.00  0.00    +0.000 A 
ATOM     22  C   UNL     1       3.702   5.843  19.483  0.00  0.00    +0.000 A 
ATOM     23  C   UNL     1       3.031   6.194  18.302  0.00  0.00    +0.000 A 
ATOM     24  C   UNL     1       2.089   5.315  17.746  0.00  0.00    +0.000 A 
ATOM     25  C   UNL     1       1.777   4.121  18.399  0.00  0.00    +0.000 A 
BRANCH  20  27
ATOM     26  C   UNL     1       3.379   1.912  21.346  0.00  0.00    +0.000 C 
ATOM     27  S   UNL     1       1.866   2.413  20.555  0.00  0.00    +0.000 S 
ATOM     28  O   UNL     1       1.485   1.379  19.613  0.00  0.00    +0.000 OA
ATOM     29  O   UNL     1       0.949   2.879  21.576  0.00  0.00    +0.000 OA
ENDBRANCH  20  27
ENDBRANCH   1  23
TORSDOF 4
ENDMDL
MODEL 8
REMARK VINA RESULT:      -7.6      0.888      1.153
REMARK  Name = 
REMARK  5 active torsions:
REMARK  status: ('A' for Active; 'I' for Inactive)
REMARK    1  A    between atoms: C_1  and  S_2
REMARK    2  A    between atoms: S_2  and  C_5
REMARK    3  A    between atoms: C_8  and  C_9
REMARK    4  A    between atoms: C_9  and  C_18
REMARK    5  A    between atoms: C_10  and  C_11
REMARK                            x       y       z     vdW  Elec       q    Type
REMARK                         _______ _______ _______ _____ _____    ______ ____
ROOT
ATOM      1  C   UNL     1       1.836   6.375  20.135  0.00  0.00    +0.000 C 
ATOM      2  C   UNL     1       1.063   5.286  20.348  0.00  0.00    +0.000 C 
ENDROOT
BRANCH   1   3
ATOM      3  C   UNL     1       1.326   7.686  20.753  0.00  0.00    +0.000 C 
ATOM      4  O   UNL     1       0.829   7.680  21.875  0.00  0.00    +0.000 OA
ATOM      5  N   UNL     1       1.433   8.792  19.933  0.00  0.00    +0.000 N 
ATOM      6  C   UNL     1       0.895  10.000  20.291  0.00  0.00    +0.000 A 
ATOM      7  N   UNL     1       0.412  10.385  21.446  0.00  0.00    +0.000 NA
ATOM      8  C   UNL     1      -0.135  11.648  21.322  0.00  0.00    +0.000 A 
ATOM      9  C   UNL     1      -0.042  12.188  20.063  0.00  0.00    +0.000 A 
ATOM     10 BR   UNL     1      -0.767  13.835  19.565  0.00  0.00    +0.000 Br
ATOM     11  S   UNL     1       0.806  11.145  19.019  0.00  0.00    +0.000 S 
ATOM     12  H   UNL     1       1.784   8.721  18.994  0.00  0.00    +0.000 HD
ENDBRANCH   1   3
BRANCH   2  13
ATOM     13  C   UNL     1       1.107   3.811  19.954  0.00  0.00    +0.000 C 
ATOM     14  C   UNL     1       0.876   3.671  18.430  0.00  0.00    +0.000 C 
ATOM     15  C   UNL     1       2.136   3.640  17.567  0.00  0.00    +0.000 C 
ATOM     16  C   UNL     1       2.694   2.230  17.380  0.00  0.00    +0.000 C 
ATOM     17  C   UNL     1       3.318   1.612  18.625  0.00  0.00    +0.000 C 
ATOM     18  C   UNL     1       2.403   1.568  19.852  0.00  0.00    +0.000 C 
ATOM     19  C   UNL     1       2.245   2.941  20.512  0.00  0.00    +0.000 C 
ENDBRANCH   2  13
BRANCH   1  23
ATOM     20  C   UNL     1       5.277   6.077  17.669  0.00  0.00    +0.000 A 
ATOM     21  C   UNL     1       5.267   5.446  18.915  0.00  0.00    +0.000 A 
ATOM     22  C   UNL     1       4.160   5.602  19.747  0.00  0.00    +0.000 A 
ATOM     23  C   UNL     1       3.069   6.383  19.333  0.00  0.00    +0.000 A 
ATOM     24  C   UNL     1       3.123   7.065  18.108  0.00  0.00    +0.000 A 
ATOM     25  C   UNL     1       4.235   6.921  17.276  0.00  0.00    +0.000 A 
BRANCH  20  27
ATOM     26  C   UNL     1       7.740   7.048  16.887  0.00  0.00    +0.000 C 
ATOM     27  S   UNL     1       6.601   5.727  16.536  0.00  0.00    +0.000 S 
ATOM     28  O   UNL     1       6.089   5.916  15.193  0.00  0.00    +0.000 OA
ATOM     29  O   UNL     1       7.212   4.476  16.941  0.00  0.00    +0.000 OA
ENDBRANCH  20  27
ENDBRANCH   1  23
TORSDOF 4
ENDMDL
MODEL 9
REMARK VINA RESULT:      -7.5      3.749      6.476
REMARK  Name = 
REMARK  5 active torsions:
REMARK  status: ('A' for Active; 'I' for Inactive)
REMARK    1  A    between atoms: C_1  and  S_2
REMARK    2  A    between atoms: S_2  and  C_5
REMARK    3  A    between atoms: C_8  and  C_9
REMARK    4  A    between atoms: C_9  and  C_18
REMARK    5  A    between atoms: C_10  and  C_11
REMARK                            x       y       z     vdW  Elec       q    Type
REMARK                         _______ _______ _______ _____ _____    ______ ____
ROOT
ATOM      1  C   UNL     1       0.317  10.817  19.739  0.00  0.00    +0.000 C 
ATOM      2  C   UNL     1      -0.944  10.997  19.286  0.00  0.00    +0.000 C 
ENDROOT
BRANCH   1   3
ATOM      3  C   UNL     1       0.869  11.934  20.638  0.00  0.00    +0.000 C 
ATOM      4  O   UNL     1       0.418  12.089  21.768  0.00  0.00    +0.000 OA
ATOM      5  N   UNL     1       1.831  12.730  20.048  0.00  0.00    +0.000 N 
ATOM      6  C   UNL     1       2.316  13.849  20.674  0.00  0.00    +0.000 A 
ATOM      7  N   UNL     1       2.155  14.241  21.912  0.00  0.00    +0.000 NA
ATOM      8  C   UNL     1       2.722  15.491  22.078  0.00  0.00    +0.000 A 
ATOM      9  C   UNL     1       3.304  16.008  20.948  0.00  0.00    +0.000 A 
ATOM     10 BR   UNL     1       4.068  17.708  20.837  0.00  0.00    +0.000 Br
ATOM     11  S   UNL     1       3.219  14.896  19.662  0.00  0.00    +0.000 S 
ATOM     12  H   UNL     1       2.110  12.599  19.091  0.00  0.00    +0.000 HD
ENDBRANCH   1   3
BRANCH   2  13
ATOM     13  C   UNL     1      -1.911  10.229  18.387  0.00  0.00    +0.000 C 
ATOM     14  C   UNL     1      -3.363  10.670  18.688  0.00  0.00    +0.000 C 
ATOM     15  C   UNL     1      -3.909  11.802  17.818  0.00  0.00    +0.000 C 
ATOM     16  C   UNL     1      -4.570  11.300  16.536  0.00  0.00    +0.000 C 
ATOM     17  C   UNL     1      -3.613  10.725  15.499  0.00  0.00    +0.000 C 
ATOM     18  C   UNL     1      -2.714   9.595  16.005  0.00  0.00    +0.000 C 
ATOM     19  C   UNL     1      -1.575  10.108  16.892  0.00  0.00    +0.000 C 
ENDBRANCH   2  13
BRANCH   1  23
ATOM     20  C   UNL     1       2.483   7.333  18.650  0.00  0.00    +0.000 A 
ATOM     21  C   UNL     1       1.987   7.457  19.949  0.00  0.00    +0.000 A 
ATOM     22  C   UNL     1       1.334   8.631  20.319  0.00  0.00    +0.000 A 
ATOM     23  C   UNL     1       1.176   9.674  19.394  0.00  0.00    +0.000 A 
ATOM     24  C   UNL     1       1.740   9.562  18.113  0.00  0.00    +0.000 A 
ATOM     25  C   UNL     1       2.405   8.393  17.741  0.00  0.00    +0.000 A 
BRANCH  20  27
ATOM     26  C   UNL     1       4.042   5.251  19.572  0.00  0.00    +0.000 C 
ATOM     27  S   UNL     1       3.148   5.771  18.125  0.00  0.00    +0.000 S 
ATOM     28  O   UNL     1       4.108   6.035  17.071  0.00  0.00    +0.000 OA
ATOM     29  O   UNL     1       2.036   4.862  17.922  0.00  0.00    +0.000 OA
ENDBRANCH  20  27
ENDBRANCH   1  23
TORSDOF 4
ENDMDL
