MODEL 1
REMARK VINA RESULT:      -9.3      0.000      0.000
REMARK  Name = 
REMARK  9 active torsions:
REMARK  status: ('A' for Active; 'I' for Inactive)
REMARK    1  A    between atoms: C_1  and  C_2
REMARK    2  A    between atoms: C_2  and  C_3
REMARK    3  A    between atoms: C_3  and  C_4
REMARK    4  A    between atoms: C_4  and  C_5
REMARK    5  A    between atoms: C_5  and  N_6
REMARK    6  A    between atoms: C_8  and  C_9
REMARK    7  A    between atoms: C_9  and  C_11
REMARK    8  A    between atoms: C_14  and  C_15
REMARK    9  A    between atoms: N_17  and  C_18
REMARK                            x       y       z     vdW  Elec       q    Type
REMARK                         _______ _______ _______ _____ _____    ______ ____
ROOT
ATOM      1  C   UNL     1       1.919   9.051  18.252  0.00  0.00    +0.000 C 
ATOM      2  O   UNL     1       1.816   9.476  17.113  0.00  0.00    +0.000 OA
ENDROOT
BRANCH   1   3
ATOM      3  C   UNL     1       2.959   7.701  18.341  0.00  0.00    +0.000 A 
ATOM      4  C   UNL     1       2.372   6.939  19.388  0.00  0.00    +0.000 A 
ATOM      5  C   UNL     1       2.855   5.690  19.677  0.00  0.00    +0.000 A 
ATOM      6  C   UNL     1       2.831   4.982  18.499  0.00  0.00    +0.000 A 
ATOM      7  C   UNL     1       3.688   5.435  17.542  0.00  0.00    +0.000 A 
ATOM      8  C   UNL     1       4.359   4.327  16.931  0.00  0.00    +0.000 A 
ATOM      9  C   UNL     1       5.660   4.425  16.502  0.00  0.00    +0.000 A 
ATOM     10  C   UNL     1       6.220   5.686  16.615  0.00  0.00    +0.000 A 
ATOM     11  C   UNL     1       5.446   6.855  17.067  0.00  0.00    +0.000 A 
ATOM     12  C   UNL     1       4.036   6.826  17.578  0.00  0.00    +0.000 A 
BRANCH   6  13
ATOM     13  C   UNL     1       1.741   4.043  18.194  0.00  0.00    +0.000 C 
ATOM     14  O   UNL     1       1.008   4.216  17.229  0.00  0.00    +0.000 OA
ATOM     15  N   UNL     1       1.625   3.004  19.082  0.00  0.00    +0.000 N 
ATOM     16  C   UNL     1       0.617   1.998  18.923  0.00  0.00    +0.000 C 
ATOM     17  H   UNL     1       2.255   2.936  19.870  0.00  0.00    +0.000 HD
ENDBRANCH   6  13
ENDBRANCH   1   3
BRANCH   1  20
ATOM     18  N   UNL     1      -0.479  11.498  19.738  0.00  0.00    +0.000 N 
ATOM     19  C   UNL     1       0.377  11.016  18.775  0.00  0.00    +0.000 A 
ATOM     20  C   UNL     1       1.051   9.845  19.240  0.00  0.00    +0.000 A 
ATOM     21  C   UNL     1       0.706   9.823  20.660  0.00  0.00    +0.000 A 
ATOM     22  C   UNL     1       1.086   9.097  21.818  0.00  0.00    +0.000 A 
ATOM     23  C   UNL     1       0.418   9.261  23.047  0.00  0.00    +0.000 A 
ATOM     24  C   UNL     1      -0.636  10.141  23.216  0.00  0.00    +0.000 A 
ATOM     25  C   UNL     1      -0.978  10.926  22.125  0.00  0.00    +0.000 A 
ATOM     26  C   UNL     1      -0.299  10.786  20.895  0.00  0.00    +0.000 A 
BRANCH  18  27
ATOM     27  C   UNL     1      -1.494  12.543  19.574  0.00  0.00    +0.000 C 
BRANCH  27  28
ATOM     28  C   UNL     1      -2.890  11.993  19.283  0.00  0.00    +0.000 C 
BRANCH  28  29
ATOM     29  C   UNL     1      -3.057  11.622  17.805  0.00  0.00    +0.000 C 
BRANCH  29  31
ATOM     30  C   UNL     1      -2.677   9.709  16.207  0.00  0.00    +0.000 C 
ATOM     31  C   UNL     1      -3.063  10.104  17.623  0.00  0.00    +0.000 C 
ENDBRANCH  29  31
ENDBRANCH  28  29
ENDBRANCH  27  28
ENDBRANCH  18  27
ENDBRANCH   1  20
TORSDOF 7
ENDMDL
MODEL 2
REMARK VINA RESULT:      -9.0      0.745      1.026
REMARK  Name = 
REMARK  9 active torsions:
REMARK  status: ('A' for Active; 'I' for Inactive)
REMARK    1  A    between atoms: C_1  and  C_2
REMARK    2  A    between atoms: C_2  and  C_3
REMARK    3  A    between atoms: C_3  and  C_4
REMARK    4  A    between atoms: C_4  and  C_5
REMARK    5  A    between atoms: C_5  and  N_6
REMARK    6  A    between atoms: C_8  and  C_9
REMARK    7  A    between atoms: C_9  and  C_11
REMARK    8  A    between atoms: C_14  and  C_15
REMARK    9  A    between atoms: N_17  and  C_18
REMARK                            x       y       z     vdW  Elec       q    Type
REMARK                         _______ _______ _______ _____ _____    ______ ____
ROOT
ATOM      1  C   UNL     1       1.940   8.945  18.339  0.00  0.00    +0.000 C 
ATOM      2  O   UNL     1       1.530   9.192  17.216  0.00  0.00    +0.000 OA
ENDROOT
BRANCH   1   3
ATOM      3  C   UNL     1       2.990   7.599  18.356  0.00  0.00    +0.000 A 
ATOM      4  C   UNL     1       2.464   6.824  19.425  0.00  0.00    +0.000 A 
ATOM      5  C   UNL     1       2.970   5.574  19.674  0.00  0.00    +0.000 A 
ATOM      6  C   UNL     1       2.886   4.879  18.491  0.00  0.00    +0.000 A 
ATOM      7  C   UNL     1       3.688   5.347  17.494  0.00  0.00    +0.000 A 
ATOM      8  C   UNL     1       4.330   4.250  16.836  0.00  0.00    +0.000 A 
ATOM      9  C   UNL     1       5.606   4.360  16.338  0.00  0.00    +0.000 A 
ATOM     10  C   UNL     1       6.164   5.624  16.435  0.00  0.00    +0.000 A 
ATOM     11  C   UNL     1       5.409   6.782  16.941  0.00  0.00    +0.000 A 
ATOM     12  C   UNL     1       4.029   6.740  17.526  0.00  0.00    +0.000 A 
BRANCH   6  13
ATOM     13  C   UNL     1       1.786   3.936  18.235  0.00  0.00    +0.000 C 
ATOM     14  O   UNL     1       1.015   4.103  17.299  0.00  0.00    +0.000 OA
ATOM     15  N   UNL     1       1.706   2.903  19.133  0.00  0.00    +0.000 N 
ATOM     16  C   UNL     1       0.694   1.895  19.019  0.00  0.00    +0.000 C 
ATOM     17  H   UNL     1       2.367   2.840  19.896  0.00  0.00    +0.000 HD
ENDBRANCH   6  13
ENDBRANCH   1   3
BRANCH   1  20
ATOM     18  N   UNL     1       0.726  12.002  20.108  0.00  0.00    +0.000 N 
ATOM     19  C   UNL     1       1.447  11.309  19.164  0.00  0.00    +0.000 A 
ATOM     20  C   UNL     1       1.350   9.902  19.386  0.00  0.00    +0.000 A 
ATOM     21  C   UNL     1       0.712   9.831  20.700  0.00  0.00    +0.000 A 
ATOM     22  C   UNL     1       0.414   8.836  21.666  0.00  0.00    +0.000 A 
ATOM     23  C   UNL     1      -0.364   9.121  22.805  0.00  0.00    +0.000 A 
ATOM     24  C   UNL     1      -0.876  10.379  23.068  0.00  0.00    +0.000 A 
ATOM     25  C   UNL     1      -0.534  11.393  22.185  0.00  0.00    +0.000 A 
ATOM     26  C   UNL     1       0.266  11.122  21.053  0.00  0.00    +0.000 A 
BRANCH  18  27
ATOM     27  C   UNL     1       0.404  13.432  20.099  0.00  0.00    +0.000 C 
BRANCH  27  28
ATOM     28  C   UNL     1      -0.911  13.753  19.390  0.00  0.00    +0.000 C 
BRANCH  28  29
ATOM     29  C   UNL     1      -1.181  12.790  18.229  0.00  0.00    +0.000 C 
BRANCH  29  31
ATOM     30  C   UNL     1      -2.079  10.440  18.052  0.00  0.00    +0.000 C 
ATOM     31  C   UNL     1      -2.338  11.848  18.562  0.00  0.00    +0.000 C 
ENDBRANCH  29  31
ENDBRANCH  28  29
ENDBRANCH  27  28
ENDBRANCH  18  27
ENDBRANCH   1  20
TORSDOF 7
ENDMDL
MODEL 3
REMARK VINA RESULT:      -8.8      1.561      2.381
REMARK  Name = 
REMARK  9 active torsions:
REMARK  status: ('A' for Active; 'I' for Inactive)
REMARK    1  A    between atoms: C_1  and  C_2
REMARK    2  A    between atoms: C_2  and  C_3
REMARK    3  A    between atoms: C_3  and  C_4
REMARK    4  A    between atoms: C_4  and  C_5
REMARK    5  A    between atoms: C_5  and  N_6
REMARK    6  A    between atoms: C_8  and  C_9
REMARK    7  A    between atoms: C_9  and  C_11
REMARK    8  A    between atoms: C_14  and  C_15
REMARK    9  A    between atoms: N_17  and  C_18
REMARK                            x       y       z     vdW  Elec       q    Type
REMARK                         _______ _______ _______ _____ _____    ______ ____
ROOT
ATOM      1  C   UNL     1       1.802   9.002  18.322  0.00  0.00    +0.000 C 
ATOM      2  O   UNL     1       1.418   9.234  17.187  0.00  0.00    +0.000 OA
ENDROOT
BRANCH   1   3
ATOM      3  C   UNL     1       2.890   7.689  18.375  0.00  0.00    +0.000 A 
ATOM      4  C   UNL     1       2.352   6.896  19.425  0.00  0.00    +0.000 A 
ATOM      5  C   UNL     1       2.885   5.662  19.691  0.00  0.00    +0.000 A 
ATOM      6  C   UNL     1       2.862   4.966  18.506  0.00  0.00    +0.000 A 
ATOM      7  C   UNL     1       3.683   5.458  17.537  0.00  0.00    +0.000 A 
ATOM      8  C   UNL     1       4.380   4.382  16.901  0.00  0.00    +0.000 A 
ATOM      9  C   UNL     1       5.668   4.530  16.447  0.00  0.00    +0.000 A 
ATOM     10  C   UNL     1       6.185   5.810  16.563  0.00  0.00    +0.000 A 
ATOM     11  C   UNL     1       5.379   6.945  17.043  0.00  0.00    +0.000 A 
ATOM     12  C   UNL     1       3.982   6.861  17.581  0.00  0.00    +0.000 A 
BRANCH   6  13
ATOM     13  C   UNL     1       1.800   3.991  18.212  0.00  0.00    +0.000 C 
ATOM     14  O   UNL     1       1.072   4.123  17.236  0.00  0.00    +0.000 OA
ATOM     15  N   UNL     1       1.701   2.971  19.123  0.00  0.00    +0.000 N 
ATOM     16  C   UNL     1       0.721   1.936  18.977  0.00  0.00    +0.000 C 
ATOM     17  H   UNL     1       2.325   2.937  19.918  0.00  0.00    +0.000 HD
ENDBRANCH   6  13
ENDBRANCH   1   3
BRANCH   1  20
ATOM     18  N   UNL     1       0.263  11.979  19.970  0.00  0.00    +0.000 N 
ATOM     19  C   UNL     1       1.006  11.326  19.015  0.00  0.00    +0.000 A 
ATOM     20  C   UNL     1       1.155   9.945  19.348  0.00  0.00    +0.000 A 
ATOM     21  C   UNL     1       0.647   9.892  20.718  0.00  0.00    +0.000 A 
ATOM     22  C   UNL     1       0.592   8.951  21.778  0.00  0.00    +0.000 A 
ATOM     23  C   UNL     1      -0.125   9.211  22.962  0.00  0.00    +0.000 A 
ATOM     24  C   UNL     1      -0.809  10.394  23.180  0.00  0.00    +0.000 A 
ATOM     25  C   UNL     1      -0.707  11.367  22.197  0.00  0.00    +0.000 A 
ATOM     26  C   UNL     1       0.029  11.125  21.016  0.00  0.00    +0.000 A 
BRANCH  18  27
ATOM     27  C   UNL     1      -0.284  13.336  19.888  0.00  0.00    +0.000 C 
BRANCH  27  28
ATOM     28  C   UNL     1       0.287  14.152  18.729  0.00  0.00    +0.000 C 
BRANCH  28  29
ATOM     29  C   UNL     1       0.974  15.431  19.220  0.00  0.00    +0.000 C 
BRANCH  29  31
ATOM     30  C   UNL     1       2.964  14.330  18.130  0.00  0.00    +0.000 C 
ATOM     31  C   UNL     1       2.302  15.649  18.494  0.00  0.00    +0.000 C 
ENDBRANCH  29  31
ENDBRANCH  28  29
ENDBRANCH  27  28
ENDBRANCH  18  27
ENDBRANCH   1  20
TORSDOF 7
ENDMDL
MODEL 4
REMARK VINA RESULT:      -8.7      1.950      8.337
REMARK  Name = 
REMARK  9 active torsions:
REMARK  status: ('A' for Active; 'I' for Inactive)
REMARK    1  A    between atoms: C_1  and  C_2
REMARK    2  A    between atoms: C_2  and  C_3
REMARK    3  A    between atoms: C_3  and  C_4
REMARK    4  A    between atoms: C_4  and  C_5
REMARK    5  A    between atoms: C_5  and  N_6
REMARK    6  A    between atoms: C_8  and  C_9
REMARK    7  A    between atoms: C_9  and  C_11
REMARK    8  A    between atoms: C_14  and  C_15
REMARK    9  A    between atoms: N_17  and  C_18
REMARK                            x       y       z     vdW  Elec       q    Type
REMARK                         _______ _______ _______ _____ _____    ______ ____
ROOT
ATOM      1  C   UNL     1       2.171   8.390  17.855  0.00  0.00    +0.000 C 
ATOM      2  O   UNL     1       2.747   9.190  17.135  0.00  0.00    +0.000 OA
ENDROOT
BRANCH   1   3
ATOM      3  C   UNL     1       0.727   9.032  18.499  0.00  0.00    +0.000 A 
ATOM      4  C   UNL     1       0.996   9.031  19.895  0.00  0.00    +0.000 A 
ATOM      5  C   UNL     1       0.105   9.608  20.762  0.00  0.00    +0.000 A 
ATOM      6  C   UNL     1      -0.097  10.892  20.315  0.00  0.00    +0.000 A 
ATOM      7  C   UNL     1      -0.728  10.985  19.111  0.00  0.00    +0.000 A 
ATOM      8  C   UNL     1      -1.729  12.006  19.168  0.00  0.00    +0.000 A 
ATOM      9  C   UNL     1      -2.909  11.894  18.472  0.00  0.00    +0.000 A 
ATOM     10  C   UNL     1      -2.999  10.784  17.650  0.00  0.00    +0.000 A 
ATOM     11  C   UNL     1      -1.876   9.849  17.461  0.00  0.00    +0.000 A 
ATOM     12  C   UNL     1      -0.573   9.886  18.201  0.00  0.00    +0.000 A 
BRANCH   6  13
ATOM     13  C   UNL     1       0.606  12.032  20.922  0.00  0.00    +0.000 C 
ATOM     14  O   UNL     1       0.253  12.491  22.001  0.00  0.00    +0.000 OA
ATOM     15  N   UNL     1       1.644  12.522  20.172  0.00  0.00    +0.000 N 
ATOM     16  C   UNL     1       2.433  13.628  20.626  0.00  0.00    +0.000 C 
ATOM     17  H   UNL     1       1.866  12.105  19.278  0.00  0.00    +0.000 HD
ENDBRANCH   6  13
ENDBRANCH   1   3
BRANCH   1  20
ATOM     18  N   UNL     1       4.893   5.874  18.309  0.00  0.00    +0.000 N 
ATOM     19  C   UNL     1       4.376   7.117  18.028  0.00  0.00    +0.000 A 
ATOM     20  C   UNL     1       2.949   7.072  17.982  0.00  0.00    +0.000 A 
ATOM     21  C   UNL     1       2.676   5.636  18.011  0.00  0.00    +0.000 A 
ATOM     22  C   UNL     1       1.556   4.781  17.849  0.00  0.00    +0.000 A 
ATOM     23  C   UNL     1       1.642   3.395  18.088  0.00  0.00    +0.000 A 
ATOM     24  C   UNL     1       2.814   2.774  18.481  0.00  0.00    +0.000 A 
ATOM     25  C   UNL     1       3.947   3.569  18.568  0.00  0.00    +0.000 A 
ATOM     26  C   UNL     1       3.876   4.955  18.307  0.00  0.00    +0.000 A 
BRANCH  18  27
ATOM     27  C   UNL     1       6.282   5.551  18.647  0.00  0.00    +0.000 C 
BRANCH  27  28
ATOM     28  C   UNL     1       7.244   5.700  17.469  0.00  0.00    +0.000 C 
BRANCH  28  29
ATOM     29  C   UNL     1       7.287   4.434  16.607  0.00  0.00    +0.000 C 
BRANCH  29  31
ATOM     30  C   UNL     1       5.544   5.216  14.961  0.00  0.00    +0.000 C 
ATOM     31  C   UNL     1       6.982   4.761  15.145  0.00  0.00    +0.000 C 
ENDBRANCH  29  31
ENDBRANCH  28  29
ENDBRANCH  27  28
ENDBRANCH  18  27
ENDBRANCH   1  20
TORSDOF 7
ENDMDL
MODEL 5
REMARK VINA RESULT:      -8.7      1.966      3.225
REMARK  Name = 
REMARK  9 active torsions:
REMARK  status: ('A' for Active; 'I' for Inactive)
REMARK    1  A    between atoms: C_1  and  C_2
REMARK    2  A    between atoms: C_2  and  C_3
REMARK    3  A    between atoms: C_3  and  C_4
REMARK    4  A    between atoms: C_4  and  C_5
REMARK    5  A    between atoms: C_5  and  N_6
REMARK    6  A    between atoms: C_8  and  C_9
REMARK    7  A    between atoms: C_9  and  C_11
REMARK    8  A    between atoms: C_14  and  C_15
REMARK    9  A    between atoms: N_17  and  C_18
REMARK                            x       y       z     vdW  Elec       q    Type
REMARK                         _______ _______ _______ _____ _____    ______ ____
ROOT
ATOM      1  C   UNL     1       2.021   8.221  18.684  0.00  0.00    +0.000 C 
ATOM      2  O   UNL     1       2.652   8.679  17.744  0.00  0.00    +0.000 OA
ENDROOT
BRANCH   1   3
ATOM      3  C   UNL     1       2.196   6.528  18.808  0.00  0.00    +0.000 A 
ATOM      4  C   UNL     1       3.004   6.226  17.678  0.00  0.00    +0.000 A 
ATOM      5  C   UNL     1       3.481   4.954  17.501  0.00  0.00    +0.000 A 
ATOM      6  C   UNL     1       4.137   4.619  18.661  0.00  0.00    +0.000 A 
ATOM      7  C   UNL     1       3.336   4.501  19.757  0.00  0.00    +0.000 A 
ATOM      8  C   UNL     1       3.697   3.330  20.496  0.00  0.00    +0.000 A 
ATOM      9  C   UNL     1       2.755   2.583  21.161  0.00  0.00    +0.000 A 
ATOM     10  C   UNL     1       1.473   3.106  21.141  0.00  0.00    +0.000 A 
ATOM     11  C   UNL     1       1.165   4.413  20.537  0.00  0.00    +0.000 A 
ATOM     12  C   UNL     1       2.126   5.272  19.771  0.00  0.00    +0.000 A 
BRANCH   6  13
ATOM     13  C   UNL     1       5.601   4.713  18.766  0.00  0.00    +0.000 C 
ATOM     14  O   UNL     1       6.138   5.078  19.804  0.00  0.00    +0.000 OA
ATOM     15  N   UNL     1       6.273   4.383  17.618  0.00  0.00    +0.000 N 
ATOM     16  C   UNL     1       7.704   4.417  17.557  0.00  0.00    +0.000 C 
ATOM     17  H   UNL     1       5.761   4.109  16.790  0.00  0.00    +0.000 HD
ENDBRANCH   6  13
ENDBRANCH   1   3
BRANCH   1  20
ATOM     18  N   UNL     1       0.085  11.306  19.509  0.00  0.00    +0.000 N 
ATOM     19  C   UNL     1       0.923  10.523  18.749  0.00  0.00    +0.000 A 
ATOM     20  C   UNL     1       1.241   9.311  19.433  0.00  0.00    +0.000 A 
ATOM     21  C   UNL     1       0.721   9.559  20.777  0.00  0.00    +0.000 A 
ATOM     22  C   UNL     1       0.769   8.935  22.050  0.00  0.00    +0.000 A 
ATOM     23  C   UNL     1       0.004   9.406  23.135  0.00  0.00    +0.000 A 
ATOM     24  C   UNL     1      -0.830  10.506  23.042  0.00  0.00    +0.000 A 
ATOM     25  C   UNL     1      -0.837  11.188  21.835  0.00  0.00    +0.000 A 
ATOM     26  C   UNL     1      -0.055  10.738  20.748  0.00  0.00    +0.000 A 
BRANCH  18  27
ATOM     27  C   UNL     1      -0.630  12.511  19.079  0.00  0.00    +0.000 C 
BRANCH  27  28
ATOM     28  C   UNL     1      -2.084  12.247  18.689  0.00  0.00    +0.000 C 
BRANCH  28  29
ATOM     29  C   UNL     1      -2.185  11.422  17.402  0.00  0.00    +0.000 C 
BRANCH  29  31
ATOM     30  C   UNL     1      -4.654  11.239  16.921  0.00  0.00    +0.000 C 
ATOM     31  C   UNL     1      -3.418  10.517  17.432  0.00  0.00    +0.000 C 
ENDBRANCH  29  31
ENDBRANCH  28  29
ENDBRANCH  27  28
ENDBRANCH  18  27
ENDBRANCH   1  20
TORSDOF 7
ENDMDL
MODEL 6
REMARK VINA RESULT:      -8.7      2.195      3.802
REMARK  Name = 
REMARK  9 active torsions:
REMARK  status: ('A' for Active; 'I' for Inactive)
REMARK    1  A    between atoms: C_1  and  C_2
REMARK    2  A    between atoms: C_2  and  C_3
REMARK    3  A    between atoms: C_3  and  C_4
REMARK    4  A    between atoms: C_4  and  C_5
REMARK    5  A    between atoms: C_5  and  N_6
REMARK    6  A    between atoms: C_8  and  C_9
REMARK    7  A    between atoms: C_9  and  C_11
REMARK    8  A    between atoms: C_14  and  C_15
REMARK    9  A    between atoms: N_17  and  C_18
REMARK                            x       y       z     vdW  Elec       q    Type
REMARK                         _______ _______ _______ _____ _____    ______ ____
ROOT
ATOM      1  C   UNL     1       2.011   8.219  18.755  0.00  0.00    +0.000 C 
ATOM      2  O   UNL     1       2.728   8.714  17.900  0.00  0.00    +0.000 OA
ENDROOT
BRANCH   1   3
ATOM      3  C   UNL     1       2.199   6.525  18.847  0.00  0.00    +0.000 A 
ATOM      4  C   UNL     1       3.009   6.252  17.711  0.00  0.00    +0.000 A 
ATOM      5  C   UNL     1       3.496   4.987  17.509  0.00  0.00    +0.000 A 
ATOM      6  C   UNL     1       4.155   4.635  18.662  0.00  0.00    +0.000 A 
ATOM      7  C   UNL     1       3.355   4.490  19.756  0.00  0.00    +0.000 A 
ATOM      8  C   UNL     1       3.726   3.308  20.472  0.00  0.00    +0.000 A 
ATOM      9  C   UNL     1       2.791   2.540  21.123  0.00  0.00    +0.000 A 
ATOM     10  C   UNL     1       1.504   3.053  21.113  0.00  0.00    +0.000 A 
ATOM     11  C   UNL     1       1.185   4.370  20.535  0.00  0.00    +0.000 A 
ATOM     12  C   UNL     1       2.139   5.251  19.785  0.00  0.00    +0.000 A 
BRANCH   6  13
ATOM     13  C   UNL     1       5.618   4.739  18.769  0.00  0.00    +0.000 C 
ATOM     14  O   UNL     1       6.150   5.142  19.796  0.00  0.00    +0.000 OA
ATOM     15  N   UNL     1       6.296   4.372  17.635  0.00  0.00    +0.000 N 
ATOM     16  C   UNL     1       7.727   4.410  17.578  0.00  0.00    +0.000 C 
ATOM     17  H   UNL     1       5.788   4.067  16.815  0.00  0.00    +0.000 HD
ENDBRANCH   6  13
ENDBRANCH   1   3
BRANCH   1  20
ATOM     18  N   UNL     1      -0.241  11.123  19.420  0.00  0.00    +0.000 N 
ATOM     19  C   UNL     1       0.651  10.377  18.685  0.00  0.00    +0.000 A 
ATOM     20  C   UNL     1       1.139   9.275  19.451  0.00  0.00    +0.000 A 
ATOM     21  C   UNL     1       0.649   9.580  20.794  0.00  0.00    +0.000 A 
ATOM     22  C   UNL     1       0.824   9.080  22.110  0.00  0.00    +0.000 A 
ATOM     23  C   UNL     1       0.055   9.555  23.191  0.00  0.00    +0.000 A 
ATOM     24  C   UNL     1      -0.906  10.540  23.051  0.00  0.00    +0.000 A 
ATOM     25  C   UNL     1      -1.044  11.108  21.793  0.00  0.00    +0.000 A 
ATOM     26  C   UNL     1      -0.261  10.655  20.708  0.00  0.00    +0.000 A 
BRANCH  18  27
ATOM     27  C   UNL     1      -1.110  12.196  18.929  0.00  0.00    +0.000 C 
BRANCH  27  28
ATOM     28  C   UNL     1      -0.343  13.363  18.309  0.00  0.00    +0.000 C 
BRANCH  28  29
ATOM     29  C   UNL     1       0.380  14.197  19.373  0.00  0.00    +0.000 C 
BRANCH  29  31
ATOM     30  C   UNL     1       2.372  13.362  20.675  0.00  0.00    +0.000 C 
ATOM     31  C   UNL     1       1.884  13.922  19.349  0.00  0.00    +0.000 C 
ENDBRANCH  29  31
ENDBRANCH  28  29
ENDBRANCH  27  28
ENDBRANCH  18  27
ENDBRANCH   1  20
TORSDOF 7
ENDMDL
MODEL 7
REMARK VINA RESULT:      -8.7      1.845      8.202
REMARK  Name = 
REMARK  9 active torsions:
REMARK  status: ('A' for Active; 'I' for Inactive)
REMARK    1  A    between atoms: C_1  and  C_2
REMARK    2  A    between atoms: C_2  and  C_3
REMARK    3  A    between atoms: C_3  and  C_4
REMARK    4  A    between atoms: C_4  and  C_5
REMARK    5  A    between atoms: C_5  and  N_6
REMARK    6  A    between atoms: C_8  and  C_9
REMARK    7  A    between atoms: C_9  and  C_11
REMARK    8  A    between atoms: C_14  and  C_15
REMARK    9  A    between atoms: N_17  and  C_18
REMARK                            x       y       z     vdW  Elec       q    Type
REMARK                         _______ _______ _______ _____ _____    ______ ____
ROOT
ATOM      1  C   UNL     1       2.093   8.681  18.070  0.00  0.00    +0.000 C 
ATOM      2  O   UNL     1       2.667   9.515  17.389  0.00  0.00    +0.000 OA
ENDROOT
BRANCH   1   3
ATOM      3  C   UNL     1       0.615   9.266  18.690  0.00  0.00    +0.000 A 
ATOM      4  C   UNL     1       0.860   9.275  20.091  0.00  0.00    +0.000 A 
ATOM      5  C   UNL     1      -0.067   9.816  20.942  0.00  0.00    +0.000 A 
ATOM      6  C   UNL     1      -0.310  11.092  20.491  0.00  0.00    +0.000 A 
ATOM      7  C   UNL     1      -0.924  11.162  19.277  0.00  0.00    +0.000 A 
ATOM      8  C   UNL     1      -1.965  12.143  19.317  0.00  0.00    +0.000 A 
ATOM      9  C   UNL     1      -3.128  11.986  18.602  0.00  0.00    +0.000 A 
ATOM     10  C   UNL     1      -3.162  10.873  17.779  0.00  0.00    +0.000 A 
ATOM     11  C   UNL     1      -2.001   9.983  17.609  0.00  0.00    +0.000 A 
ATOM     12  C   UNL     1      -0.712  10.070  18.371  0.00  0.00    +0.000 A 
BRANCH   6  13
ATOM     13  C   UNL     1       0.337  12.258  21.110  0.00  0.00    +0.000 C 
ATOM     14  O   UNL     1      -0.044  12.696  22.188  0.00  0.00    +0.000 OA
ATOM     15  N   UNL     1       1.360  12.796  20.371  0.00  0.00    +0.000 N 
ATOM     16  C   UNL     1       2.097  13.933  20.837  0.00  0.00    +0.000 C 
ATOM     17  H   UNL     1       1.607  12.393  19.477  0.00  0.00    +0.000 HD
ENDBRANCH   6  13
ENDBRANCH   1   3
BRANCH   1  20
ATOM     18  N   UNL     1       3.435   5.393  19.227  0.00  0.00    +0.000 N 
ATOM     19  C   UNL     1       2.777   6.593  19.368  0.00  0.00    +0.000 A 
ATOM     20  C   UNL     1       2.903   7.381  18.183  0.00  0.00    +0.000 A 
ATOM     21  C   UNL     1       3.910   6.646  17.419  0.00  0.00    +0.000 A 
ATOM     22  C   UNL     1       4.677   6.840  16.242  0.00  0.00    +0.000 A 
ATOM     23  C   UNL     1       5.485   5.817  15.708  0.00  0.00    +0.000 A 
ATOM     24  C   UNL     1       5.597   4.568  16.292  0.00  0.00    +0.000 A 
ATOM     25  C   UNL     1       4.924   4.373  17.489  0.00  0.00    +0.000 A 
ATOM     26  C   UNL     1       4.131   5.401  18.046  0.00  0.00    +0.000 A 
BRANCH  18  27
ATOM     27  C   UNL     1       3.365   4.236  20.124  0.00  0.00    +0.000 C 
BRANCH  27  28
ATOM     28  C   UNL     1       2.154   4.263  21.056  0.00  0.00    +0.000 C 
BRANCH  28  29
ATOM     29  C   UNL     1       1.397   2.930  21.042  0.00  0.00    +0.000 C 
BRANCH  29  31
ATOM     30  C   UNL     1       0.704   2.419  18.671  0.00  0.00    +0.000 C 
ATOM     31  C   UNL     1       1.714   2.139  19.772  0.00  0.00    +0.000 C 
ENDBRANCH  29  31
ENDBRANCH  28  29
ENDBRANCH  27  28
ENDBRANCH  18  27
ENDBRANCH   1  20
TORSDOF 7
ENDMDL
MODEL 8
REMARK VINA RESULT:      -8.7      1.820      8.193
REMARK  Name = 
REMARK  9 active torsions:
REMARK  status: ('A' for Active; 'I' for Inactive)
REMARK    1  A    between atoms: C_1  and  C_2
REMARK    2  A    between atoms: C_2  and  C_3
REMARK    3  A    between atoms: C_3  and  C_4
REMARK    4  A    between atoms: C_4  and  C_5
REMARK    5  A    between atoms: C_5  and  N_6
REMARK    6  A    between atoms: C_8  and  C_9
REMARK    7  A    between atoms: C_9  and  C_11
REMARK    8  A    between atoms: C_14  and  C_15
REMARK    9  A    between atoms: N_17  and  C_18
REMARK                            x       y       z     vdW  Elec       q    Type
REMARK                         _______ _______ _______ _____ _____    ______ ____
ROOT
ATOM      1  C   UNL     1       2.401   8.430  17.869  0.00  0.00    +0.000 C 
ATOM      2  O   UNL     1       3.143   9.323  17.491  0.00  0.00    +0.000 OA
ENDROOT
BRANCH   1   3
ATOM      3  C   UNL     1       0.918   9.035  18.458  0.00  0.00    +0.000 A 
ATOM      4  C   UNL     1       1.122   9.012  19.864  0.00  0.00    +0.000 A 
ATOM      5  C   UNL     1       0.183   9.558  20.699  0.00  0.00    +0.000 A 
ATOM      6  C   UNL     1      -0.021  10.846  20.266  0.00  0.00    +0.000 A 
ATOM      7  C   UNL     1      -0.598  10.951  19.036  0.00  0.00    +0.000 A 
ATOM      8  C   UNL     1      -1.620  11.953  19.065  0.00  0.00    +0.000 A 
ATOM      9  C   UNL     1      -2.764  11.834  18.314  0.00  0.00    +0.000 A 
ATOM     10  C   UNL     1      -2.797  10.737  17.469  0.00  0.00    +0.000 A 
ATOM     11  C   UNL     1      -1.650   9.826  17.315  0.00  0.00    +0.000 A 
ATOM     12  C   UNL     1      -0.382   9.871  18.115  0.00  0.00    +0.000 A 
BRANCH   6  13
ATOM     13  C   UNL     1       0.632  11.987  20.925  0.00  0.00    +0.000 C 
ATOM     14  O   UNL     1       0.235  12.406  22.004  0.00  0.00    +0.000 OA
ATOM     15  N   UNL     1       1.679  12.524  20.220  0.00  0.00    +0.000 N 
ATOM     16  C   UNL     1       2.425  13.637  20.728  0.00  0.00    +0.000 C 
ATOM     17  H   UNL     1       1.939  12.137  19.322  0.00  0.00    +0.000 HD
ENDBRANCH   6  13
ENDBRANCH   1   3
BRANCH   1  20
ATOM     18  N   UNL     1       2.957   4.743  17.649  0.00  0.00    +0.000 N 
ATOM     19  C   UNL     1       2.265   5.884  17.983  0.00  0.00    +0.000 A 
ATOM     20  C   UNL     1       3.054   7.047  17.729  0.00  0.00    +0.000 A 
ATOM     21  C   UNL     1       4.373   6.480  17.451  0.00  0.00    +0.000 A 
ATOM     22  C   UNL     1       5.697   6.954  17.262  0.00  0.00    +0.000 A 
ATOM     23  C   UNL     1       6.740   6.096  16.861  0.00  0.00    +0.000 A 
ATOM     24  C   UNL     1       6.554   4.743  16.637  0.00  0.00    +0.000 A 
ATOM     25  C   UNL     1       5.290   4.233  16.893  0.00  0.00    +0.000 A 
ATOM     26  C   UNL     1       4.243   5.081  17.318  0.00  0.00    +0.000 A 
BRANCH  18  27
ATOM     27  C   UNL     1       2.424   3.380  17.563  0.00  0.00    +0.000 C 
BRANCH  27  28
ATOM     28  C   UNL     1       2.460   2.630  18.894  0.00  0.00    +0.000 C 
BRANCH  28  29
ATOM     29  C   UNL     1       1.103   2.672  19.605  0.00  0.00    +0.000 C 
BRANCH  29  31
ATOM     30  C   UNL     1       2.195   4.189  21.298  0.00  0.00    +0.000 C 
ATOM     31  C   UNL     1       1.277   2.996  21.090  0.00  0.00    +0.000 C 
ENDBRANCH  29  31
ENDBRANCH  28  29
ENDBRANCH  27  28
ENDBRANCH  18  27
ENDBRANCH   1  20
TORSDOF 7
ENDMDL
MODEL 9
REMARK VINA RESULT:      -8.7      1.836      8.249
REMARK  Name = 
REMARK  9 active torsions:
REMARK  status: ('A' for Active; 'I' for Inactive)
REMARK    1  A    between atoms: C_1  and  C_2
REMARK    2  A    between atoms: C_2  and  C_3
REMARK    3  A    between atoms: C_3  and  C_4
REMARK    4  A    between atoms: C_4  and  C_5
REMARK    5  A    between atoms: C_5  and  N_6
REMARK    6  A    between atoms: C_8  and  C_9
REMARK    7  A    between atoms: C_9  and  C_11
REMARK    8  A    between atoms: C_14  and  C_15
REMARK    9  A    between atoms: N_17  and  C_18
REMARK                            x       y       z     vdW  Elec       q    Type
REMARK                         _______ _______ _______ _____ _____    ______ ____
ROOT
ATOM      1  C   UNL     1       1.637   8.987  18.148  0.00  0.00    +0.000 C 
ATOM      2  O   UNL     1       2.244   9.783  17.450  0.00  0.00    +0.000 OA
ENDROOT
BRANCH   1   3
ATOM      3  C   UNL     1       0.109   9.583  18.619  0.00  0.00    +0.000 A 
ATOM      4  C   UNL     1       0.369  10.072  19.929  0.00  0.00    +0.000 A 
ATOM      5  C   UNL     1      -0.603  10.760  20.606  0.00  0.00    +0.000 A 
ATOM      6  C   UNL     1      -0.998  11.786  19.782  0.00  0.00    +0.000 A 
ATOM      7  C   UNL     1      -1.631  11.393  18.641  0.00  0.00    +0.000 A 
ATOM      8  C   UNL     1      -2.778  12.219  18.415  0.00  0.00    +0.000 A 
ATOM      9  C   UNL     1      -3.923  11.717  17.847  0.00  0.00    +0.000 A 
ATOM     10  C   UNL     1      -3.838  10.400  17.427  0.00  0.00    +0.000 A 
ATOM     11  C   UNL     1      -2.585   9.630  17.495  0.00  0.00    +0.000 A 
ATOM     12  C   UNL     1      -1.305  10.095  18.124  0.00  0.00    +0.000 A 
BRANCH   6  13
ATOM     13  C   UNL     1      -0.482  13.152  19.960  0.00  0.00    +0.000 C 
ATOM     14  O   UNL     1      -0.786  13.820  20.940  0.00  0.00    +0.000 OA
ATOM     15  N   UNL     1       0.328  13.588  18.943  0.00  0.00    +0.000 N 
ATOM     16  C   UNL     1       0.917  14.894  18.969  0.00  0.00    +0.000 C 
ATOM     17  H   UNL     1       0.520  12.987  18.153  0.00  0.00    +0.000 HD
ENDBRANCH   6  13
ENDBRANCH   1   3
BRANCH   1  20
ATOM     18  N   UNL     1       2.920   5.797  19.605  0.00  0.00    +0.000 N 
ATOM     19  C   UNL     1       2.225   6.983  19.615  0.00  0.00    +0.000 A 
ATOM     20  C   UNL     1       2.459   7.716  18.412  0.00  0.00    +0.000 A 
ATOM     21  C   UNL     1       3.557   6.973  17.796  0.00  0.00    +0.000 A 
ATOM     22  C   UNL     1       4.440   7.130  16.697  0.00  0.00    +0.000 A 
ATOM     23  C   UNL     1       5.322   6.104  16.304  0.00  0.00    +0.000 A 
ATOM     24  C   UNL     1       5.398   4.888  16.960  0.00  0.00    +0.000 A 
ATOM     25  C   UNL     1       4.606   4.734  18.088  0.00  0.00    +0.000 A 
ATOM     26  C   UNL     1       3.737   5.766  18.505  0.00  0.00    +0.000 A 
BRANCH  18  27
ATOM     27  C   UNL     1       2.781   4.683  20.548  0.00  0.00    +0.000 C 
BRANCH  27  28
ATOM     28  C   UNL     1       1.340   4.198  20.706  0.00  0.00    +0.000 C 
BRANCH  28  29
ATOM     29  C   UNL     1       1.141   2.803  20.102  0.00  0.00    +0.000 C 
BRANCH  29  31
ATOM     30  C   UNL     1       2.239   2.130  17.934  0.00  0.00    +0.000 C 
ATOM     31  C   UNL     1       1.081   2.876  18.576  0.00  0.00    +0.000 C 
ENDBRANCH  29  31
ENDBRANCH  28  29
ENDBRANCH  27  28
ENDBRANCH  18  27
ENDBRANCH   1  20
TORSDOF 7
ENDMDL
