MODEL 1
REMARK VINA RESULT:      -7.9      0.000      0.000
REMARK  Name = 
REMARK  10 active torsions:
REMARK  status: ('A' for Active; 'I' for Inactive)
REMARK    1  A    between atoms: C_1  and  C_2
REMARK    2  A    between atoms: N_4  and  C_5
REMARK    3  A    between atoms: C_5  and  C_6
REMARK    4  A    between atoms: C_5  and  C_7
REMARK    5  A    between atoms: N_9  and  C_10
REMARK    6  A    between atoms: C_10  and  C_11
REMARK    7  A    between atoms: C_14  and  O_15
REMARK    8  A    between atoms: O_15  and  C_16
REMARK    9  A    between atoms: C_16  and  C_17
REMARK   10  A    between atoms: C_16  and  C_18
REMARK                            x       y       z     vdW  Elec       q    Type
REMARK                         _______ _______ _______ _____ _____    ______ ____
ROOT
ATOM      1  C   UNL     1       2.807   3.836  19.269  0.00  0.00    +0.000 C 
ATOM      2  C   UNL     1       3.005   2.448  19.878  0.00  0.00    +0.000 C 
ENDROOT
BRANCH   1   6
ATOM      3  C   UNL     1       7.248   5.800  19.383  0.00  0.00    +0.000 C 
ATOM      4  C   UNL     1       6.136   5.176  18.582  0.00  0.00    +0.000 A 
ATOM      5  N   UNL     1       5.048   4.827  19.207  0.00  0.00    +0.000 NA
ATOM      6  N   UNL     1       3.991   4.253  18.485  0.00  0.00    +0.000 N 
ATOM      7  C   UNL     1       4.009   4.024  17.088  0.00  0.00    +0.000 A 
ATOM      8  O   UNL     1       3.069   3.534  16.469  0.00  0.00    +0.000 OA
ATOM      9  C   UNL     1       5.246   4.415  16.420  0.00  0.00    +0.000 A 
ATOM     10  C   UNL     1       6.258   4.968  17.166  0.00  0.00    +0.000 A 
ATOM     11  S   UNL     1       7.618   5.372  16.254  0.00  0.00    +0.000 S 
ATOM     12  C   UNL     1       6.906   4.782  14.803  0.00  0.00    +0.000 A 
ATOM     13  C   UNL     1       7.498   4.769  13.524  0.00  0.00    +0.000 A 
ATOM     14  C   UNL     1       6.782   4.240  12.450  0.00  0.00    +0.000 A 
ATOM     15  C   UNL     1       5.505   3.737  12.639  0.00  0.00    +0.000 A 
ATOM     16  C   UNL     1       4.917   3.757  13.910  0.00  0.00    +0.000 A 
ATOM     17  C   UNL     1       5.615   4.285  15.029  0.00  0.00    +0.000 A 
ENDBRANCH   1   6
BRANCH   1  18
ATOM     18  C   UNL     1       2.432   4.846  20.375  0.00  0.00    +0.000 C 
ATOM     19  O   UNL     1       2.316   4.502  21.551  0.00  0.00    +0.000 OA
ATOM     20  N   UNL     1       2.430   6.169  20.000  0.00  0.00    +0.000 N 
ATOM     21  H   UNL     1       2.461   6.354  19.000  0.00  0.00    +0.000 HD
BRANCH  20  22
ATOM     22  C   UNL     1       2.105   7.240  20.917  0.00  0.00    +0.000 C 
BRANCH  22  23
ATOM     23  C   UNL     1       1.333   8.338  20.228  0.00  0.00    +0.000 A 
ATOM     24  C   UNL     1       1.582   8.674  18.894  0.00  0.00    +0.000 A 
ATOM     25  C   UNL     1       0.905   9.744  18.297  0.00  0.00    +0.000 A 
ATOM     26  C   UNL     1      -0.049  10.475  19.010  0.00  0.00    +0.000 A 
ATOM     27  C   UNL     1      -0.358  10.094  20.312  0.00  0.00    +0.000 A 
ATOM     28  C   UNL     1       0.336   9.043  20.920  0.00  0.00    +0.000 A 
BRANCH  26  29
ATOM     29  O   UNL     1      -0.533  11.578  18.364  0.00  0.00    +0.000 OA
BRANCH  29  30
ATOM     30  C   UNL     1      -1.833  11.517  17.765  0.00  0.00    +0.000 C 
ATOM     31  C   UNL     1      -2.201  10.092  17.352  0.00  0.00    +0.000 C 
ATOM     32  C   UNL     1      -2.811  11.973  18.851  0.00  0.00    +0.000 C 
ENDBRANCH  29  30
ENDBRANCH  26  29
ENDBRANCH  22  23
ENDBRANCH  20  22
ENDBRANCH   1  18
TORSDOF 6
ENDMDL
MODEL 2
REMARK VINA RESULT:      -7.9      4.461     10.788
REMARK  Name = 
REMARK  10 active torsions:
REMARK  status: ('A' for Active; 'I' for Inactive)
REMARK    1  A    between atoms: C_1  and  C_2
REMARK    2  A    between atoms: N_4  and  C_5
REMARK    3  A    between atoms: C_5  and  C_6
REMARK    4  A    between atoms: C_5  and  C_7
REMARK    5  A    between atoms: N_9  and  C_10
REMARK    6  A    between atoms: C_10  and  C_11
REMARK    7  A    between atoms: C_14  and  O_15
REMARK    8  A    between atoms: O_15  and  C_16
REMARK    9  A    between atoms: C_16  and  C_17
REMARK   10  A    between atoms: C_16  and  C_18
REMARK                            x       y       z     vdW  Elec       q    Type
REMARK                         _______ _______ _______ _____ _____    ______ ____
ROOT
ATOM      1  C   UNL     1       0.178  12.210  19.783  0.00  0.00    +0.000 C 
ATOM      2  C   UNL     1       0.314  11.643  21.196  0.00  0.00    +0.000 C 
ENDROOT
BRANCH   1   6
ATOM      3  C   UNL     1      -2.662  10.682  16.151  0.00  0.00    +0.000 C 
ATOM      4  C   UNL     1      -2.541  11.294  17.522  0.00  0.00    +0.000 A 
ATOM      5  N   UNL     1      -1.348  11.488  18.007  0.00  0.00    +0.000 NA
ATOM      6  N   UNL     1      -1.205  12.066  19.277  0.00  0.00    +0.000 N 
ATOM      7  C   UNL     1      -2.285  12.477  20.094  0.00  0.00    +0.000 A 
ATOM      8  O   UNL     1      -2.141  12.995  21.198  0.00  0.00    +0.000 OA
ATOM      9  C   UNL     1      -3.608  12.234  19.527  0.00  0.00    +0.000 A 
ATOM     10  C   UNL     1      -3.702  11.661  18.284  0.00  0.00    +0.000 A 
ATOM     11  S   UNL     1      -5.293  11.450  17.762  0.00  0.00    +0.000 S 
ATOM     12  C   UNL     1      -5.930  12.100  19.222  0.00  0.00    +0.000 A 
ATOM     13  C   UNL     1      -7.293  12.246  19.550  0.00  0.00    +0.000 A 
ATOM     14  C   UNL     1      -7.640  12.785  20.789  0.00  0.00    +0.000 A 
ATOM     15  C   UNL     1      -6.655  13.174  21.684  0.00  0.00    +0.000 A 
ATOM     16  C   UNL     1      -5.302  13.034  21.353  0.00  0.00    +0.000 A 
ATOM     17  C   UNL     1      -4.909  12.488  20.101  0.00  0.00    +0.000 A 
ENDBRANCH   1   6
BRANCH   1  18
ATOM     18  C   UNL     1       1.230  11.564  18.855  0.00  0.00    +0.000 C 
ATOM     19  O   UNL     1       2.177  12.208  18.406  0.00  0.00    +0.000 OA
ATOM     20  N   UNL     1       1.150  10.197  18.724  0.00  0.00    +0.000 N 
ATOM     21  H   UNL     1       0.296   9.760  19.066  0.00  0.00    +0.000 HD
BRANCH  20  22
ATOM     22  C   UNL     1       2.062   9.438  17.896  0.00  0.00    +0.000 C 
BRANCH  22  23
ATOM     23  C   UNL     1       2.365   8.091  18.504  0.00  0.00    +0.000 A 
ATOM     24  C   UNL     1       3.124   7.138  17.818  0.00  0.00    +0.000 A 
ATOM     25  C   UNL     1       3.331   5.869  18.371  0.00  0.00    +0.000 A 
ATOM     26  C   UNL     1       2.811   5.540  19.626  0.00  0.00    +0.000 A 
ATOM     27  C   UNL     1       2.123   6.511  20.347  0.00  0.00    +0.000 A 
ATOM     28  C   UNL     1       1.891   7.771  19.786  0.00  0.00    +0.000 A 
BRANCH  26  29
ATOM     29  O   UNL     1       2.960   4.232  19.989  0.00  0.00    +0.000 OA
BRANCH  29  30
ATOM     30  C   UNL     1       1.957   3.285  19.601  0.00  0.00    +0.000 C 
ATOM     31  C   UNL     1       2.567   2.059  18.922  0.00  0.00    +0.000 C 
ATOM     32  C   UNL     1       1.288   2.835  20.902  0.00  0.00    +0.000 C 
ENDBRANCH  29  30
ENDBRANCH  26  29
ENDBRANCH  22  23
ENDBRANCH  20  22
ENDBRANCH   1  18
TORSDOF 6
ENDMDL
MODEL 3
REMARK VINA RESULT:      -7.9      0.819      1.338
REMARK  Name = 
REMARK  10 active torsions:
REMARK  status: ('A' for Active; 'I' for Inactive)
REMARK    1  A    between atoms: C_1  and  C_2
REMARK    2  A    between atoms: N_4  and  C_5
REMARK    3  A    between atoms: C_5  and  C_6
REMARK    4  A    between atoms: C_5  and  C_7
REMARK    5  A    between atoms: N_9  and  C_10
REMARK    6  A    between atoms: C_10  and  C_11
REMARK    7  A    between atoms: C_14  and  O_15
REMARK    8  A    between atoms: O_15  and  C_16
REMARK    9  A    between atoms: C_16  and  C_17
REMARK   10  A    between atoms: C_16  and  C_18
REMARK                            x       y       z     vdW  Elec       q    Type
REMARK                         _______ _______ _______ _____ _____    ______ ____
ROOT
ATOM      1  C   UNL     1       2.443   3.550  19.056  0.00  0.00    +0.000 C 
ATOM      2  C   UNL     1       2.603   2.122  19.578  0.00  0.00    +0.000 C 
ENDROOT
BRANCH   1   6
ATOM      3  C   UNL     1       6.847   5.558  19.460  0.00  0.00    +0.000 C 
ATOM      4  C   UNL     1       5.786   4.945  18.584  0.00  0.00    +0.000 A 
ATOM      5  N   UNL     1       4.672   4.566  19.141  0.00  0.00    +0.000 NA
ATOM      6  N   UNL     1       3.661   4.002  18.348  0.00  0.00    +0.000 N 
ATOM      7  C   UNL     1       3.755   3.816  16.948  0.00  0.00    +0.000 A 
ATOM      8  O   UNL     1       2.854   3.334  16.267  0.00  0.00    +0.000 OA
ATOM      9  C   UNL     1       5.020   4.240  16.357  0.00  0.00    +0.000 A 
ATOM     10  C   UNL     1       5.984   4.781  17.171  0.00  0.00    +0.000 A 
ATOM     11  S   UNL     1       7.385   5.227  16.344  0.00  0.00    +0.000 S 
ATOM     12  C   UNL     1       6.757   4.673  14.841  0.00  0.00    +0.000 A 
ATOM     13  C   UNL     1       7.415   4.705  13.595  0.00  0.00    +0.000 A 
ATOM     14  C   UNL     1       6.762   4.201  12.469  0.00  0.00    +0.000 A 
ATOM     15  C   UNL     1       5.483   3.678  12.577  0.00  0.00    +0.000 A 
ATOM     16  C   UNL     1       4.830   3.653  13.815  0.00  0.00    +0.000 A 
ATOM     17  C   UNL     1       5.462   4.156  14.984  0.00  0.00    +0.000 A 
ENDBRANCH   1   6
BRANCH   1  18
ATOM     18  C   UNL     1       2.036   4.489  20.213  0.00  0.00    +0.000 C 
ATOM     19  O   UNL     1       1.812   4.059  21.344  0.00  0.00    +0.000 OA
ATOM     20  N   UNL     1       2.130   5.835  19.950  0.00  0.00    +0.000 N 
ATOM     21  H   UNL     1       2.247   6.097  18.973  0.00  0.00    +0.000 HD
BRANCH  20  22
ATOM     22  C   UNL     1       1.789   6.846  20.927  0.00  0.00    +0.000 C 
BRANCH  22  23
ATOM     23  C   UNL     1       1.508   8.174  20.268  0.00  0.00    +0.000 A 
ATOM     24  C   UNL     1       0.801   9.180  20.933  0.00  0.00    +0.000 A 
ATOM     25  C   UNL     1       0.488  10.376  20.276  0.00  0.00    +0.000 A 
ATOM     26  C   UNL     1       0.899  10.599  18.959  0.00  0.00    +0.000 A 
ATOM     27  C   UNL     1       1.671   9.634  18.320  0.00  0.00    +0.000 A 
ATOM     28  C   UNL     1       1.962   8.427  18.964  0.00  0.00    +0.000 A 
BRANCH  26  29
ATOM     29  O   UNL     1       0.412  11.740  18.386  0.00  0.00    +0.000 OA
BRANCH  29  30
ATOM     30  C   UNL     1      -0.655  12.442  19.036  0.00  0.00    +0.000 C 
ATOM     31  C   UNL     1      -0.461  13.956  18.969  0.00  0.00    +0.000 C 
ATOM     32  C   UNL     1      -1.922  12.081  18.256  0.00  0.00    +0.000 C 
ENDBRANCH  29  30
ENDBRANCH  26  29
ENDBRANCH  22  23
ENDBRANCH  20  22
ENDBRANCH   1  18
TORSDOF 6
ENDMDL
MODEL 4
REMARK VINA RESULT:      -7.9      1.090      1.415
REMARK  Name = 
REMARK  10 active torsions:
REMARK  status: ('A' for Active; 'I' for Inactive)
REMARK    1  A    between atoms: C_1  and  C_2
REMARK    2  A    between atoms: N_4  and  C_5
REMARK    3  A    between atoms: C_5  and  C_6
REMARK    4  A    between atoms: C_5  and  C_7
REMARK    5  A    between atoms: N_9  and  C_10
REMARK    6  A    between atoms: C_10  and  C_11
REMARK    7  A    between atoms: C_14  and  O_15
REMARK    8  A    between atoms: O_15  and  C_16
REMARK    9  A    between atoms: C_16  and  C_17
REMARK   10  A    between atoms: C_16  and  C_18
REMARK                            x       y       z     vdW  Elec       q    Type
REMARK                         _______ _______ _______ _____ _____    ______ ____
ROOT
ATOM      1  C   UNL     1       2.572   3.609  19.151  0.00  0.00    +0.000 C 
ATOM      2  C   UNL     1       2.730   2.177  19.663  0.00  0.00    +0.000 C 
ENDROOT
BRANCH   1   6
ATOM      3  C   UNL     1       6.984   5.615  19.483  0.00  0.00    +0.000 C 
ATOM      4  C   UNL     1       5.910   4.998  18.625  0.00  0.00    +0.000 A 
ATOM      5  N   UNL     1       4.803   4.623  19.200  0.00  0.00    +0.000 NA
ATOM      6  N   UNL     1       3.781   4.056  18.424  0.00  0.00    +0.000 N 
ATOM      7  C   UNL     1       3.855   3.861  17.024  0.00  0.00    +0.000 A 
ATOM      8  O   UNL     1       2.945   3.376  16.358  0.00  0.00    +0.000 OA
ATOM      9  C   UNL     1       5.113   4.280  16.414  0.00  0.00    +0.000 A 
ATOM     10  C   UNL     1       6.089   4.825  17.211  0.00  0.00    +0.000 A 
ATOM     11  S   UNL     1       7.479   5.264  16.362  0.00  0.00    +0.000 S 
ATOM     12  C   UNL     1       6.830   4.701  14.872  0.00  0.00    +0.000 A 
ATOM     13  C   UNL     1       7.471   4.725  13.616  0.00  0.00    +0.000 A 
ATOM     14  C   UNL     1       6.803   4.214  12.503  0.00  0.00    +0.000 A 
ATOM     15  C   UNL     1       5.525   3.694  12.631  0.00  0.00    +0.000 A 
ATOM     16  C   UNL     1       4.888   3.677  13.878  0.00  0.00    +0.000 A 
ATOM     17  C   UNL     1       5.536   4.186  15.035  0.00  0.00    +0.000 A 
ENDBRANCH   1   6
BRANCH   1  18
ATOM     18  C   UNL     1       2.193   4.545  20.320  0.00  0.00    +0.000 C 
ATOM     19  O   UNL     1       2.143   4.140  21.481  0.00  0.00    +0.000 OA
ATOM     20  N   UNL     1       2.108   5.882  20.010  0.00  0.00    +0.000 N 
ATOM     21  H   UNL     1       2.089   6.116  19.019  0.00  0.00    +0.000 HD
BRANCH  20  22
ATOM     22  C   UNL     1       1.768   6.890  20.991  0.00  0.00    +0.000 C 
BRANCH  22  23
ATOM     23  C   UNL     1       1.346   8.179  20.329  0.00  0.00    +0.000 A 
ATOM     24  C   UNL     1       1.780   8.511  19.042  0.00  0.00    +0.000 A 
ATOM     25  C   UNL     1       1.436   9.745  18.478  0.00  0.00    +0.000 A 
ATOM     26  C   UNL     1       0.631  10.652  19.172  0.00  0.00    +0.000 A 
ATOM     27  C   UNL     1       0.131  10.293  20.420  0.00  0.00    +0.000 A 
ATOM     28  C   UNL     1       0.496   9.073  20.999  0.00  0.00    +0.000 A 
BRANCH  26  29
ATOM     29  O   UNL     1       0.486  11.872  18.575  0.00  0.00    +0.000 OA
BRANCH  29  30
ATOM     30  C   UNL     1       0.655  13.056  19.365  0.00  0.00    +0.000 C 
ATOM     31  C   UNL     1       2.125  13.463  19.470  0.00  0.00    +0.000 C 
ATOM     32  C   UNL     1      -0.101  14.160  18.621  0.00  0.00    +0.000 C 
ENDBRANCH  29  30
ENDBRANCH  26  29
ENDBRANCH  22  23
ENDBRANCH  20  22
ENDBRANCH   1  18
TORSDOF 6
ENDMDL
MODEL 5
REMARK VINA RESULT:      -7.8      1.365      1.953
REMARK  Name = 
REMARK  10 active torsions:
REMARK  status: ('A' for Active; 'I' for Inactive)
REMARK    1  A    between atoms: C_1  and  C_2
REMARK    2  A    between atoms: N_4  and  C_5
REMARK    3  A    between atoms: C_5  and  C_6
REMARK    4  A    between atoms: C_5  and  C_7
REMARK    5  A    between atoms: N_9  and  C_10
REMARK    6  A    between atoms: C_10  and  C_11
REMARK    7  A    between atoms: C_14  and  O_15
REMARK    8  A    between atoms: O_15  and  C_16
REMARK    9  A    between atoms: C_16  and  C_17
REMARK   10  A    between atoms: C_16  and  C_18
REMARK                            x       y       z     vdW  Elec       q    Type
REMARK                         _______ _______ _______ _____ _____    ______ ____
ROOT
ATOM      1  C   UNL     1       3.628   2.773  19.486  0.00  0.00    +0.000 C 
ATOM      2  C   UNL     1       4.308   2.168  20.714  0.00  0.00    +0.000 C 
ENDROOT
BRANCH   1   6
ATOM      3  C   UNL     1       7.415   5.812  19.383  0.00  0.00    +0.000 C 
ATOM      4  C   UNL     1       6.436   4.948  18.632  0.00  0.00    +0.000 A 
ATOM      5  N   UNL     1       5.529   4.310  19.315  0.00  0.00    +0.000 NA
ATOM      6  N   UNL     1       4.598   3.506  18.642  0.00  0.00    +0.000 N 
ATOM      7  C   UNL     1       4.556   3.336  17.237  0.00  0.00    +0.000 A 
ATOM      8  O   UNL     1       3.724   2.640  16.663  0.00  0.00    +0.000 OA
ATOM      9  C   UNL     1       5.593   4.055  16.503  0.00  0.00    +0.000 A 
ATOM     10  C   UNL     1       6.489   4.825  17.202  0.00  0.00    +0.000 A 
ATOM     11  S   UNL     1       7.621   5.596  16.217  0.00  0.00    +0.000 S 
ATOM     12  C   UNL     1       6.964   4.890  14.793  0.00  0.00    +0.000 A 
ATOM     13  C   UNL     1       7.431   5.072  13.475  0.00  0.00    +0.000 A 
ATOM     14  C   UNL     1       6.786   4.412  12.429  0.00  0.00    +0.000 A 
ATOM     15  C   UNL     1       5.700   3.590  12.683  0.00  0.00    +0.000 A 
ATOM     16  C   UNL     1       5.234   3.416  13.992  0.00  0.00    +0.000 A 
ATOM     17  C   UNL     1       5.865   4.070  15.084  0.00  0.00    +0.000 A 
ENDBRANCH   1   6
BRANCH   1  18
ATOM     18  C   UNL     1       2.431   3.645  19.924  0.00  0.00    +0.000 C 
ATOM     19  O   UNL     1       1.275   3.226  19.876  0.00  0.00    +0.000 OA
ATOM     20  N   UNL     1       2.751   4.828  20.547  0.00  0.00    +0.000 N 
ATOM     21  H   UNL     1       3.722   5.128  20.475  0.00  0.00    +0.000 HD
BRANCH  20  22
ATOM     22  C   UNL     1       1.748   5.757  21.021  0.00  0.00    +0.000 C 
BRANCH  22  23
ATOM     23  C   UNL     1       1.788   7.051  20.246  0.00  0.00    +0.000 A 
ATOM     24  C   UNL     1       1.269   8.234  20.782  0.00  0.00    +0.000 A 
ATOM     25  C   UNL     1       1.251   9.406  20.017  0.00  0.00    +0.000 A 
ATOM     26  C   UNL     1       1.774   9.425  18.721  0.00  0.00    +0.000 A 
ATOM     27  C   UNL     1       2.364   8.271  18.214  0.00  0.00    +0.000 A 
ATOM     28  C   UNL     1       2.359   7.091  18.965  0.00  0.00    +0.000 A 
BRANCH  26  29
ATOM     29  O   UNL     1       1.569  10.586  18.030  0.00  0.00    +0.000 OA
BRANCH  29  30
ATOM     30  C   UNL     1       1.526  11.824  18.751  0.00  0.00    +0.000 C 
ATOM     31  C   UNL     1       2.529  12.837  18.199  0.00  0.00    +0.000 C 
ATOM     32  C   UNL     1       0.114  12.376  18.539  0.00  0.00    +0.000 C 
ENDBRANCH  29  30
ENDBRANCH  26  29
ENDBRANCH  22  23
ENDBRANCH  20  22
ENDBRANCH   1  18
TORSDOF 6
ENDMDL
MODEL 6
REMARK VINA RESULT:      -7.7      4.238     10.815
REMARK  Name = 
REMARK  10 active torsions:
REMARK  status: ('A' for Active; 'I' for Inactive)
REMARK    1  A    between atoms: C_1  and  C_2
REMARK    2  A    between atoms: N_4  and  C_5
REMARK    3  A    between atoms: C_5  and  C_6
REMARK    4  A    between atoms: C_5  and  C_7
REMARK    5  A    between atoms: N_9  and  C_10
REMARK    6  A    between atoms: C_10  and  C_11
REMARK    7  A    between atoms: C_14  and  O_15
REMARK    8  A    between atoms: O_15  and  C_16
REMARK    9  A    between atoms: C_16  and  C_17
REMARK   10  A    between atoms: C_16  and  C_18
REMARK                            x       y       z     vdW  Elec       q    Type
REMARK                         _______ _______ _______ _____ _____    ______ ____
ROOT
ATOM      1  C   UNL     1      -0.258  11.464  20.136  0.00  0.00    +0.000 C 
ATOM      2  C   UNL     1      -0.279  10.494  21.317  0.00  0.00    +0.000 C 
ENDROOT
BRANCH   1   6
ATOM      3  C   UNL     1      -2.953   9.901  16.410  0.00  0.00    +0.000 C 
ATOM      4  C   UNL     1      -2.848  10.720  17.670  0.00  0.00    +0.000 A 
ATOM      5  N   UNL     1      -1.703  10.751  18.289  0.00  0.00    +0.000 NA
ATOM      6  N   UNL     1      -1.573  11.514  19.459  0.00  0.00    +0.000 N 
ATOM      7  C   UNL     1      -2.615  12.283  20.032  0.00  0.00    +0.000 A 
ATOM      8  O   UNL     1      -2.479  12.958  21.048  0.00  0.00    +0.000 OA
ATOM      9  C   UNL     1      -3.887  12.216  19.320  0.00  0.00    +0.000 A 
ATOM     10  C   UNL     1      -3.972  11.453  18.182  0.00  0.00    +0.000 A 
ATOM     11  S   UNL     1      -5.501  11.480  17.470  0.00  0.00    +0.000 S 
ATOM     12  C   UNL     1      -6.130  12.508  18.698  0.00  0.00    +0.000 A 
ATOM     13  C   UNL     1      -7.452  12.989  18.793  0.00  0.00    +0.000 A 
ATOM     14  C   UNL     1      -7.801  13.809  19.866  0.00  0.00    +0.000 A 
ATOM     15  C   UNL     1      -6.858  14.148  20.824  0.00  0.00    +0.000 A 
ATOM     16  C   UNL     1      -5.544  13.674  20.724  0.00  0.00    +0.000 A 
ATOM     17  C   UNL     1      -5.151  12.834  19.647  0.00  0.00    +0.000 A 
ENDBRANCH   1   6
BRANCH   1  18
ATOM     18  C   UNL     1       0.898  11.100  19.179  0.00  0.00    +0.000 C 
ATOM     19  O   UNL     1       1.777  11.911  18.892  0.00  0.00    +0.000 OA
ATOM     20  N   UNL     1       0.988   9.773  18.829  0.00  0.00    +0.000 N 
ATOM     21  H   UNL     1       0.181   9.193  19.048  0.00  0.00    +0.000 HD
BRANCH  20  22
ATOM     22  C   UNL     1       2.016   9.268  17.945  0.00  0.00    +0.000 C 
BRANCH  22  23
ATOM     23  C   UNL     1       2.487   7.900  18.375  0.00  0.00    +0.000 A 
ATOM     24  C   UNL     1       3.327   7.132  17.562  0.00  0.00    +0.000 A 
ATOM     25  C   UNL     1       3.693   5.838  17.949  0.00  0.00    +0.000 A 
ATOM     26  C   UNL     1       3.252   5.301  19.162  0.00  0.00    +0.000 A 
ATOM     27  C   UNL     1       2.482   6.090  20.010  0.00  0.00    +0.000 A 
ATOM     28  C   UNL     1       2.092   7.374  19.614  0.00  0.00    +0.000 A 
BRANCH  26  29
ATOM     29  O   UNL     1       3.559   3.983  19.357  0.00  0.00    +0.000 OA
BRANCH  29  30
ATOM     30  C   UNL     1       2.551   2.994  19.118  0.00  0.00    +0.000 C 
ATOM     31  C   UNL     1       1.163   3.487  19.525  0.00  0.00    +0.000 C 
ATOM     32  C   UNL     1       2.555   2.758  17.605  0.00  0.00    +0.000 C 
ENDBRANCH  29  30
ENDBRANCH  26  29
ENDBRANCH  22  23
ENDBRANCH  20  22
ENDBRANCH   1  18
TORSDOF 6
ENDMDL
MODEL 7
REMARK VINA RESULT:      -7.6      4.020     10.793
REMARK  Name = 
REMARK  10 active torsions:
REMARK  status: ('A' for Active; 'I' for Inactive)
REMARK    1  A    between atoms: C_1  and  C_2
REMARK    2  A    between atoms: N_4  and  C_5
REMARK    3  A    between atoms: C_5  and  C_6
REMARK    4  A    between atoms: C_5  and  C_7
REMARK    5  A    between atoms: N_9  and  C_10
REMARK    6  A    between atoms: C_10  and  C_11
REMARK    7  A    between atoms: C_14  and  O_15
REMARK    8  A    between atoms: O_15  and  C_16
REMARK    9  A    between atoms: C_16  and  C_17
REMARK   10  A    between atoms: C_16  and  C_18
REMARK                            x       y       z     vdW  Elec       q    Type
REMARK                         _______ _______ _______ _____ _____    ______ ____
ROOT
ATOM      1  C   UNL     1       0.268  11.987  19.590  0.00  0.00    +0.000 C 
ATOM      2  C   UNL     1       0.485  13.255  20.415  0.00  0.00    +0.000 C 
ENDROOT
BRANCH   1   6
ATOM      3  C   UNL     1      -2.650  10.755  15.908  0.00  0.00    +0.000 C 
ATOM      4  C   UNL     1      -2.499  11.268  17.316  0.00  0.00    +0.000 A 
ATOM      5  N   UNL     1      -1.296  11.411  17.793  0.00  0.00    +0.000 NA
ATOM      6  N   UNL     1      -1.124  11.897  19.098  0.00  0.00    +0.000 N 
ATOM      7  C   UNL     1      -2.186  12.265  19.959  0.00  0.00    +0.000 A 
ATOM      8  O   UNL     1      -2.017  12.704  21.093  0.00  0.00    +0.000 OA
ATOM      9  C   UNL     1      -3.520  12.082  19.398  0.00  0.00    +0.000 A 
ATOM     10  C   UNL     1      -3.643  11.597  18.120  0.00  0.00    +0.000 A 
ATOM     11  S   UNL     1      -5.244  11.446  17.611  0.00  0.00    +0.000 S 
ATOM     12  C   UNL     1      -5.849  12.002  19.123  0.00  0.00    +0.000 A 
ATOM     13  C   UNL     1      -7.205  12.144  19.483  0.00  0.00    +0.000 A 
ATOM     14  C   UNL     1      -7.524  12.601  20.762  0.00  0.00    +0.000 A 
ATOM     15  C   UNL     1      -6.520  12.913  21.664  0.00  0.00    +0.000 A 
ATOM     16  C   UNL     1      -5.174  12.777  21.303  0.00  0.00    +0.000 A 
ATOM     17  C   UNL     1      -4.809  12.313  20.010  0.00  0.00    +0.000 A 
ENDBRANCH   1   6
BRANCH   1  18
ATOM     18  C   UNL     1       0.698  10.749  20.408  0.00  0.00    +0.000 C 
ATOM     19  O   UNL     1       0.754  10.775  21.637  0.00  0.00    +0.000 OA
ATOM     20  N   UNL     1       0.822   9.578  19.698  0.00  0.00    +0.000 N 
ATOM     21  H   UNL     1       0.833   9.665  18.683  0.00  0.00    +0.000 HD
BRANCH  20  22
ATOM     22  C   UNL     1       1.212   8.329  20.314  0.00  0.00    +0.000 C 
BRANCH  22  23
ATOM     23  C   UNL     1       2.199   7.577  19.455  0.00  0.00    +0.000 A 
ATOM     24  C   UNL     1       2.725   6.346  19.860  0.00  0.00    +0.000 A 
ATOM     25  C   UNL     1       3.694   5.702  19.082  0.00  0.00    +0.000 A 
ATOM     26  C   UNL     1       4.130   6.258  17.876  0.00  0.00    +0.000 A 
ATOM     27  C   UNL     1       3.551   7.441  17.429  0.00  0.00    +0.000 A 
ATOM     28  C   UNL     1       2.603   8.101  18.218  0.00  0.00    +0.000 A 
BRANCH  26  29
ATOM     29  O   UNL     1       5.175   5.607  17.283  0.00  0.00    +0.000 OA
BRANCH  29  30
ATOM     30  C   UNL     1       6.472   5.682  17.888  0.00  0.00    +0.000 C 
ATOM     31  C   UNL     1       7.397   4.573  17.388  0.00  0.00    +0.000 C 
ATOM     32  C   UNL     1       7.053   7.030  17.453  0.00  0.00    +0.000 C 
ENDBRANCH  29  30
ENDBRANCH  26  29
ENDBRANCH  22  23
ENDBRANCH  20  22
ENDBRANCH   1  18
TORSDOF 6
ENDMDL
MODEL 8
REMARK VINA RESULT:      -7.5      3.902      5.410
REMARK  Name = 
REMARK  10 active torsions:
REMARK  status: ('A' for Active; 'I' for Inactive)
REMARK    1  A    between atoms: C_1  and  C_2
REMARK    2  A    between atoms: N_4  and  C_5
REMARK    3  A    between atoms: C_5  and  C_6
REMARK    4  A    between atoms: C_5  and  C_7
REMARK    5  A    between atoms: N_9  and  C_10
REMARK    6  A    between atoms: C_10  and  C_11
REMARK    7  A    between atoms: C_14  and  O_15
REMARK    8  A    between atoms: O_15  and  C_16
REMARK    9  A    between atoms: C_16  and  C_17
REMARK   10  A    between atoms: C_16  and  C_18
REMARK                            x       y       z     vdW  Elec       q    Type
REMARK                         _______ _______ _______ _____ _____    ______ ____
ROOT
ATOM      1  C   UNL     1       1.413   9.148  19.861  0.00  0.00    +0.000 C 
ATOM      2  C   UNL     1       0.265   9.467  18.903  0.00  0.00    +0.000 C 
ENDROOT
BRANCH   1   6
ATOM      3  C   UNL     1       1.660   4.460  21.108  0.00  0.00    +0.000 C 
ATOM      4  C   UNL     1       2.077   5.570  20.179  0.00  0.00    +0.000 A 
ATOM      5  N   UNL     1       1.624   6.769  20.410  0.00  0.00    +0.000 NA
ATOM      6  N   UNL     1       2.005   7.824  19.568  0.00  0.00    +0.000 N 
ATOM      7  C   UNL     1       2.876   7.688  18.460  0.00  0.00    +0.000 A 
ATOM      8  O   UNL     1       3.211   8.626  17.742  0.00  0.00    +0.000 OA
ATOM      9  C   UNL     1       3.356   6.331  18.223  0.00  0.00    +0.000 A 
ATOM     10  C   UNL     1       2.954   5.326  19.068  0.00  0.00    +0.000 A 
ATOM     11  S   UNL     1       3.594   3.818  18.668  0.00  0.00    +0.000 S 
ATOM     12  C   UNL     1       4.425   4.456  17.303  0.00  0.00    +0.000 A 
ATOM     13  C   UNL     1       5.228   3.733  16.398  0.00  0.00    +0.000 A 
ATOM     14  C   UNL     1       5.824   4.406  15.331  0.00  0.00    +0.000 A 
ATOM     15  C   UNL     1       5.630   5.769  15.167  0.00  0.00    +0.000 A 
ATOM     16  C   UNL     1       4.837   6.485  16.072  0.00  0.00    +0.000 A 
ATOM     17  C   UNL     1       4.212   5.835  17.169  0.00  0.00    +0.000 A 
ENDBRANCH   1   6
BRANCH   1  18
ATOM     18  C   UNL     1       0.930   9.281  21.322  0.00  0.00    +0.000 C 
ATOM     19  O   UNL     1       1.662   9.005  22.271  0.00  0.00    +0.000 OA
ATOM     20  N   UNL     1      -0.283   9.904  21.495  0.00  0.00    +0.000 N 
ATOM     21  H   UNL     1      -0.850  10.029  20.658  0.00  0.00    +0.000 HD
BRANCH  20  22
ATOM     22  C   UNL     1      -0.876  10.111  22.799  0.00  0.00    +0.000 C 
BRANCH  22  23
ATOM     23  C   UNL     1      -1.386  11.523  22.952  0.00  0.00    +0.000 A 
ATOM     24  C   UNL     1      -0.624  12.620  22.539  0.00  0.00    +0.000 A 
ATOM     25  C   UNL     1      -1.086  13.923  22.758  0.00  0.00    +0.000 A 
ATOM     26  C   UNL     1      -2.325  14.152  23.363  0.00  0.00    +0.000 A 
ATOM     27  C   UNL     1      -3.122  13.064  23.704  0.00  0.00    +0.000 A 
ATOM     28  C   UNL     1      -2.651  11.761  23.511  0.00  0.00    +0.000 A 
BRANCH  26  29
ATOM     29  O   UNL     1      -2.597  15.461  23.649  0.00  0.00    +0.000 OA
BRANCH  29  30
ATOM     30  C   UNL     1      -2.937  15.821  24.993  0.00  0.00    +0.000 C 
ATOM     31  C   UNL     1      -1.711  15.826  25.907  0.00  0.00    +0.000 C 
ATOM     32  C   UNL     1      -3.484  17.249  24.912  0.00  0.00    +0.000 C 
ENDBRANCH  29  30
ENDBRANCH  26  29
ENDBRANCH  22  23
ENDBRANCH  20  22
ENDBRANCH   1  18
TORSDOF 6
ENDMDL
MODEL 9
REMARK VINA RESULT:      -7.5      4.188     10.720
REMARK  Name = 
REMARK  10 active torsions:
REMARK  status: ('A' for Active; 'I' for Inactive)
REMARK    1  A    between atoms: C_1  and  C_2
REMARK    2  A    between atoms: N_4  and  C_5
REMARK    3  A    between atoms: C_5  and  C_6
REMARK    4  A    between atoms: C_5  and  C_7
REMARK    5  A    between atoms: N_9  and  C_10
REMARK    6  A    between atoms: C_10  and  C_11
REMARK    7  A    between atoms: C_14  and  O_15
REMARK    8  A    between atoms: O_15  and  C_16
REMARK    9  A    between atoms: C_16  and  C_17
REMARK   10  A    between atoms: C_16  and  C_18
REMARK                            x       y       z     vdW  Elec       q    Type
REMARK                         _______ _______ _______ _____ _____    ______ ____
ROOT
ATOM      1  C   UNL     1       0.466  11.671  19.829  0.00  0.00    +0.000 C 
ATOM      2  C   UNL     1       1.546  12.751  19.881  0.00  0.00    +0.000 C 
ENDROOT
BRANCH   1   6
ATOM      3  C   UNL     1      -1.970  14.686  22.755  0.00  0.00    +0.000 C 
ATOM      4  C   UNL     1      -1.991  13.694  21.622  0.00  0.00    +0.000 A 
ATOM      5  N   UNL     1      -0.865  13.148  21.262  0.00  0.00    +0.000 NA
ATOM      6  N   UNL     1      -0.855  12.213  20.217  0.00  0.00    +0.000 N 
ATOM      7  C   UNL     1      -2.007  11.795  19.507  0.00  0.00    +0.000 A 
ATOM      8  O   UNL     1      -1.983  10.964  18.605  0.00  0.00    +0.000 OA
ATOM      9  C   UNL     1      -3.250  12.435  19.928  0.00  0.00    +0.000 A 
ATOM     10  C   UNL     1      -3.213  13.349  20.951  0.00  0.00    +0.000 A 
ATOM     11  S   UNL     1      -4.725  13.997  21.325  0.00  0.00    +0.000 S 
ATOM     12  C   UNL     1      -5.498  13.086  20.087  0.00  0.00    +0.000 A 
ATOM     13  C   UNL     1      -6.869  13.111  19.760  0.00  0.00    +0.000 A 
ATOM     14  C   UNL     1      -7.332  12.313  18.713  0.00  0.00    +0.000 A 
ATOM     15  C   UNL     1      -6.454  11.505  18.008  0.00  0.00    +0.000 A 
ATOM     16  C   UNL     1      -5.094  11.477  18.339  0.00  0.00    +0.000 A 
ATOM     17  C   UNL     1      -4.584  12.277  19.398  0.00  0.00    +0.000 A 
ENDBRANCH   1   6
BRANCH   1  18
ATOM     18  C   UNL     1       0.894  10.459  20.685  0.00  0.00    +0.000 C 
ATOM     19  O   UNL     1       0.919  10.514  21.914  0.00  0.00    +0.000 OA
ATOM     20  N   UNL     1       1.053   9.275  20.005  0.00  0.00    +0.000 N 
ATOM     21  H   UNL     1       1.088   9.338  18.990  0.00  0.00    +0.000 HD
BRANCH  20  22
ATOM     22  C   UNL     1       1.447   8.046  20.660  0.00  0.00    +0.000 C 
BRANCH  22  23
ATOM     23  C   UNL     1       2.194   7.135  19.716  0.00  0.00    +0.000 A 
ATOM     24  C   UNL     1       2.353   5.774  19.994  0.00  0.00    +0.000 A 
ATOM     25  C   UNL     1       3.112   4.964  19.141  0.00  0.00    +0.000 A 
ATOM     26  C   UNL     1       3.697   5.490  17.986  0.00  0.00    +0.000 A 
ATOM     27  C   UNL     1       3.475   6.825  17.664  0.00  0.00    +0.000 A 
ATOM     28  C   UNL     1       2.740   7.643  18.528  0.00  0.00    +0.000 A 
BRANCH  26  29
ATOM     29  O   UNL     1       4.526   4.634  17.316  0.00  0.00    +0.000 OA
BRANCH  29  30
ATOM     30  C   UNL     1       5.627   5.174  16.575  0.00  0.00    +0.000 C 
ATOM     31  C   UNL     1       6.971   4.781  17.188  0.00  0.00    +0.000 C 
ATOM     32  C   UNL     1       5.531   4.550  15.180  0.00  0.00    +0.000 C 
ENDBRANCH  29  30
ENDBRANCH  26  29
ENDBRANCH  22  23
ENDBRANCH  20  22
ENDBRANCH   1  18
TORSDOF 6
ENDMDL
