MODEL 1
REMARK VINA RESULT:      -7.9      0.000      0.000
REMARK  Name = 
REMARK  6 active torsions:
REMARK  status: ('A' for Active; 'I' for Inactive)
REMARK    1  A    between atoms: C_4  and  C_5
REMARK    2  A    between atoms: C_8  and  O_9
REMARK    3  A    between atoms: O_9  and  C_10
REMARK    4  A    between atoms: C_10  and  C_11
REMARK    5  A    between atoms: C_11  and  C_12
REMARK    6  A    between atoms: C_12  and  N_13
REMARK                            x       y       z     vdW  Elec       q    Type
REMARK                         _______ _______ _______ _____ _____    ______ ____
ROOT
ATOM      1  C   UNL     1       1.876   8.381  19.109  0.00  0.00    +0.000 A 
ATOM      2  C   UNL     1       2.129   7.217  19.836  0.00  0.00    +0.000 A 
ATOM      3  C   UNL     1       3.086   6.305  19.394  0.00  0.00    +0.000 A 
ATOM      4  C   UNL     1       3.810   6.542  18.217  0.00  0.00    +0.000 A 
ATOM      5  C   UNL     1       3.509   7.673  17.456  0.00  0.00    +0.000 A 
ATOM      6  C   UNL     1       2.547   8.591  17.899  0.00  0.00    +0.000 A 
ENDROOT
BRANCH   1  10
ATOM      7  O   UNL     1      -0.745  11.660  20.578  0.00  0.00    +0.000 OA
ATOM      8  C   UNL     1      -0.915  10.965  19.600  0.00  0.00    +0.000 C 
ATOM      9  C   UNL     1      -0.043   9.843  19.124  0.00  0.00    +0.000 C 
ATOM     10  C   UNL     1       1.080   9.439  19.734  0.00  0.00    +0.000 C 
ATOM     11  C   UNL     1      -0.635   9.288  17.849  0.00  0.00    +0.000 C 
ATOM     12  C   UNL     1      -1.867  10.104  17.640  0.00  0.00    +0.000 A 
ATOM     13  C   UNL     1      -2.788   9.983  16.614  0.00  0.00    +0.000 A 
ATOM     14  C   UNL     1      -3.870  10.860  16.606  0.00  0.00    +0.000 A 
ATOM     15  F   UNL     1      -4.778  10.764  15.627  0.00  0.00    +0.000 F 
ATOM     16  C   UNL     1      -4.027  11.839  17.598  0.00  0.00    +0.000 A 
ATOM     17  C   UNL     1      -3.092  11.953  18.634  0.00  0.00    +0.000 A 
ATOM     18  C   UNL     1      -2.024  11.072  18.636  0.00  0.00    +0.000 A 
ENDBRANCH   1  10
BRANCH   4  19
ATOM     19  O   UNL     1       4.837   5.752  17.753  0.00  0.00    +0.000 OA
BRANCH  19  20
ATOM     20  C   UNL     1       4.440   4.801  16.758  0.00  0.00    +0.000 C 
BRANCH  20  21
ATOM     21  C   UNL     1       4.457   3.374  17.295  0.00  0.00    +0.000 C 
BRANCH  21  22
ATOM     22  C   UNL     1       3.032   2.789  17.323  0.00  0.00    +0.000 C 
BRANCH  22  23
ATOM     23  N   UNL     1       2.486   2.612  18.684  0.00  0.00    +0.000 NA
ATOM     24  C   UNL     1       3.510   2.822  19.719  0.00  0.00    +0.000 C 
ATOM     25  C   UNL     1       2.952   2.550  21.115  0.00  0.00    +0.000 C 
ATOM     26  C   UNL     1       1.734   3.415  21.401  0.00  0.00    +0.000 C 
ATOM     27  C   UNL     1       0.705   3.263  20.287  0.00  0.00    +0.000 C 
ATOM     28  C   UNL     1       1.328   3.494  18.908  0.00  0.00    +0.000 C 
ENDBRANCH  22  23
ENDBRANCH  21  22
ENDBRANCH  20  21
ENDBRANCH  19  20
ENDBRANCH   4  19
TORSDOF 6
ENDMDL
MODEL 2
REMARK VINA RESULT:      -7.8      1.979      3.418
REMARK  Name = 
REMARK  6 active torsions:
REMARK  status: ('A' for Active; 'I' for Inactive)
REMARK    1  A    between atoms: C_4  and  C_5
REMARK    2  A    between atoms: C_8  and  O_9
REMARK    3  A    between atoms: O_9  and  C_10
REMARK    4  A    between atoms: C_10  and  C_11
REMARK    5  A    between atoms: C_11  and  C_12
REMARK    6  A    between atoms: C_12  and  N_13
REMARK                            x       y       z     vdW  Elec       q    Type
REMARK                         _______ _______ _______ _____ _____    ______ ____
ROOT
ATOM      1  C   UNL     1       1.055   9.179  19.841  0.00  0.00    +0.000 A 
ATOM      2  C   UNL     1       1.733   9.122  18.623  0.00  0.00    +0.000 A 
ATOM      3  C   UNL     1       2.550   8.033  18.323  0.00  0.00    +0.000 A 
ATOM      4  C   UNL     1       2.701   6.979  19.235  0.00  0.00    +0.000 A 
ATOM      5  C   UNL     1       2.075   7.070  20.479  0.00  0.00    +0.000 A 
ATOM      6  C   UNL     1       1.253   8.164  20.783  0.00  0.00    +0.000 A 
ENDROOT
BRANCH   1  10
ATOM      7  O   UNL     1      -2.214  12.194  19.878  0.00  0.00    +0.000 OA
ATOM      8  C   UNL     1      -2.003  11.350  19.035  0.00  0.00    +0.000 C 
ATOM      9  C   UNL     1      -0.916  10.318  19.041  0.00  0.00    +0.000 C 
ATOM     10  C   UNL     1       0.001  10.181  20.009  0.00  0.00    +0.000 C 
ATOM     11  C   UNL     1      -1.028   9.502  17.773  0.00  0.00    +0.000 C 
ATOM     12  C   UNL     1      -2.213  10.082  17.077  0.00  0.00    +0.000 A 
ATOM     13  C   UNL     1      -2.757   9.676  15.870  0.00  0.00    +0.000 A 
ATOM     14  C   UNL     1      -3.869  10.367  15.394  0.00  0.00    +0.000 A 
ATOM     15  F   UNL     1      -4.418   9.994  14.231  0.00  0.00    +0.000 F 
ATOM     16  C   UNL     1      -4.423  11.442  16.104  0.00  0.00    +0.000 A 
ATOM     17  C   UNL     1      -3.868  11.845  17.325  0.00  0.00    +0.000 A 
ATOM     18  C   UNL     1      -2.767  11.147  17.792  0.00  0.00    +0.000 A 
ENDBRANCH   1  10
BRANCH   4  19
ATOM     19  O   UNL     1       3.407   5.823  18.991  0.00  0.00    +0.000 OA
BRANCH  19  20
ATOM     20  C   UNL     1       2.952   5.092  17.845  0.00  0.00    +0.000 C 
BRANCH  20  21
ATOM     21  C   UNL     1       4.009   4.116  17.337  0.00  0.00    +0.000 C 
BRANCH  21  22
ATOM     22  C   UNL     1       4.875   4.776  16.246  0.00  0.00    +0.000 C 
BRANCH  22  23
ATOM     23  N   UNL     1       6.146   5.333  16.750  0.00  0.00    +0.000 NA
ATOM     24  C   UNL     1       6.048   6.778  17.010  0.00  0.00    +0.000 C 
ATOM     25  C   UNL     1       7.394   7.355  17.446  0.00  0.00    +0.000 C 
ATOM     26  C   UNL     1       7.929   6.638  18.676  0.00  0.00    +0.000 C 
ATOM     27  C   UNL     1       7.955   5.132  18.439  0.00  0.00    +0.000 C 
ATOM     28  C   UNL     1       6.597   4.616  17.953  0.00  0.00    +0.000 C 
ENDBRANCH  22  23
ENDBRANCH  21  22
ENDBRANCH  20  21
ENDBRANCH  19  20
ENDBRANCH   4  19
TORSDOF 6
ENDMDL
MODEL 3
REMARK VINA RESULT:      -7.8      0.979      1.630
REMARK  Name = 
REMARK  6 active torsions:
REMARK  status: ('A' for Active; 'I' for Inactive)
REMARK    1  A    between atoms: C_4  and  C_5
REMARK    2  A    between atoms: C_8  and  O_9
REMARK    3  A    between atoms: O_9  and  C_10
REMARK    4  A    between atoms: C_10  and  C_11
REMARK    5  A    between atoms: C_11  and  C_12
REMARK    6  A    between atoms: C_12  and  N_13
REMARK                            x       y       z     vdW  Elec       q    Type
REMARK                         _______ _______ _______ _____ _____    ______ ____
ROOT
ATOM      1  C   UNL     1       1.472   9.016  19.355  0.00  0.00    +0.000 A 
ATOM      2  C   UNL     1       2.115   9.209  18.132  0.00  0.00    +0.000 A 
ATOM      3  C   UNL     1       2.926   8.209  17.599  0.00  0.00    +0.000 A 
ATOM      4  C   UNL     1       3.107   6.996  18.278  0.00  0.00    +0.000 A 
ATOM      5  C   UNL     1       2.517   6.832  19.532  0.00  0.00    +0.000 A 
ATOM      6  C   UNL     1       1.700   7.836  20.070  0.00  0.00    +0.000 A 
ENDROOT
BRANCH   1  10
ATOM      7  O   UNL     1      -1.840  11.894  20.085  0.00  0.00    +0.000 OA
ATOM      8  C   UNL     1      -1.700  11.161  19.130  0.00  0.00    +0.000 C 
ATOM      9  C   UNL     1      -0.597  10.174  18.901  0.00  0.00    +0.000 C 
ATOM     10  C   UNL     1       0.420   9.956  19.749  0.00  0.00    +0.000 C 
ATOM     11  C   UNL     1      -0.822   9.508  17.563  0.00  0.00    +0.000 C 
ATOM     12  C   UNL     1      -2.086  10.125  17.065  0.00  0.00    +0.000 A 
ATOM     13  C   UNL     1      -2.745   9.845  15.880  0.00  0.00    +0.000 A 
ATOM     14  C   UNL     1      -3.915  10.549  15.606  0.00  0.00    +0.000 A 
ATOM     15  F   UNL     1      -4.575  10.297  14.468  0.00  0.00    +0.000 F 
ATOM     16  C   UNL     1      -4.415  11.514  16.492  0.00  0.00    +0.000 A 
ATOM     17  C   UNL     1      -3.744  11.790  17.690  0.00  0.00    +0.000 A 
ATOM     18  C   UNL     1      -2.586  11.080  17.955  0.00  0.00    +0.000 A 
ENDBRANCH   1  10
BRANCH   4  19
ATOM     19  O   UNL     1       3.809   5.918  17.789  0.00  0.00    +0.000 OA
BRANCH  19  20
ATOM     20  C   UNL     1       5.144   5.810  18.296  0.00  0.00    +0.000 C 
BRANCH  20  21
ATOM     21  C   UNL     1       5.500   4.373  18.663  0.00  0.00    +0.000 C 
BRANCH  21  22
ATOM     22  C   UNL     1       4.342   3.421  18.304  0.00  0.00    +0.000 C 
BRANCH  22  23
ATOM     23  N   UNL     1       3.161   3.561  19.178  0.00  0.00    +0.000 NA
ATOM     24  C   UNL     1       2.063   2.674  18.765  0.00  0.00    +0.000 C 
ATOM     25  C   UNL     1       0.819   2.894  19.624  0.00  0.00    +0.000 C 
ATOM     26  C   UNL     1       1.125   2.693  21.100  0.00  0.00    +0.000 C 
ATOM     27  C   UNL     1       2.316   3.549  21.514  0.00  0.00    +0.000 C 
ATOM     28  C   UNL     1       3.517   3.329  20.588  0.00  0.00    +0.000 C 
ENDBRANCH  22  23
ENDBRANCH  21  22
ENDBRANCH  20  21
ENDBRANCH  19  20
ENDBRANCH   4  19
TORSDOF 6
ENDMDL
MODEL 4
REMARK VINA RESULT:      -7.8      4.822      8.183
REMARK  Name = 
REMARK  6 active torsions:
REMARK  status: ('A' for Active; 'I' for Inactive)
REMARK    1  A    between atoms: C_4  and  C_5
REMARK    2  A    between atoms: C_8  and  O_9
REMARK    3  A    between atoms: O_9  and  C_10
REMARK    4  A    between atoms: C_10  and  C_11
REMARK    5  A    between atoms: C_11  and  C_12
REMARK    6  A    between atoms: C_12  and  N_13
REMARK                            x       y       z     vdW  Elec       q    Type
REMARK                         _______ _______ _______ _____ _____    ______ ____
ROOT
ATOM      1  C   UNL     1       5.004   6.070  17.393  0.00  0.00    +0.000 A 
ATOM      2  C   UNL     1       3.913   6.894  17.113  0.00  0.00    +0.000 A 
ATOM      3  C   UNL     1       2.920   7.095  18.069  0.00  0.00    +0.000 A 
ATOM      4  C   UNL     1       3.001   6.478  19.327  0.00  0.00    +0.000 A 
ATOM      5  C   UNL     1       4.059   5.604  19.581  0.00  0.00    +0.000 A 
ATOM      6  C   UNL     1       5.059   5.400  18.620  0.00  0.00    +0.000 A 
ENDROOT
BRANCH   1  10
ATOM      7  O   UNL     1       8.332   5.751  14.460  0.00  0.00    +0.000 OA
ATOM      8  C   UNL     1       7.242   5.226  14.395  0.00  0.00    +0.000 C 
ATOM      9  C   UNL     1       6.114   5.359  15.372  0.00  0.00    +0.000 C 
ATOM     10  C   UNL     1       6.155   6.100  16.489  0.00  0.00    +0.000 C 
ATOM     11  C   UNL     1       4.964   4.503  14.892  0.00  0.00    +0.000 C 
ATOM     12  C   UNL     1       5.464   3.914  13.616  0.00  0.00    +0.000 A 
ATOM     13  C   UNL     1       4.783   3.063  12.761  0.00  0.00    +0.000 A 
ATOM     14  C   UNL     1       5.447   2.623  11.619  0.00  0.00    +0.000 A 
ATOM     15  F   UNL     1       4.812   1.802  10.774  0.00  0.00    +0.000 F 
ATOM     16  C   UNL     1       6.763   3.018  11.337  0.00  0.00    +0.000 A 
ATOM     17  C   UNL     1       7.444   3.881  12.204  0.00  0.00    +0.000 A 
ATOM     18  C   UNL     1       6.773   4.318  13.334  0.00  0.00    +0.000 A 
ENDBRANCH   1  10
BRANCH   4  19
ATOM     19  O   UNL     1       2.123   6.691  20.365  0.00  0.00    +0.000 OA
BRANCH  19  20
ATOM     20  C   UNL     1       1.803   5.511  21.111  0.00  0.00    +0.000 C 
BRANCH  20  21
ATOM     21  C   UNL     1       0.758   4.655  20.402  0.00  0.00    +0.000 C 
BRANCH  21  22
ATOM     22  C   UNL     1       1.018   3.159  20.660  0.00  0.00    +0.000 C 
BRANCH  22  23
ATOM     23  N   UNL     1       1.798   2.496  19.597  0.00  0.00    +0.000 NA
ATOM     24  C   UNL     1       1.721   3.226  18.322  0.00  0.00    +0.000 C 
ATOM     25  C   UNL     1       2.461   2.483  17.211  0.00  0.00    +0.000 C 
ATOM     26  C   UNL     1       3.914   2.235  17.585  0.00  0.00    +0.000 C 
ATOM     27  C   UNL     1       4.001   1.551  18.944  0.00  0.00    +0.000 C 
ATOM     28  C   UNL     1       3.200   2.309  20.008  0.00  0.00    +0.000 C 
ENDBRANCH  22  23
ENDBRANCH  21  22
ENDBRANCH  20  21
ENDBRANCH  19  20
ENDBRANCH   4  19
TORSDOF 6
ENDMDL
MODEL 5
REMARK VINA RESULT:      -7.6      2.628      3.308
REMARK  Name = 
REMARK  6 active torsions:
REMARK  status: ('A' for Active; 'I' for Inactive)
REMARK    1  A    between atoms: C_4  and  C_5
REMARK    2  A    between atoms: C_8  and  O_9
REMARK    3  A    between atoms: O_9  and  C_10
REMARK    4  A    between atoms: C_10  and  C_11
REMARK    5  A    between atoms: C_11  and  C_12
REMARK    6  A    between atoms: C_12  and  N_13
REMARK                            x       y       z     vdW  Elec       q    Type
REMARK                         _______ _______ _______ _____ _____    ______ ____
ROOT
ATOM      1  C   UNL     1       2.095   8.011  18.453  0.00  0.00    +0.000 A 
ATOM      2  C   UNL     1       2.989   8.033  17.381  0.00  0.00    +0.000 A 
ATOM      3  C   UNL     1       4.031   7.110  17.316  0.00  0.00    +0.000 A 
ATOM      4  C   UNL     1       4.196   6.144  18.320  0.00  0.00    +0.000 A 
ATOM      5  C   UNL     1       3.341   6.167  19.423  0.00  0.00    +0.000 A 
ATOM      6  C   UNL     1       2.292   7.094  19.491  0.00  0.00    +0.000 A 
ENDROOT
BRANCH   1  10
ATOM      7  O   UNL     1      -1.400  10.761  18.365  0.00  0.00    +0.000 OA
ATOM      8  C   UNL     1      -0.229  11.062  18.455  0.00  0.00    +0.000 C 
ATOM      9  C   UNL     1       0.947  10.134  18.457  0.00  0.00    +0.000 C 
ATOM     10  C   UNL     1       0.865   8.799  18.354  0.00  0.00    +0.000 C 
ATOM     11  C   UNL     1       2.204  10.957  18.619  0.00  0.00    +0.000 C 
ATOM     12  C   UNL     1       1.706  12.362  18.681  0.00  0.00    +0.000 A 
ATOM     13  C   UNL     1       2.464  13.515  18.806  0.00  0.00    +0.000 A 
ATOM     14  C   UNL     1       1.790  14.732  18.852  0.00  0.00    +0.000 A 
ATOM     15  F   UNL     1       2.497  15.863  18.970  0.00  0.00    +0.000 F 
ATOM     16  C   UNL     1       0.391  14.800  18.778  0.00  0.00    +0.000 A 
ATOM     17  C   UNL     1      -0.368  13.630  18.648  0.00  0.00    +0.000 A 
ATOM     18  C   UNL     1       0.313  12.425  18.598  0.00  0.00    +0.000 A 
ENDBRANCH   1  10
BRANCH   4  19
ATOM     19  O   UNL     1       5.132   5.135  18.294  0.00  0.00    +0.000 OA
BRANCH  19  20
ATOM     20  C   UNL     1       5.082   4.322  17.116  0.00  0.00    +0.000 C 
BRANCH  20  21
ATOM     21  C   UNL     1       3.759   3.572  16.998  0.00  0.00    +0.000 C 
BRANCH  21  22
ATOM     22  C   UNL     1       3.795   2.276  17.831  0.00  0.00    +0.000 C 
BRANCH  22  23
ATOM     23  N   UNL     1       2.870   2.281  18.982  0.00  0.00    +0.000 NA
ATOM     24  C   UNL     1       3.537   2.705  20.222  0.00  0.00    +0.000 C 
ATOM     25  C   UNL     1       2.589   2.621  21.418  0.00  0.00    +0.000 C 
ATOM     26  C   UNL     1       1.336   3.451  21.189  0.00  0.00    +0.000 C 
ATOM     27  C   UNL     1       0.686   3.071  19.863  0.00  0.00    +0.000 C 
ATOM     28  C   UNL     1       1.692   3.121  18.708  0.00  0.00    +0.000 C 
ENDBRANCH  22  23
ENDBRANCH  21  22
ENDBRANCH  20  21
ENDBRANCH  19  20
ENDBRANCH   4  19
TORSDOF 6
ENDMDL
MODEL 6
REMARK VINA RESULT:      -7.6      1.051      1.581
REMARK  Name = 
REMARK  6 active torsions:
REMARK  status: ('A' for Active; 'I' for Inactive)
REMARK    1  A    between atoms: C_4  and  C_5
REMARK    2  A    between atoms: C_8  and  O_9
REMARK    3  A    between atoms: O_9  and  C_10
REMARK    4  A    between atoms: C_10  and  C_11
REMARK    5  A    between atoms: C_11  and  C_12
REMARK    6  A    between atoms: C_12  and  N_13
REMARK                            x       y       z     vdW  Elec       q    Type
REMARK                         _______ _______ _______ _____ _____    ______ ____
ROOT
ATOM      1  C   UNL     1       1.291   9.246  19.291  0.00  0.00    +0.000 A 
ATOM      2  C   UNL     1       1.662   8.012  19.827  0.00  0.00    +0.000 A 
ATOM      3  C   UNL     1       2.569   7.197  19.153  0.00  0.00    +0.000 A 
ATOM      4  C   UNL     1       3.125   7.602  17.931  0.00  0.00    +0.000 A 
ATOM      5  C   UNL     1       2.703   8.806  17.365  0.00  0.00    +0.000 A 
ATOM      6  C   UNL     1       1.791   9.628  18.041  0.00  0.00    +0.000 A 
ENDROOT
BRANCH   1  10
ATOM      7  O   UNL     1      -1.178  12.219  21.492  0.00  0.00    +0.000 OA
ATOM      8  C   UNL     1      -1.468  11.635  20.471  0.00  0.00    +0.000 C 
ATOM      9  C   UNL     1      -0.644  10.614  19.748  0.00  0.00    +0.000 C 
ATOM     10  C   UNL     1       0.566  10.190  20.143  0.00  0.00    +0.000 C 
ATOM     11  C   UNL     1      -1.397  10.183  18.510  0.00  0.00    +0.000 C 
ATOM     12  C   UNL     1      -2.667  10.964  18.574  0.00  0.00    +0.000 A 
ATOM     13  C   UNL     1      -3.723  10.921  17.678  0.00  0.00    +0.000 A 
ATOM     14  C   UNL     1      -4.817  11.746  17.926  0.00  0.00    +0.000 A 
ATOM     15  F   UNL     1      -5.853  11.724  17.078  0.00  0.00    +0.000 F 
ATOM     16  C   UNL     1      -4.857  12.597  19.040  0.00  0.00    +0.000 A 
ATOM     17  C   UNL     1      -3.786  12.633  19.942  0.00  0.00    +0.000 A 
ATOM     18  C   UNL     1      -2.706  11.804  19.690  0.00  0.00    +0.000 A 
ENDBRANCH   1  10
BRANCH   4  19
ATOM     19  O   UNL     1       4.096   6.912  17.242  0.00  0.00    +0.000 OA
BRANCH  19  20
ATOM     20  C   UNL     1       4.527   5.707  17.887  0.00  0.00    +0.000 C 
BRANCH  20  21
ATOM     21  C   UNL     1       4.079   4.463  17.127  0.00  0.00    +0.000 C 
BRANCH  21  22
ATOM     22  C   UNL     1       4.004   3.249  18.072  0.00  0.00    +0.000 C 
BRANCH  22  23
ATOM     23  N   UNL     1       3.173   3.476  19.271  0.00  0.00    +0.000 NA
ATOM     24  C   UNL     1       1.739   3.515  18.947  0.00  0.00    +0.000 C 
ATOM     25  C   UNL     1       0.899   3.837  20.183  0.00  0.00    +0.000 C 
ATOM     26  C   UNL     1       1.155   2.838  21.300  0.00  0.00    +0.000 C 
ATOM     27  C   UNL     1       2.650   2.734  21.583  0.00  0.00    +0.000 C 
ATOM     28  C   UNL     1       3.448   2.463  20.304  0.00  0.00    +0.000 C 
ENDBRANCH  22  23
ENDBRANCH  21  22
ENDBRANCH  20  21
ENDBRANCH  19  20
ENDBRANCH   4  19
TORSDOF 6
ENDMDL
MODEL 7
REMARK VINA RESULT:      -7.5      2.242      3.144
REMARK  Name = 
REMARK  6 active torsions:
REMARK  status: ('A' for Active; 'I' for Inactive)
REMARK    1  A    between atoms: C_4  and  C_5
REMARK    2  A    between atoms: C_8  and  O_9
REMARK    3  A    between atoms: O_9  and  C_10
REMARK    4  A    between atoms: C_10  and  C_11
REMARK    5  A    between atoms: C_11  and  C_12
REMARK    6  A    between atoms: C_12  and  N_13
REMARK                            x       y       z     vdW  Elec       q    Type
REMARK                         _______ _______ _______ _____ _____    ______ ____
ROOT
ATOM      1  C   UNL     1       2.084   8.197  18.124  0.00  0.00    +0.000 A 
ATOM      2  C   UNL     1       3.222   8.226  17.318  0.00  0.00    +0.000 A 
ATOM      3  C   UNL     1       4.220   7.265  17.474  0.00  0.00    +0.000 A 
ATOM      4  C   UNL     1       4.095   6.254  18.438  0.00  0.00    +0.000 A 
ATOM      5  C   UNL     1       2.987   6.265  19.287  0.00  0.00    +0.000 A 
ATOM      6  C   UNL     1       1.983   7.231  19.132  0.00  0.00    +0.000 A 
ENDROOT
BRANCH   1  10
ATOM      7  O   UNL     1      -1.482  10.773  17.473  0.00  0.00    +0.000 OA
ATOM      8  C   UNL     1      -0.834  10.658  18.491  0.00  0.00    +0.000 C 
ATOM      9  C   UNL     1       0.383   9.810  18.697  0.00  0.00    +0.000 C 
ATOM     10  C   UNL     1       0.943   9.036  17.755  0.00  0.00    +0.000 C 
ATOM     11  C   UNL     1       0.833   9.963  20.132  0.00  0.00    +0.000 C 
ATOM     12  C   UNL     1      -0.141  10.933  20.711  0.00  0.00    +0.000 A 
ATOM     13  C   UNL     1      -0.161  11.431  22.003  0.00  0.00    +0.000 A 
ATOM     14  C   UNL     1      -1.172  12.328  22.338  0.00  0.00    +0.000 A 
ATOM     15  F   UNL     1      -1.214  12.828  23.579  0.00  0.00    +0.000 F 
ATOM     16  C   UNL     1      -2.144  12.718  21.406  0.00  0.00    +0.000 A 
ATOM     17  C   UNL     1      -2.117  12.212  20.100  0.00  0.00    +0.000 A 
ATOM     18  C   UNL     1      -1.103  11.326  19.777  0.00  0.00    +0.000 A 
ENDBRANCH   1  10
BRANCH   4  19
ATOM     19  O   UNL     1       4.977   5.210  18.601  0.00  0.00    +0.000 OA
BRANCH  19  20
ATOM     20  C   UNL     1       5.305   4.526  17.386  0.00  0.00    +0.000 C 
BRANCH  20  21
ATOM     21  C   UNL     1       4.135   3.694  16.869  0.00  0.00    +0.000 C 
BRANCH  21  22
ATOM     22  C   UNL     1       3.784   2.574  17.867  0.00  0.00    +0.000 C 
BRANCH  22  23
ATOM     23  N   UNL     1       2.984   3.031  19.020  0.00  0.00    +0.000 NA
ATOM     24  C   UNL     1       1.552   2.744  18.844  0.00  0.00    +0.000 C 
ATOM     25  C   UNL     1       0.727   3.301  20.004  0.00  0.00    +0.000 C 
ATOM     26  C   UNL     1       1.210   2.752  21.337  0.00  0.00    +0.000 C 
ATOM     27  C   UNL     1       2.711   2.974  21.488  0.00  0.00    +0.000 C 
ATOM     28  C   UNL     1       3.483   2.445  20.275  0.00  0.00    +0.000 C 
ENDBRANCH  22  23
ENDBRANCH  21  22
ENDBRANCH  20  21
ENDBRANCH  19  20
ENDBRANCH   4  19
TORSDOF 6
ENDMDL
MODEL 8
REMARK VINA RESULT:      -7.5      4.208      9.427
REMARK  Name = 
REMARK  6 active torsions:
REMARK  status: ('A' for Active; 'I' for Inactive)
REMARK    1  A    between atoms: C_4  and  C_5
REMARK    2  A    between atoms: C_8  and  O_9
REMARK    3  A    between atoms: O_9  and  C_10
REMARK    4  A    between atoms: C_10  and  C_11
REMARK    5  A    between atoms: C_11  and  C_12
REMARK    6  A    between atoms: C_12  and  N_13
REMARK                            x       y       z     vdW  Elec       q    Type
REMARK                         _______ _______ _______ _____ _____    ______ ____
ROOT
ATOM      1  C   UNL     1       1.415   9.072  18.791  0.00  0.00    +0.000 A 
ATOM      2  C   UNL     1       0.550   9.904  18.078  0.00  0.00    +0.000 A 
ATOM      3  C   UNL     1      -0.395  10.676  18.751  0.00  0.00    +0.000 A 
ATOM      4  C   UNL     1      -0.491  10.633  20.149  0.00  0.00    +0.000 A 
ATOM      5  C   UNL     1       0.330   9.751  20.854  0.00  0.00    +0.000 A 
ATOM      6  C   UNL     1       1.281   8.974  20.180  0.00  0.00    +0.000 A 
ENDROOT
BRANCH   1  10
ATOM      7  O   UNL     1       4.837   6.923  16.933  0.00  0.00    +0.000 OA
ATOM      8  C   UNL     1       3.884   6.435  17.501  0.00  0.00    +0.000 C 
ATOM      9  C   UNL     1       2.720   7.163  18.101  0.00  0.00    +0.000 C 
ATOM     10  C   UNL     1       2.565   8.495  18.092  0.00  0.00    +0.000 C 
ATOM     11  C   UNL     1       1.792   6.144  18.724  0.00  0.00    +0.000 C 
ATOM     12  C   UNL     1       2.449   4.837  18.435  0.00  0.00    +0.000 A 
ATOM     13  C   UNL     1       1.992   3.575  18.776  0.00  0.00    +0.000 A 
ATOM     14  C   UNL     1       2.773   2.481  18.413  0.00  0.00    +0.000 A 
ATOM     15  F   UNL     1       2.354   1.249  18.728  0.00  0.00    +0.000 F 
ATOM     16  C   UNL     1       3.986   2.641  17.727  0.00  0.00    +0.000 A 
ATOM     17  C   UNL     1       4.441   3.921  17.382  0.00  0.00    +0.000 A 
ATOM     18  C   UNL     1       3.653   5.001  17.744  0.00  0.00    +0.000 A 
ENDBRANCH   1  10
BRANCH   4  19
ATOM     19  O   UNL     1      -1.324  11.427  20.904  0.00  0.00    +0.000 OA
BRANCH  19  20
ATOM     20  C   UNL     1      -0.977  11.484  22.293  0.00  0.00    +0.000 C 
BRANCH  20  21
ATOM     21  C   UNL     1      -2.177  11.835  23.166  0.00  0.00    +0.000 C 
BRANCH  21  22
ATOM     22  C   UNL     1      -3.105  12.827  22.438  0.00  0.00    +0.000 C 
BRANCH  22  23
ATOM     23  N   UNL     1      -4.526  12.429  22.442  0.00  0.00    +0.000 NA
ATOM     24  C   UNL     1      -5.312  13.204  23.414  0.00  0.00    +0.000 C 
ATOM     25  C   UNL     1      -6.760  12.721  23.468  0.00  0.00    +0.000 C 
ATOM     26  C   UNL     1      -7.415  12.786  22.098  0.00  0.00    +0.000 C 
ATOM     27  C   UNL     1      -6.562  12.053  21.069  0.00  0.00    +0.000 C 
ATOM     28  C   UNL     1      -5.109  12.539  21.094  0.00  0.00    +0.000 C 
ENDBRANCH  22  23
ENDBRANCH  21  22
ENDBRANCH  20  21
ENDBRANCH  19  20
ENDBRANCH   4  19
TORSDOF 6
ENDMDL
MODEL 9
REMARK VINA RESULT:      -7.5      3.633      8.716
REMARK  Name = 
REMARK  6 active torsions:
REMARK  status: ('A' for Active; 'I' for Inactive)
REMARK    1  A    between atoms: C_4  and  C_5
REMARK    2  A    between atoms: C_8  and  O_9
REMARK    3  A    between atoms: O_9  and  C_10
REMARK    4  A    between atoms: C_10  and  C_11
REMARK    5  A    between atoms: C_11  and  C_12
REMARK    6  A    between atoms: C_12  and  N_13
REMARK                            x       y       z     vdW  Elec       q    Type
REMARK                         _______ _______ _______ _____ _____    ______ ____
ROOT
ATOM      1  C   UNL     1       1.925   7.837  19.371  0.00  0.00    +0.000 A 
ATOM      2  C   UNL     1       1.542   8.318  20.623  0.00  0.00    +0.000 A 
ATOM      3  C   UNL     1       1.062   9.620  20.759  0.00  0.00    +0.000 A 
ATOM      4  C   UNL     1       0.953  10.463  19.644  0.00  0.00    +0.000 A 
ATOM      5  C   UNL     1       1.399  10.001  18.405  0.00  0.00    +0.000 A 
ATOM      6  C   UNL     1       1.882   8.693  18.266  0.00  0.00    +0.000 A 
ENDROOT
BRANCH   1  10
ATOM      7  O   UNL     1       2.828   3.576  18.470  0.00  0.00    +0.000 OA
ATOM      8  C   UNL     1       3.359   4.556  17.995  0.00  0.00    +0.000 C 
ATOM      9  C   UNL     1       3.070   5.989  18.322  0.00  0.00    +0.000 C 
ATOM     10  C   UNL     1       2.157   6.399  19.214  0.00  0.00    +0.000 C 
ATOM     11  C   UNL     1       3.956   6.862  17.462  0.00  0.00    +0.000 C 
ATOM     12  C   UNL     1       4.761   5.886  16.671  0.00  0.00    +0.000 A 
ATOM     13  C   UNL     1       5.745   6.171  15.740  0.00  0.00    +0.000 A 
ATOM     14  C   UNL     1       6.370   5.100  15.107  0.00  0.00    +0.000 A 
ATOM     15  F   UNL     1       7.327   5.346  14.204  0.00  0.00    +0.000 F 
ATOM     16  C   UNL     1       6.019   3.773  15.394  0.00  0.00    +0.000 A 
ATOM     17  C   UNL     1       5.024   3.492  16.339  0.00  0.00    +0.000 A 
ATOM     18  C   UNL     1       4.414   4.565  16.967  0.00  0.00    +0.000 A 
ENDBRANCH   1  10
BRANCH   4  19
ATOM     19  O   UNL     1       0.403  11.725  19.663  0.00  0.00    +0.000 OA
BRANCH  19  20
ATOM     20  C   UNL     1      -0.775  11.836  20.470  0.00  0.00    +0.000 C 
BRANCH  20  21
ATOM     21  C   UNL     1      -1.799  12.785  19.853  0.00  0.00    +0.000 C 
BRANCH  21  22
ATOM     22  C   UNL     1      -2.987  11.995  19.271  0.00  0.00    +0.000 C 
BRANCH  22  23
ATOM     23  N   UNL     1      -2.748  11.473  17.911  0.00  0.00    +0.000 NA
ATOM     24  C   UNL     1      -2.242  10.091  17.934  0.00  0.00    +0.000 C 
ATOM     25  C   UNL     1      -1.917   9.596  16.526  0.00  0.00    +0.000 C 
ATOM     26  C   UNL     1      -3.129   9.693  15.613  0.00  0.00    +0.000 C 
ATOM     27  C   UNL     1      -3.707  11.104  15.650  0.00  0.00    +0.000 C 
ATOM     28  C   UNL     1      -3.964  11.569  17.086  0.00  0.00    +0.000 C 
ENDBRANCH  22  23
ENDBRANCH  21  22
ENDBRANCH  20  21
ENDBRANCH  19  20
ENDBRANCH   4  19
TORSDOF 6
ENDMDL
