MODEL 1
REMARK VINA RESULT:      -7.6      0.000      0.000
REMARK  Name = 
REMARK  12 active torsions:
REMARK  status: ('A' for Active; 'I' for Inactive)
REMARK    1  A    between atoms: C_2  and  C_3
REMARK    2  A    between atoms: C_6  and  O_7
REMARK    3  A    between atoms: O_7  and  C_8
REMARK    4  A    between atoms: C_8  and  C_9
REMARK    5  A    between atoms: C_9  and  C_10
REMARK    6  A    between atoms: C_10  and  N_11
REMARK    7  A    between atoms: N_15  and  C_16
REMARK    8  A    between atoms: C_16  and  C_17
REMARK    9  A    between atoms: C_17  and  N_18
REMARK   10  A    between atoms: N_18  and  S_19
REMARK   11  A    between atoms: S_19  and  C_22
REMARK   12  A    between atoms: C_26  and  C_27
REMARK                            x       y       z     vdW  Elec       q    Type
REMARK                         _______ _______ _______ _____ _____    ______ ____
ROOT
ATOM      1  N   UNL     1       7.264   5.359  17.685  0.00  0.00    +0.000 NA
ATOM      2  C   UNL     1       6.365   4.402  18.339  0.00  0.00    +0.000 C 
ATOM      3  C   UNL     1       4.881   4.440  17.929  0.00  0.00    +0.000 C 
ATOM      4  C   UNL     1       4.076   5.610  18.519  0.00  0.00    +0.000 C 
ATOM      5  N   UNL     1       3.985   6.885  17.778  0.00  0.00    +0.000 NA
ATOM      6  C   UNL     1       4.535   6.836  16.407  0.00  0.00    +0.000 C 
ATOM      7  C   UNL     1       5.347   5.600  15.974  0.00  0.00    +0.000 C 
ATOM      8  C   UNL     1       6.856   5.640  16.304  0.00  0.00    +0.000 C 
ATOM      9  O   UNL     1       4.746   4.407  16.502  0.00  0.00    +0.000 OA
ENDROOT
BRANCH   1  10
ATOM     10  C   UNL     1       7.643   6.535  18.461  0.00  0.00    +0.000 C 
BRANCH  10  11
ATOM     11  C   UNL     1       7.782   7.802  17.604  0.00  0.00    +0.000 C 
BRANCH  11  12
ATOM     12  C   UNL     1       8.539   8.919  18.324  0.00  0.00    +0.000 C 
BRANCH  12  13
ATOM     13  O   UNL     1       8.254  10.150  17.654  0.00  0.00    +0.000 OA
BRANCH  13  17
ATOM     14  C   UNL     1      10.315  13.363  19.330  0.00  0.00    +0.000 A 
ATOM     15  C   UNL     1      10.416  12.069  19.849  0.00  0.00    +0.000 A 
ATOM     16  C   UNL     1       9.704  11.023  19.255  0.00  0.00    +0.000 A 
ATOM     17  C   UNL     1       8.879  11.259  18.155  0.00  0.00    +0.000 A 
ATOM     18  C   UNL     1       8.786  12.551  17.630  0.00  0.00    +0.000 A 
ATOM     19  C   UNL     1       9.502  13.601  18.217  0.00  0.00    +0.000 A 
BRANCH  14  21
ATOM     20  N   UNL     1      11.627  15.318  20.413  0.00  0.00    +0.000 NA
ATOM     21  C   UNL     1      11.043  14.440  19.927  0.00  0.00    +0.000 C 
ENDBRANCH  14  21
ENDBRANCH  13  17
ENDBRANCH  12  13
ENDBRANCH  11  12
ENDBRANCH  10  11
ENDBRANCH   1  10
BRANCH   5  22
ATOM     22  C   UNL     1       2.579   7.367  17.739  0.00  0.00    +0.000 C 
BRANCH  22  23
ATOM     23  C   UNL     1       2.431   8.859  18.085  0.00  0.00    +0.000 C 
BRANCH  23  24
ATOM     24  N   UNL     1       1.043   9.317  17.883  0.00  0.00    +0.000 NA
ATOM     25  H   UNL     1       0.354   8.613  17.615  0.00  0.00    +0.000 HD
BRANCH  24  26
ATOM     26  S   UNL     1       0.411  10.291  19.115  0.00  0.00    +0.000 S 
ATOM     27  O   UNL     1       0.212   9.439  20.264  0.00  0.00    +0.000 OA
ATOM     28  O   UNL     1       1.220  11.487  19.181  0.00  0.00    +0.000 OA
BRANCH  26  29
ATOM     29  C   UNL     1      -1.181  10.705  18.463  0.00  0.00    +0.000 A 
ATOM     30  C   UNL     1      -2.085  11.436  19.238  0.00  0.00    +0.000 A 
ATOM     31  C   UNL     1      -3.312  11.809  18.690  0.00  0.00    +0.000 A 
ATOM     32  C   UNL     1      -3.627  11.449  17.377  0.00  0.00    +0.000 A 
ATOM     33  C   UNL     1      -2.717  10.711  16.605  0.00  0.00    +0.000 A 
ATOM     34  C   UNL     1      -1.488  10.336  17.151  0.00  0.00    +0.000 A 
BRANCH  33  35
ATOM     35  C   UNL     1      -3.045  10.355  15.256  0.00  0.00    +0.000 C 
ATOM     36  N   UNL     1      -3.314  10.058  14.166  0.00  0.00    +0.000 NA
ENDBRANCH  33  35
ENDBRANCH  26  29
ENDBRANCH  24  26
ENDBRANCH  23  24
ENDBRANCH  22  23
ENDBRANCH   5  22
TORSDOF 12
ENDMDL
MODEL 2
REMARK VINA RESULT:      -7.5      3.317      5.240
REMARK  Name = 
REMARK  12 active torsions:
REMARK  status: ('A' for Active; 'I' for Inactive)
REMARK    1  A    between atoms: C_2  and  C_3
REMARK    2  A    between atoms: C_6  and  O_7
REMARK    3  A    between atoms: O_7  and  C_8
REMARK    4  A    between atoms: C_8  and  C_9
REMARK    5  A    between atoms: C_9  and  C_10
REMARK    6  A    between atoms: C_10  and  N_11
REMARK    7  A    between atoms: N_15  and  C_16
REMARK    8  A    between atoms: C_16  and  C_17
REMARK    9  A    between atoms: C_17  and  N_18
REMARK   10  A    between atoms: N_18  and  S_19
REMARK   11  A    between atoms: S_19  and  C_22
REMARK   12  A    between atoms: C_26  and  C_27
REMARK                            x       y       z     vdW  Elec       q    Type
REMARK                         _______ _______ _______ _____ _____    ______ ____
ROOT
ATOM      1  N   UNL     1       2.082   2.119  19.223  0.00  0.00    +0.000 NA
ATOM      2  C   UNL     1       3.281   2.351  20.035  0.00  0.00    +0.000 C 
ATOM      3  C   UNL     1       3.360   3.681  20.807  0.00  0.00    +0.000 C 
ATOM      4  C   UNL     1       3.695   4.910  19.947  0.00  0.00    +0.000 C 
ATOM      5  N   UNL     1       2.604   5.696  19.334  0.00  0.00    +0.000 NA
ATOM      6  C   UNL     1       1.249   5.320  19.789  0.00  0.00    +0.000 C 
ATOM      7  C   UNL     1       1.074   4.037  20.625  0.00  0.00    +0.000 C 
ATOM      8  C   UNL     1       0.889   2.732  19.818  0.00  0.00    +0.000 C 
ATOM      9  O   UNL     1       2.159   3.905  21.558  0.00  0.00    +0.000 OA
ENDROOT
BRANCH   1  10
ATOM     10  C   UNL     1       2.217   2.318  17.784  0.00  0.00    +0.000 C 
BRANCH  10  11
ATOM     11  C   UNL     1       3.671   2.226  17.299  0.00  0.00    +0.000 C 
BRANCH  11  12
ATOM     12  C   UNL     1       4.212   3.569  16.804  0.00  0.00    +0.000 C 
BRANCH  12  13
ATOM     13  O   UNL     1       5.599   3.641  17.146  0.00  0.00    +0.000 OA
BRANCH  13  17
ATOM     14  C   UNL     1       7.378   7.364  17.736  0.00  0.00    +0.000 A 
ATOM     15  C   UNL     1       7.912   6.195  18.287  0.00  0.00    +0.000 A 
ATOM     16  C   UNL     1       7.280   4.969  18.063  0.00  0.00    +0.000 A 
ATOM     17  C   UNL     1       6.108   4.900  17.308  0.00  0.00    +0.000 A 
ATOM     18  C   UNL     1       5.580   6.068  16.751  0.00  0.00    +0.000 A 
ATOM     19  C   UNL     1       6.213   7.298  16.966  0.00  0.00    +0.000 A 
BRANCH  14  21
ATOM     20  N   UNL     1       8.547   9.643  18.131  0.00  0.00    +0.000 NA
ATOM     21  C   UNL     1       8.020   8.624  17.955  0.00  0.00    +0.000 C 
ENDBRANCH  14  21
ENDBRANCH  13  17
ENDBRANCH  12  13
ENDBRANCH  11  12
ENDBRANCH  10  11
ENDBRANCH   1  10
BRANCH   5  22
ATOM     22  C   UNL     1       2.821   7.151  19.554  0.00  0.00    +0.000 C 
BRANCH  22  23
ATOM     23  C   UNL     1       1.556   7.898  20.012  0.00  0.00    +0.000 C 
BRANCH  23  24
ATOM     24  N   UNL     1       1.682   8.350  21.412  0.00  0.00    +0.000 NA
ATOM     25  H   UNL     1       2.537   8.847  21.666  0.00  0.00    +0.000 HD
BRANCH  24  26
ATOM     26  S   UNL     1       0.340   9.172  22.034  0.00  0.00    +0.000 S 
ATOM     27  O   UNL     1      -0.799   8.299  21.876  0.00  0.00    +0.000 OA
ATOM     28  O   UNL     1       0.718   9.710  23.321  0.00  0.00    +0.000 OA
BRANCH  26  29
ATOM     29  C   UNL     1       0.169  10.502  20.879  0.00  0.00    +0.000 A 
ATOM     30  C   UNL     1       1.051  11.584  20.923  0.00  0.00    +0.000 A 
ATOM     31  C   UNL     1       0.944  12.595  19.969  0.00  0.00    +0.000 A 
ATOM     32  C   UNL     1      -0.041  12.519  18.980  0.00  0.00    +0.000 A 
ATOM     33  C   UNL     1      -0.926  11.432  18.943  0.00  0.00    +0.000 A 
ATOM     34  C   UNL     1      -0.823  10.418  19.897  0.00  0.00    +0.000 A 
BRANCH  33  35
ATOM     35  C   UNL     1      -1.926  11.357  17.919  0.00  0.00    +0.000 C 
ATOM     36  N   UNL     1      -2.735  11.287  17.088  0.00  0.00    +0.000 NA
ENDBRANCH  33  35
ENDBRANCH  26  29
ENDBRANCH  24  26
ENDBRANCH  23  24
ENDBRANCH  22  23
ENDBRANCH   5  22
TORSDOF 12
ENDMDL
MODEL 3
REMARK VINA RESULT:      -7.4      2.474      3.077
REMARK  Name = 
REMARK  12 active torsions:
REMARK  status: ('A' for Active; 'I' for Inactive)
REMARK    1  A    between atoms: C_2  and  C_3
REMARK    2  A    between atoms: C_6  and  O_7
REMARK    3  A    between atoms: O_7  and  C_8
REMARK    4  A    between atoms: C_8  and  C_9
REMARK    5  A    between atoms: C_9  and  C_10
REMARK    6  A    between atoms: C_10  and  N_11
REMARK    7  A    between atoms: N_15  and  C_16
REMARK    8  A    between atoms: C_16  and  C_17
REMARK    9  A    between atoms: C_17  and  N_18
REMARK   10  A    between atoms: N_18  and  S_19
REMARK   11  A    between atoms: S_19  and  C_22
REMARK   12  A    between atoms: C_26  and  C_27
REMARK                            x       y       z     vdW  Elec       q    Type
REMARK                         _______ _______ _______ _____ _____    ______ ____
ROOT
ATOM      1  N   UNL     1       6.798   5.936  17.390  0.00  0.00    +0.000 NA
ATOM      2  C   UNL     1       6.547   4.660  18.070  0.00  0.00    +0.000 C 
ATOM      3  C   UNL     1       5.079   4.286  18.343  0.00  0.00    +0.000 C 
ATOM      4  C   UNL     1       4.424   5.044  19.509  0.00  0.00    +0.000 C 
ATOM      5  N   UNL     1       3.721   6.319  19.253  0.00  0.00    +0.000 NA
ATOM      6  C   UNL     1       3.546   6.643  17.821  0.00  0.00    +0.000 C 
ATOM      7  C   UNL     1       4.297   5.802  16.770  0.00  0.00    +0.000 C 
ATOM      8  C   UNL     1       5.732   6.269  16.439  0.00  0.00    +0.000 C 
ATOM      9  O   UNL     1       4.291   4.417  17.152  0.00  0.00    +0.000 OA
ENDROOT
BRANCH   1  10
ATOM     10  C   UNL     1       7.239   7.046  18.226  0.00  0.00    +0.000 C 
BRANCH  10  11
ATOM     11  C   UNL     1       8.146   8.037  17.481  0.00  0.00    +0.000 C 
BRANCH  11  12
ATOM     12  C   UNL     1       8.102   9.442  18.083  0.00  0.00    +0.000 C 
BRANCH  12  13
ATOM     13  O   UNL     1       9.087   9.510  19.119  0.00  0.00    +0.000 OA
BRANCH  13  17
ATOM     14  C   UNL     1      11.032  13.196  19.230  0.00  0.00    +0.000 A 
ATOM     15  C   UNL     1      10.740  12.551  18.025  0.00  0.00    +0.000 A 
ATOM     16  C   UNL     1      10.087  11.315  18.037  0.00  0.00    +0.000 A 
ATOM     17  C   UNL     1       9.738  10.707  19.243  0.00  0.00    +0.000 A 
ATOM     18  C   UNL     1      10.022  11.356  20.447  0.00  0.00    +0.000 A 
ATOM     19  C   UNL     1      10.669  12.598  20.441  0.00  0.00    +0.000 A 
BRANCH  14  21
ATOM     20  N   UNL     1      12.233  15.492  19.236  0.00  0.00    +0.000 NA
ATOM     21  C   UNL     1      11.695  14.464  19.230  0.00  0.00    +0.000 C 
ENDBRANCH  14  21
ENDBRANCH  13  17
ENDBRANCH  12  13
ENDBRANCH  11  12
ENDBRANCH  10  11
ENDBRANCH   1  10
BRANCH   5  22
ATOM     22  C   UNL     1       2.400   6.332  19.935  0.00  0.00    +0.000 C 
BRANCH  22  23
ATOM     23  C   UNL     1       1.793   7.740  20.070  0.00  0.00    +0.000 C 
BRANCH  23  24
ATOM     24  N   UNL     1       1.782   8.182  21.479  0.00  0.00    +0.000 NA
ATOM     25  H   UNL     1       2.619   8.653  21.826  0.00  0.00    +0.000 HD
BRANCH  24  26
ATOM     26  S   UNL     1       0.405   9.040  21.961  0.00  0.00    +0.000 S 
ATOM     27  O   UNL     1      -0.721   8.150  21.804  0.00  0.00    +0.000 OA
ATOM     28  O   UNL     1       0.708   9.674  23.224  0.00  0.00    +0.000 OA
BRANCH  26  29
ATOM     29  C   UNL     1       0.298  10.280  20.703  0.00  0.00    +0.000 A 
ATOM     30  C   UNL     1      -0.717  10.217  19.744  0.00  0.00    +0.000 A 
ATOM     31  C   UNL     1      -0.827  11.234  18.796  0.00  0.00    +0.000 A 
ATOM     32  C   UNL     1       0.074  12.302  18.811  0.00  0.00    +0.000 A 
ATOM     33  C   UNL     1       1.092  12.358  19.773  0.00  0.00    +0.000 A 
ATOM     34  C   UNL     1       1.207  11.341  20.724  0.00  0.00    +0.000 A 
BRANCH  33  35
ATOM     35  C   UNL     1       2.005  13.463  19.787  0.00  0.00    +0.000 C 
ATOM     36  N   UNL     1       2.751  14.352  19.804  0.00  0.00    +0.000 NA
ENDBRANCH  33  35
ENDBRANCH  26  29
ENDBRANCH  24  26
ENDBRANCH  23  24
ENDBRANCH  22  23
ENDBRANCH   5  22
TORSDOF 12
ENDMDL
MODEL 4
REMARK VINA RESULT:      -7.4      1.757      2.117
REMARK  Name = 
REMARK  12 active torsions:
REMARK  status: ('A' for Active; 'I' for Inactive)
REMARK    1  A    between atoms: C_2  and  C_3
REMARK    2  A    between atoms: C_6  and  O_7
REMARK    3  A    between atoms: O_7  and  C_8
REMARK    4  A    between atoms: C_8  and  C_9
REMARK    5  A    between atoms: C_9  and  C_10
REMARK    6  A    between atoms: C_10  and  N_11
REMARK    7  A    between atoms: N_15  and  C_16
REMARK    8  A    between atoms: C_16  and  C_17
REMARK    9  A    between atoms: C_17  and  N_18
REMARK   10  A    between atoms: N_18  and  S_19
REMARK   11  A    between atoms: S_19  and  C_22
REMARK   12  A    between atoms: C_26  and  C_27
REMARK                            x       y       z     vdW  Elec       q    Type
REMARK                         _______ _______ _______ _____ _____    ______ ____
ROOT
ATOM      1  N   UNL     1       6.357   5.727  16.966  0.00  0.00    +0.000 NA
ATOM      2  C   UNL     1       6.538   4.840  18.120  0.00  0.00    +0.000 C 
ATOM      3  C   UNL     1       5.265   4.292  18.791  0.00  0.00    +0.000 C 
ATOM      4  C   UNL     1       4.514   5.301  19.675  0.00  0.00    +0.000 C 
ATOM      5  N   UNL     1       3.457   6.149  19.085  0.00  0.00    +0.000 NA
ATOM      6  C   UNL     1       3.084   5.786  17.702  0.00  0.00    +0.000 C 
ATOM      7  C   UNL     1       3.959   4.776  16.935  0.00  0.00    +0.000 C 
ATOM      8  C   UNL     1       5.169   5.372  16.182  0.00  0.00    +0.000 C 
ATOM      9  O   UNL     1       4.381   3.722  17.816  0.00  0.00    +0.000 OA
ENDROOT
BRANCH   1  10
ATOM     10  C   UNL     1       6.526   7.155  17.207  0.00  0.00    +0.000 C 
BRANCH  10  11
ATOM     11  C   UNL     1       7.927   7.517  17.722  0.00  0.00    +0.000 C 
BRANCH  11  12
ATOM     12  C   UNL     1       8.109   9.022  17.926  0.00  0.00    +0.000 C 
BRANCH  12  13
ATOM     13  O   UNL     1       8.936   9.215  19.078  0.00  0.00    +0.000 OA
BRANCH  13  17
ATOM     14  C   UNL     1      10.538  12.992  19.817  0.00  0.00    +0.000 A 
ATOM     15  C   UNL     1      10.045  12.185  20.846  0.00  0.00    +0.000 A 
ATOM     16  C   UNL     1       9.515  10.926  20.550  0.00  0.00    +0.000 A 
ATOM     17  C   UNL     1       9.457  10.470  19.232  0.00  0.00    +0.000 A 
ATOM     18  C   UNL     1       9.958  11.274  18.205  0.00  0.00    +0.000 A 
ATOM     19  C   UNL     1      10.497  12.533  18.497  0.00  0.00    +0.000 A 
BRANCH  14  21
ATOM     20  N   UNL     1      11.527  15.329  20.344  0.00  0.00    +0.000 NA
ATOM     21  C   UNL     1      11.087  14.281  20.109  0.00  0.00    +0.000 C 
ENDBRANCH  14  21
ENDBRANCH  13  17
ENDBRANCH  12  13
ENDBRANCH  11  12
ENDBRANCH  10  11
ENDBRANCH   1  10
BRANCH   5  22
ATOM     22  C   UNL     1       2.246   6.148  19.948  0.00  0.00    +0.000 C 
BRANCH  22  23
ATOM     23  C   UNL     1       2.116   7.406  20.825  0.00  0.00    +0.000 C 
BRANCH  23  24
ATOM     24  N   UNL     1       0.709   7.839  20.930  0.00  0.00    +0.000 NA
ATOM     25  H   UNL     1       0.020   7.127  21.178  0.00  0.00    +0.000 HD
BRANCH  24  26
ATOM     26  S   UNL     1       0.444   9.233  21.852  0.00  0.00    +0.000 S 
ATOM     27  O   UNL     1      -0.701   8.971  22.691  0.00  0.00    +0.000 OA
ATOM     28  O   UNL     1       1.718   9.640  22.402  0.00  0.00    +0.000 OA
BRANCH  26  29
ATOM     29  C   UNL     1      -0.048  10.395  20.610  0.00  0.00    +0.000 A 
ATOM     30  C   UNL     1       0.307  11.741  20.733  0.00  0.00    +0.000 A 
ATOM     31  C   UNL     1      -0.033  12.634  19.717  0.00  0.00    +0.000 A 
ATOM     32  C   UNL     1      -0.722  12.178  18.590  0.00  0.00    +0.000 A 
ATOM     33  C   UNL     1      -1.078  10.826  18.474  0.00  0.00    +0.000 A 
ATOM     34  C   UNL     1      -0.740   9.929  19.490  0.00  0.00    +0.000 A 
BRANCH  33  35
ATOM     35  C   UNL     1      -1.776  10.366  17.310  0.00  0.00    +0.000 C 
ATOM     36  N   UNL     1      -2.344  10.002  16.365  0.00  0.00    +0.000 NA
ENDBRANCH  33  35
ENDBRANCH  26  29
ENDBRANCH  24  26
ENDBRANCH  23  24
ENDBRANCH  22  23
ENDBRANCH   5  22
TORSDOF 12
ENDMDL
MODEL 5
REMARK VINA RESULT:      -7.2      4.634      6.414
REMARK  Name = 
REMARK  12 active torsions:
REMARK  status: ('A' for Active; 'I' for Inactive)
REMARK    1  A    between atoms: C_2  and  C_3
REMARK    2  A    between atoms: C_6  and  O_7
REMARK    3  A    between atoms: O_7  and  C_8
REMARK    4  A    between atoms: C_8  and  C_9
REMARK    5  A    between atoms: C_9  and  C_10
REMARK    6  A    between atoms: C_10  and  N_11
REMARK    7  A    between atoms: N_15  and  C_16
REMARK    8  A    between atoms: C_16  and  C_17
REMARK    9  A    between atoms: C_17  and  N_18
REMARK   10  A    between atoms: N_18  and  S_19
REMARK   11  A    between atoms: S_19  and  C_22
REMARK   12  A    between atoms: C_26  and  C_27
REMARK                            x       y       z     vdW  Elec       q    Type
REMARK                         _______ _______ _______ _____ _____    ______ ____
ROOT
ATOM      1  N   UNL     1       4.654   3.774  18.337  0.00  0.00    +0.000 NA
ATOM      2  C   UNL     1       4.187   3.052  19.525  0.00  0.00    +0.000 C 
ATOM      3  C   UNL     1       2.793   3.418  20.067  0.00  0.00    +0.000 C 
ATOM      4  C   UNL     1       2.727   4.746  20.839  0.00  0.00    +0.000 C 
ATOM      5  N   UNL     1       2.428   6.000  20.117  0.00  0.00    +0.000 NA
ATOM      6  C   UNL     1       2.015   5.812  18.710  0.00  0.00    +0.000 C 
ATOM      7  C   UNL     1       2.170   4.419  18.068  0.00  0.00    +0.000 C 
ATOM      8  C   UNL     1       3.549   4.123  17.437  0.00  0.00    +0.000 C 
ATOM      9  O   UNL     1       1.818   3.398  19.016  0.00  0.00    +0.000 OA
ENDROOT
BRANCH   1  10
ATOM     10  C   UNL     1       5.621   4.843  18.559  0.00  0.00    +0.000 C 
BRANCH  10  11
ATOM     11  C   UNL     1       6.899   4.682  17.722  0.00  0.00    +0.000 C 
BRANCH  11  12
ATOM     12  C   UNL     1       6.971   5.676  16.562  0.00  0.00    +0.000 C 
BRANCH  12  13
ATOM     13  O   UNL     1       7.716   5.067  15.503  0.00  0.00    +0.000 OA
BRANCH  13  17
ATOM     14  C   UNL     1       5.251   3.703  12.431  0.00  0.00    +0.000 A 
ATOM     15  C   UNL     1       4.798   3.811  13.748  0.00  0.00    +0.000 A 
ATOM     16  C   UNL     1       5.661   4.272  14.746  0.00  0.00    +0.000 A 
ATOM     17  C   UNL     1       6.981   4.611  14.444  0.00  0.00    +0.000 A 
ATOM     18  C   UNL     1       7.431   4.512  13.125  0.00  0.00    +0.000 A 
ATOM     19  C   UNL     1       6.568   4.058  12.120  0.00  0.00    +0.000 A 
BRANCH  14  21
ATOM     20  N   UNL     1       3.669   2.858  10.560  0.00  0.00    +0.000 NA
ATOM     21  C   UNL     1       4.375   3.237  11.400  0.00  0.00    +0.000 C 
ENDBRANCH  14  21
ENDBRANCH  13  17
ENDBRANCH  12  13
ENDBRANCH  11  12
ENDBRANCH  10  11
ENDBRANCH   1  10
BRANCH   5  22
ATOM     22  C   UNL     1       1.395   6.785  20.843  0.00  0.00    +0.000 C 
BRANCH  22  23
ATOM     23  C   UNL     1       1.598   8.307  20.742  0.00  0.00    +0.000 C 
BRANCH  23  24
ATOM     24  N   UNL     1       0.324   8.997  20.456  0.00  0.00    +0.000 NA
ATOM     25  H   UNL     1      -0.488   8.726  21.012  0.00  0.00    +0.000 HD
BRANCH  24  26
ATOM     26  S   UNL     1       0.415  10.685  20.368  0.00  0.00    +0.000 S 
ATOM     27  O   UNL     1       0.329  11.182  21.721  0.00  0.00    +0.000 OA
ATOM     28  O   UNL     1       1.523  11.016  19.500  0.00  0.00    +0.000 OA
BRANCH  26  29
ATOM     29  C   UNL     1      -1.101  11.082  19.546  0.00  0.00    +0.000 A 
ATOM     30  C   UNL     1      -2.072  11.845  20.200  0.00  0.00    +0.000 A 
ATOM     31  C   UNL     1      -3.236  12.203  19.520  0.00  0.00    +0.000 A 
ATOM     32  C   UNL     1      -3.421  11.797  18.195  0.00  0.00    +0.000 A 
ATOM     33  C   UNL     1      -2.445  11.028  17.545  0.00  0.00    +0.000 A 
ATOM     34  C   UNL     1      -1.278  10.667  18.223  0.00  0.00    +0.000 A 
BRANCH  33  35
ATOM     35  C   UNL     1      -2.639  10.626  16.183  0.00  0.00    +0.000 C 
ATOM     36  N   UNL     1      -2.799  10.290  15.083  0.00  0.00    +0.000 NA
ENDBRANCH  33  35
ENDBRANCH  26  29
ENDBRANCH  24  26
ENDBRANCH  23  24
ENDBRANCH  22  23
ENDBRANCH   5  22
TORSDOF 12
ENDMDL
MODEL 6
REMARK VINA RESULT:      -7.2      5.374      8.502
REMARK  Name = 
REMARK  12 active torsions:
REMARK  status: ('A' for Active; 'I' for Inactive)
REMARK    1  A    between atoms: C_2  and  C_3
REMARK    2  A    between atoms: C_6  and  O_7
REMARK    3  A    between atoms: O_7  and  C_8
REMARK    4  A    between atoms: C_8  and  C_9
REMARK    5  A    between atoms: C_9  and  C_10
REMARK    6  A    between atoms: C_10  and  N_11
REMARK    7  A    between atoms: N_15  and  C_16
REMARK    8  A    between atoms: C_16  and  C_17
REMARK    9  A    between atoms: C_17  and  N_18
REMARK   10  A    between atoms: N_18  and  S_19
REMARK   11  A    between atoms: S_19  and  C_22
REMARK   12  A    between atoms: C_26  and  C_27
REMARK                            x       y       z     vdW  Elec       q    Type
REMARK                         _______ _______ _______ _____ _____    ______ ____
ROOT
ATOM      1  N   UNL     1       0.450  10.519  21.257  0.00  0.00    +0.000 NA
ATOM      2  C   UNL     1       0.937  11.862  20.924  0.00  0.00    +0.000 C 
ATOM      3  C   UNL     1       0.101  13.055  21.421  0.00  0.00    +0.000 C 
ATOM      4  C   UNL     1      -1.189  13.318  20.626  0.00  0.00    +0.000 C 
ATOM      5  N   UNL     1      -2.451  12.669  21.039  0.00  0.00    +0.000 NA
ATOM      6  C   UNL     1      -2.380  11.965  22.336  0.00  0.00    +0.000 C 
ATOM      7  C   UNL     1      -1.002  11.755  22.995  0.00  0.00    +0.000 C 
ATOM      8  C   UNL     1      -0.234  10.489  22.555  0.00  0.00    +0.000 C 
ATOM      9  O   UNL     1      -0.189  12.926  22.820  0.00  0.00    +0.000 OA
ENDROOT
BRANCH   1  10
ATOM     10  C   UNL     1      -0.228   9.787  20.193  0.00  0.00    +0.000 C 
BRANCH  10  11
ATOM     11  C   UNL     1       0.631   9.630  18.930  0.00  0.00    +0.000 C 
BRANCH  11  12
ATOM     12  C   UNL     1       1.927   8.861  19.191  0.00  0.00    +0.000 C 
BRANCH  12  13
ATOM     13  O   UNL     1       2.147   7.977  18.088  0.00  0.00    +0.000 OA
BRANCH  13  17
ATOM     14  C   UNL     1       3.749   4.307  19.248  0.00  0.00    +0.000 A 
ATOM     15  C   UNL     1       3.002   5.097  20.125  0.00  0.00    +0.000 A 
ATOM     16  C   UNL     1       2.485   6.322  19.692  0.00  0.00    +0.000 A 
ATOM     17  C   UNL     1       2.723   6.775  18.394  0.00  0.00    +0.000 A 
ATOM     18  C   UNL     1       3.463   5.981  17.514  0.00  0.00    +0.000 A 
ATOM     19  C   UNL     1       3.976   4.750  17.940  0.00  0.00    +0.000 A 
BRANCH  14  21
ATOM     20  N   UNL     1       4.711   2.033  20.034  0.00  0.00    +0.000 NA
ATOM     21  C   UNL     1       4.279   3.050  19.679  0.00  0.00    +0.000 C 
ENDBRANCH  14  21
ENDBRANCH  13  17
ENDBRANCH  12  13
ENDBRANCH  11  12
ENDBRANCH  10  11
ENDBRANCH   1  10
BRANCH   5  22
ATOM     22  C   UNL     1      -3.561  13.657  21.064  0.00  0.00    +0.000 C 
BRANCH  22  23
ATOM     23  C   UNL     1      -4.886  13.106  20.507  0.00  0.00    +0.000 C 
BRANCH  23  24
ATOM     24  N   UNL     1      -4.942  13.240  19.038  0.00  0.00    +0.000 NA
ATOM     25  H   UNL     1      -4.067  13.446  18.555  0.00  0.00    +0.000 HD
BRANCH  24  26
ATOM     26  S   UNL     1      -5.764  12.003  18.226  0.00  0.00    +0.000 S 
ATOM     27  O   UNL     1      -6.219  11.071  19.230  0.00  0.00    +0.000 OA
ATOM     28  O   UNL     1      -6.674  12.626  17.292  0.00  0.00    +0.000 OA
BRANCH  26  29
ATOM     29  C   UNL     1      -4.449  11.233  17.325  0.00  0.00    +0.000 A 
ATOM     30  C   UNL     1      -3.292  10.822  17.992  0.00  0.00    +0.000 A 
ATOM     31  C   UNL     1      -2.290  10.161  17.282  0.00  0.00    +0.000 A 
ATOM     32  C   UNL     1      -2.450   9.916  15.916  0.00  0.00    +0.000 A 
ATOM     33  C   UNL     1      -3.612  10.333  15.251  0.00  0.00    +0.000 A 
ATOM     34  C   UNL     1      -4.618  10.996  15.958  0.00  0.00    +0.000 A 
BRANCH  33  35
ATOM     35  C   UNL     1      -3.772  10.068  13.852  0.00  0.00    +0.000 C 
ATOM     36  N   UNL     1      -3.893   9.848  12.718  0.00  0.00    +0.000 NA
ENDBRANCH  33  35
ENDBRANCH  26  29
ENDBRANCH  24  26
ENDBRANCH  23  24
ENDBRANCH  22  23
ENDBRANCH   5  22
TORSDOF 12
ENDMDL
MODEL 7
REMARK VINA RESULT:      -7.2      4.311      9.231
REMARK  Name = 
REMARK  12 active torsions:
REMARK  status: ('A' for Active; 'I' for Inactive)
REMARK    1  A    between atoms: C_2  and  C_3
REMARK    2  A    between atoms: C_6  and  O_7
REMARK    3  A    between atoms: O_7  and  C_8
REMARK    4  A    between atoms: C_8  and  C_9
REMARK    5  A    between atoms: C_9  and  C_10
REMARK    6  A    between atoms: C_10  and  N_11
REMARK    7  A    between atoms: N_15  and  C_16
REMARK    8  A    between atoms: C_16  and  C_17
REMARK    9  A    between atoms: C_17  and  N_18
REMARK   10  A    between atoms: N_18  and  S_19
REMARK   11  A    between atoms: S_19  and  C_22
REMARK   12  A    between atoms: C_26  and  C_27
REMARK                            x       y       z     vdW  Elec       q    Type
REMARK                         _______ _______ _______ _____ _____    ______ ____
ROOT
ATOM      1  N   UNL     1       1.315   4.232  20.881  0.00  0.00    +0.000 NA
ATOM      2  C   UNL     1       0.730   4.243  19.535  0.00  0.00    +0.000 C 
ATOM      3  C   UNL     1       1.358   3.305  18.488  0.00  0.00    +0.000 C 
ATOM      4  C   UNL     1       2.702   3.783  17.916  0.00  0.00    +0.000 C 
ATOM      5  N   UNL     1       3.964   3.378  18.571  0.00  0.00    +0.000 NA
ATOM      6  C   UNL     1       3.804   2.361  19.630  0.00  0.00    +0.000 C 
ATOM      7  C   UNL     1       2.384   2.011  20.118  0.00  0.00    +0.000 C 
ATOM      8  C   UNL     1       1.824   2.906  21.247  0.00  0.00    +0.000 C 
ATOM      9  O   UNL     1       1.476   1.973  19.006  0.00  0.00    +0.000 OA
ENDROOT
BRANCH   1  10
ATOM     10  C   UNL     1       2.201   5.341  21.217  0.00  0.00    +0.000 C 
BRANCH  10  11
ATOM     11  C   UNL     1       2.020   6.557  20.296  0.00  0.00    +0.000 C 
BRANCH  11  12
ATOM     12  C   UNL     1       0.902   7.489  20.766  0.00  0.00    +0.000 C 
BRANCH  12  13
ATOM     13  O   UNL     1       1.472   8.441  21.671  0.00  0.00    +0.000 OA
BRANCH  13  17
ATOM     14  C   UNL     1      -0.892  11.791  22.422  0.00  0.00    +0.000 A 
ATOM     15  C   UNL     1       0.037  11.762  21.378  0.00  0.00    +0.000 A 
ATOM     16  C   UNL     1       0.809  10.616  21.165  0.00  0.00    +0.000 A 
ATOM     17  C   UNL     1       0.675   9.503  21.997  0.00  0.00    +0.000 A 
ATOM     18  C   UNL     1      -0.260   9.531  23.034  0.00  0.00    +0.000 A 
ATOM     19  C   UNL     1      -1.041  10.673  23.247  0.00  0.00    +0.000 A 
BRANCH  14  21
ATOM     20  N   UNL     1      -2.340  13.901  22.833  0.00  0.00    +0.000 NA
ATOM     21  C   UNL     1      -1.691  12.957  22.645  0.00  0.00    +0.000 C 
ENDBRANCH  14  21
ENDBRANCH  13  17
ENDBRANCH  12  13
ENDBRANCH  11  12
ENDBRANCH  10  11
ENDBRANCH   1  10
BRANCH   5  22
ATOM     22  C   UNL     1       4.946   2.902  17.562  0.00  0.00    +0.000 C 
BRANCH  22  23
ATOM     23  C   UNL     1       4.824   3.613  16.202  0.00  0.00    +0.000 C 
BRANCH  23  24
ATOM     24  N   UNL     1       6.148   3.801  15.578  0.00  0.00    +0.000 NA
ATOM     25  H   UNL     1       6.383   3.193  14.792  0.00  0.00    +0.000 HD
BRANCH  24  26
ATOM     26  S   UNL     1       6.555   5.400  15.203  0.00  0.00    +0.000 S 
ATOM     27  O   UNL     1       7.657   5.346  14.272  0.00  0.00    +0.000 OA
ATOM     28  O   UNL     1       5.328   6.100  14.896  0.00  0.00    +0.000 OA
BRANCH  26  29
ATOM     29  C   UNL     1       7.181   5.983  16.753  0.00  0.00    +0.000 A 
ATOM     30  C   UNL     1       7.402   5.084  17.799  0.00  0.00    +0.000 A 
ATOM     31  C   UNL     1       7.953   5.546  18.994  0.00  0.00    +0.000 A 
ATOM     32  C   UNL     1       8.278   6.898  19.135  0.00  0.00    +0.000 A 
ATOM     33  C   UNL     1       8.051   7.796  18.082  0.00  0.00    +0.000 A 
ATOM     34  C   UNL     1       7.498   7.338  16.884  0.00  0.00    +0.000 A 
BRANCH  33  35
ATOM     35  C   UNL     1       8.397   9.179  18.232  0.00  0.00    +0.000 C 
ATOM     36  N   UNL     1       8.680  10.298  18.362  0.00  0.00    +0.000 NA
ENDBRANCH  33  35
ENDBRANCH  26  29
ENDBRANCH  24  26
ENDBRANCH  23  24
ENDBRANCH  22  23
ENDBRANCH   5  22
TORSDOF 12
ENDMDL
MODEL 8
REMARK VINA RESULT:      -7.1      5.467      8.871
REMARK  Name = 
REMARK  12 active torsions:
REMARK  status: ('A' for Active; 'I' for Inactive)
REMARK    1  A    between atoms: C_2  and  C_3
REMARK    2  A    between atoms: C_6  and  O_7
REMARK    3  A    between atoms: O_7  and  C_8
REMARK    4  A    between atoms: C_8  and  C_9
REMARK    5  A    between atoms: C_9  and  C_10
REMARK    6  A    between atoms: C_10  and  N_11
REMARK    7  A    between atoms: N_15  and  C_16
REMARK    8  A    between atoms: C_16  and  C_17
REMARK    9  A    between atoms: C_17  and  N_18
REMARK   10  A    between atoms: N_18  and  S_19
REMARK   11  A    between atoms: S_19  and  C_22
REMARK   12  A    between atoms: C_26  and  C_27
REMARK                            x       y       z     vdW  Elec       q    Type
REMARK                         _______ _______ _______ _____ _____    ______ ____
ROOT
ATOM      1  N   UNL     1       0.921  12.532  19.068  0.00  0.00    +0.000 NA
ATOM      2  C   UNL     1      -0.394  12.941  18.562  0.00  0.00    +0.000 C 
ATOM      3  C   UNL     1      -1.399  13.495  19.589  0.00  0.00    +0.000 C 
ATOM      4  C   UNL     1      -2.064  12.435  20.482  0.00  0.00    +0.000 C 
ATOM      5  N   UNL     1      -1.439  12.063  21.768  0.00  0.00    +0.000 NA
ATOM      6  C   UNL     1      -0.304  12.922  22.167  0.00  0.00    +0.000 C 
ATOM      7  C   UNL     1       0.270  13.920  21.143  0.00  0.00    +0.000 C 
ATOM      8  C   UNL     1       1.357  13.359  20.198  0.00  0.00    +0.000 C 
ATOM      9  O   UNL     1      -0.795  14.520  20.390  0.00  0.00    +0.000 OA
ENDROOT
BRANCH   1  10
ATOM     10  C   UNL     1       1.138  11.100  19.240  0.00  0.00    +0.000 C 
BRANCH  10  11
ATOM     11  C   UNL     1       1.955  10.474  18.100  0.00  0.00    +0.000 C 
BRANCH  11  12
ATOM     12  C   UNL     1       1.519   9.043  17.780  0.00  0.00    +0.000 C 
BRANCH  12  13
ATOM     13  O   UNL     1       2.682   8.210  17.806  0.00  0.00    +0.000 OA
BRANCH  13  17
ATOM     14  C   UNL     1       2.257   4.938  20.353  0.00  0.00    +0.000 A 
ATOM     15  C   UNL     1       1.882   6.228  20.739  0.00  0.00    +0.000 A 
ATOM     16  C   UNL     1       2.044   7.295  19.851  0.00  0.00    +0.000 A 
ATOM     17  C   UNL     1       2.595   7.090  18.585  0.00  0.00    +0.000 A 
ATOM     18  C   UNL     1       2.961   5.799  18.197  0.00  0.00    +0.000 A 
ATOM     19  C   UNL     1       2.794   4.725  19.080  0.00  0.00    +0.000 A 
BRANCH  14  21
ATOM     20  N   UNL     1       1.949   2.947  21.984  0.00  0.00    +0.000 NA
ATOM     21  C   UNL     1       2.090   3.838  21.252  0.00  0.00    +0.000 C 
ENDBRANCH  14  21
ENDBRANCH  13  17
ENDBRANCH  12  13
ENDBRANCH  11  12
ENDBRANCH  10  11
ENDBRANCH   1  10
BRANCH   5  22
ATOM     22  C   UNL     1      -2.455  12.038  22.853  0.00  0.00    +0.000 C 
BRANCH  22  23
ATOM     23  C   UNL     1      -3.510  13.153  22.733  0.00  0.00    +0.000 C 
BRANCH  23  24
ATOM     24  N   UNL     1      -4.862  12.641  23.029  0.00  0.00    +0.000 NA
ATOM     25  H   UNL     1      -5.141  12.603  24.011  0.00  0.00    +0.000 HD
BRANCH  24  26
ATOM     26  S   UNL     1      -6.113  13.314  22.108  0.00  0.00    +0.000 S 
ATOM     27  O   UNL     1      -7.299  13.294  22.931  0.00  0.00    +0.000 OA
ATOM     28  O   UNL     1      -5.610  14.536  21.520  0.00  0.00    +0.000 OA
BRANCH  26  29
ATOM     29  C   UNL     1      -6.313  12.100  20.836  0.00  0.00    +0.000 A 
ATOM     30  C   UNL     1      -7.266  11.089  20.979  0.00  0.00    +0.000 A 
ATOM     31  C   UNL     1      -7.457  10.175  19.943  0.00  0.00    +0.000 A 
ATOM     32  C   UNL     1      -6.696  10.277  18.775  0.00  0.00    +0.000 A 
ATOM     33  C   UNL     1      -5.738  11.292  18.639  0.00  0.00    +0.000 A 
ATOM     34  C   UNL     1      -5.543  12.208  19.675  0.00  0.00    +0.000 A 
BRANCH  33  35
ATOM     35  C   UNL     1      -4.969  11.395  17.433  0.00  0.00    +0.000 C 
ATOM     36  N   UNL     1      -4.339  11.473  16.461  0.00  0.00    +0.000 NA
ENDBRANCH  33  35
ENDBRANCH  26  29
ENDBRANCH  24  26
ENDBRANCH  23  24
ENDBRANCH  22  23
ENDBRANCH   5  22
TORSDOF 12
ENDMDL
MODEL 9
REMARK VINA RESULT:      -7.1      3.693      5.657
REMARK  Name = 
REMARK  12 active torsions:
REMARK  status: ('A' for Active; 'I' for Inactive)
REMARK    1  A    between atoms: C_2  and  C_3
REMARK    2  A    between atoms: C_6  and  O_7
REMARK    3  A    between atoms: O_7  and  C_8
REMARK    4  A    between atoms: C_8  and  C_9
REMARK    5  A    between atoms: C_9  and  C_10
REMARK    6  A    between atoms: C_10  and  N_11
REMARK    7  A    between atoms: N_15  and  C_16
REMARK    8  A    between atoms: C_16  and  C_17
REMARK    9  A    between atoms: C_17  and  N_18
REMARK   10  A    between atoms: N_18  and  S_19
REMARK   11  A    between atoms: S_19  and  C_22
REMARK   12  A    between atoms: C_26  and  C_27
REMARK                            x       y       z     vdW  Elec       q    Type
REMARK                         _______ _______ _______ _____ _____    ______ ____
ROOT
ATOM      1  N   UNL     1       3.093   2.284  19.756  0.00  0.00    +0.000 NA
ATOM      2  C   UNL     1       2.880   3.134  20.933  0.00  0.00    +0.000 C 
ATOM      3  C   UNL     1       1.936   4.340  20.767  0.00  0.00    +0.000 C 
ATOM      4  C   UNL     1       2.539   5.532  20.006  0.00  0.00    +0.000 C 
ATOM      5  N   UNL     1       2.391   5.617  18.538  0.00  0.00    +0.000 NA
ATOM      6  C   UNL     1       1.477   4.611  17.957  0.00  0.00    +0.000 C 
ATOM      7  C   UNL     1       0.981   3.454  18.846  0.00  0.00    +0.000 C 
ATOM      8  C   UNL     1       1.900   2.213  18.907  0.00  0.00    +0.000 C 
ATOM      9  O   UNL     1       0.697   3.937  20.169  0.00  0.00    +0.000 OA
ENDROOT
BRANCH   1  10
ATOM     10  C   UNL     1       4.347   2.472  19.034  0.00  0.00    +0.000 C 
BRANCH  10  11
ATOM     11  C   UNL     1       4.165   2.497  17.509  0.00  0.00    +0.000 C 
BRANCH  11  12
ATOM     12  C   UNL     1       4.711   3.775  16.872  0.00  0.00    +0.000 C 
BRANCH  12  13
ATOM     13  O   UNL     1       6.136   3.760  17.002  0.00  0.00    +0.000 OA
BRANCH  13  17
ATOM     14  C   UNL     1       7.739   7.512  17.855  0.00  0.00    +0.000 A 
ATOM     15  C   UNL     1       6.943   7.288  16.729  0.00  0.00    +0.000 A 
ATOM     16  C   UNL     1       6.428   6.012  16.482  0.00  0.00    +0.000 A 
ATOM     17  C   UNL     1       6.715   4.951  17.342  0.00  0.00    +0.000 A 
ATOM     18  C   UNL     1       7.504   5.178  18.473  0.00  0.00    +0.000 A 
ATOM     19  C   UNL     1       8.016   6.456  18.729  0.00  0.00    +0.000 A 
BRANCH  14  21
ATOM     20  N   UNL     1       8.694   9.872  18.341  0.00  0.00    +0.000 NA
ATOM     21  C   UNL     1       8.268   8.815  18.120  0.00  0.00    +0.000 C 
ENDBRANCH  14  21
ENDBRANCH  13  17
ENDBRANCH  12  13
ENDBRANCH  11  12
ENDBRANCH  10  11
ENDBRANCH   1  10
BRANCH   5  22
ATOM     22  C   UNL     1       1.957   6.981  18.135  0.00  0.00    +0.000 C 
BRANCH  22  23
ATOM     23  C   UNL     1       1.999   8.003  19.285  0.00  0.00    +0.000 C 
BRANCH  23  24
ATOM     24  N   UNL     1       1.922   9.385  18.773  0.00  0.00    +0.000 NA
ATOM     25  H   UNL     1       2.092   9.522  17.775  0.00  0.00    +0.000 HD
BRANCH  24  26
ATOM     26  S   UNL     1       0.550  10.259  19.241  0.00  0.00    +0.000 S 
ATOM     27  O   UNL     1      -0.353  10.261  18.114  0.00  0.00    +0.000 OA
ATOM     28  O   UNL     1       0.148   9.773  20.542  0.00  0.00    +0.000 OA
BRANCH  26  29
ATOM     29  C   UNL     1       1.209  11.893  19.412  0.00  0.00    +0.000 A 
ATOM     30  C   UNL     1       1.978  12.447  18.387  0.00  0.00    +0.000 A 
ATOM     31  C   UNL     1       2.439  13.758  18.508  0.00  0.00    +0.000 A 
ATOM     32  C   UNL     1       2.130  14.503  19.649  0.00  0.00    +0.000 A 
ATOM     33  C   UNL     1       1.360  13.939  20.677  0.00  0.00    +0.000 A 
ATOM     34  C   UNL     1       0.897  12.627  20.560  0.00  0.00    +0.000 A 
BRANCH  33  35
ATOM     35  C   UNL     1       1.039  14.714  21.840  0.00  0.00    +0.000 C 
ATOM     36  N   UNL     1       0.779  15.350  22.776  0.00  0.00    +0.000 NA
ENDBRANCH  33  35
ENDBRANCH  26  29
ENDBRANCH  24  26
ENDBRANCH  23  24
ENDBRANCH  22  23
ENDBRANCH   5  22
TORSDOF 12
ENDMDL
