MODEL 1
REMARK VINA RESULT:      -7.6      0.000      0.000
REMARK  Name = 
REMARK  4 active torsions:
REMARK  status: ('A' for Active; 'I' for Inactive)
REMARK    1  A    between atoms: C_1  and  S_2
REMARK    2  A    between atoms: S_2  and  N_5
REMARK    3  A    between atoms: C_8  and  C_9
REMARK    4  A    between atoms: N_11  and  C_12
REMARK                            x       y       z     vdW  Elec       q    Type
REMARK                         _______ _______ _______ _____ _____    ______ ____
ROOT
ATOM      1  C   UNL     1       5.649   6.007  16.282  0.00  0.00    +0.000 C 
ATOM      2  O   UNL     1       5.092   6.831  15.566  0.00  0.00    +0.000 OA
ATOM      3  N   UNL     1       6.404   4.941  15.819  0.00  0.00    +0.000 N 
ATOM      4  H   UNL     1       6.595   4.188  16.470  0.00  0.00    +0.000 HD
ENDROOT
BRANCH   3   5
ATOM      5  C   UNL     1       6.721   4.699  14.461  0.00  0.00    +0.000 A 
ATOM      6  C   UNL     1       7.685   5.435  13.761  0.00  0.00    +0.000 A 
ATOM      7  C   UNL     1       7.913   5.214  12.400  0.00  0.00    +0.000 A 
ATOM      8  C   UNL     1       7.185   4.241  11.725  0.00  0.00    +0.000 A 
ATOM      9  C   UNL     1       6.258   3.473  12.424  0.00  0.00    +0.000 A 
ATOM     10 CL   UNL     1       5.355   2.269  11.586  0.00  0.00    +0.000 Cl
ATOM     11  C   UNL     1       6.034   3.682  13.789  0.00  0.00    +0.000 A 
ENDBRANCH   3   5
BRANCH   1  15
ATOM     12  N   UNL     1       3.199   4.392  18.401  0.00  0.00    +0.000 NA
ATOM     13  C   UNL     1       4.510   3.758  18.098  0.00  0.00    +0.000 C 
ATOM     14  C   UNL     1       5.674   4.686  18.444  0.00  0.00    +0.000 C 
ATOM     15  C   UNL     1       5.524   6.077  17.811  0.00  0.00    +0.000 C 
ATOM     16  C   UNL     1       4.187   6.670  18.256  0.00  0.00    +0.000 C 
ATOM     17  C   UNL     1       3.022   5.766  17.872  0.00  0.00    +0.000 C 
BRANCH  12  19
ATOM     18  C   UNL     1       1.067   3.389  19.779  0.00  0.00    +0.000 C 
ATOM     19  S   UNL     1       1.846   3.364  18.170  0.00  0.00    +0.000 S 
ATOM     20  O   UNL     1       2.343   2.024  17.942  0.00  0.00    +0.000 OA
ATOM     21  O   UNL     1       0.950   4.000  17.230  0.00  0.00    +0.000 OA
ENDBRANCH  12  19
ENDBRANCH   1  15
TORSDOF 3
ENDMDL
MODEL 2
REMARK VINA RESULT:      -7.6      4.234      7.315
REMARK  Name = 
REMARK  4 active torsions:
REMARK  status: ('A' for Active; 'I' for Inactive)
REMARK    1  A    between atoms: C_1  and  S_2
REMARK    2  A    between atoms: S_2  and  N_5
REMARK    3  A    between atoms: C_8  and  C_9
REMARK    4  A    between atoms: N_11  and  C_12
REMARK                            x       y       z     vdW  Elec       q    Type
REMARK                         _______ _______ _______ _____ _____    ______ ____
ROOT
ATOM      1  C   UNL     1       2.783   5.231  19.089  0.00  0.00    +0.000 C 
ATOM      2  O   UNL     1       1.779   4.979  18.433  0.00  0.00    +0.000 OA
ATOM      3  N   UNL     1       3.031   6.440  19.721  0.00  0.00    +0.000 N 
ATOM      4  H   UNL     1       3.985   6.628  20.008  0.00  0.00    +0.000 HD
ENDROOT
BRANCH   3   5
ATOM      5  C   UNL     1       2.126   7.526  19.781  0.00  0.00    +0.000 A 
ATOM      6  C   UNL     1       1.957   8.435  18.729  0.00  0.00    +0.000 A 
ATOM      7  C   UNL     1       1.109   9.538  18.859  0.00  0.00    +0.000 A 
ATOM      8  C   UNL     1       0.408   9.738  20.043  0.00  0.00    +0.000 A 
ATOM      9  C   UNL     1       0.536   8.815  21.077  0.00  0.00    +0.000 A 
ATOM     10 CL   UNL     1      -0.331   9.064  22.545  0.00  0.00    +0.000 Cl
ATOM     11  C   UNL     1       1.374   7.702  20.948  0.00  0.00    +0.000 A 
ENDBRANCH   3   5
BRANCH   1  15
ATOM     12  N   UNL     1       5.628   4.673  16.923  0.00  0.00    +0.000 NA
ATOM     13  C   UNL     1       5.706   5.581  18.097  0.00  0.00    +0.000 C 
ATOM     14  C   UNL     1       5.274   4.875  19.382  0.00  0.00    +0.000 C 
ATOM     15  C   UNL     1       3.905   4.194  19.245  0.00  0.00    +0.000 C 
ATOM     16  C   UNL     1       3.962   3.222  18.067  0.00  0.00    +0.000 C 
ATOM     17  C   UNL     1       4.349   3.934  16.777  0.00  0.00    +0.000 C 
BRANCH  12  19
ATOM     18  C   UNL     1       6.089   3.978  14.323  0.00  0.00    +0.000 C 
ATOM     19  S   UNL     1       6.227   5.348  15.464  0.00  0.00    +0.000 S 
ATOM     20  O   UNL     1       7.635   5.625  15.652  0.00  0.00    +0.000 OA
ATOM     21  O   UNL     1       5.311   6.381  15.035  0.00  0.00    +0.000 OA
ENDBRANCH  12  19
ENDBRANCH   1  15
TORSDOF 3
ENDMDL
MODEL 3
REMARK VINA RESULT:      -7.5      1.114      1.114
REMARK  Name = 
REMARK  4 active torsions:
REMARK  status: ('A' for Active; 'I' for Inactive)
REMARK    1  A    between atoms: C_1  and  S_2
REMARK    2  A    between atoms: S_2  and  N_5
REMARK    3  A    between atoms: C_8  and  C_9
REMARK    4  A    between atoms: N_11  and  C_12
REMARK                            x       y       z     vdW  Elec       q    Type
REMARK                         _______ _______ _______ _____ _____    ______ ____
ROOT
ATOM      1  C   UNL     1       6.642   5.230  16.877  0.00  0.00    +0.000 C 
ATOM      2  O   UNL     1       7.612   4.498  17.035  0.00  0.00    +0.000 OA
ATOM      3  N   UNL     1       6.103   5.573  15.646  0.00  0.00    +0.000 N 
ATOM      4  H   UNL     1       5.483   6.374  15.617  0.00  0.00    +0.000 HD
ENDROOT
BRANCH   3   5
ATOM      5  C   UNL     1       6.531   5.057  14.399  0.00  0.00    +0.000 A 
ATOM      6  C   UNL     1       7.675   5.520  13.736  0.00  0.00    +0.000 A 
ATOM      7  C   UNL     1       8.019   5.037  12.471  0.00  0.00    +0.000 A 
ATOM      8  C   UNL     1       7.227   4.073  11.858  0.00  0.00    +0.000 A 
ATOM      9  C   UNL     1       6.114   3.575  12.530  0.00  0.00    +0.000 A 
ATOM     10 CL   UNL     1       5.131   2.382  11.768  0.00  0.00    +0.000 Cl
ATOM     11  C   UNL     1       5.772   4.046  13.802  0.00  0.00    +0.000 A 
ENDBRANCH   3   5
BRANCH   1  15
ATOM     12  N   UNL     1       3.621   4.141  18.546  0.00  0.00    +0.000 NA
ATOM     13  C   UNL     1       4.967   3.712  19.009  0.00  0.00    +0.000 C 
ATOM     14  C   UNL     1       5.878   4.912  19.271  0.00  0.00    +0.000 C 
ATOM     15  C   UNL     1       5.937   5.876  18.078  0.00  0.00    +0.000 C 
ATOM     16  C   UNL     1       4.512   6.320  17.743  0.00  0.00    +0.000 C 
ATOM     17  C   UNL     1       3.616   5.127  17.437  0.00  0.00    +0.000 C 
BRANCH  12  19
ATOM     18  C   UNL     1       2.005   2.534  20.048  0.00  0.00    +0.000 C 
ATOM     19  S   UNL     1       2.495   2.860  18.360  0.00  0.00    +0.000 S 
ATOM     20  O   UNL     1       3.219   1.703  17.880  0.00  0.00    +0.000 OA
ATOM     21  O   UNL     1       1.343   3.371  17.651  0.00  0.00    +0.000 OA
ENDBRANCH  12  19
ENDBRANCH   1  15
TORSDOF 3
ENDMDL
MODEL 4
REMARK VINA RESULT:      -7.4      0.851      1.032
REMARK  Name = 
REMARK  4 active torsions:
REMARK  status: ('A' for Active; 'I' for Inactive)
REMARK    1  A    between atoms: C_1  and  S_2
REMARK    2  A    between atoms: S_2  and  N_5
REMARK    3  A    between atoms: C_8  and  C_9
REMARK    4  A    between atoms: N_11  and  C_12
REMARK                            x       y       z     vdW  Elec       q    Type
REMARK                         _______ _______ _______ _____ _____    ______ ____
ROOT
ATOM      1  C   UNL     1       5.610   6.145  16.199  0.00  0.00    +0.000 C 
ATOM      2  O   UNL     1       4.991   6.888  15.445  0.00  0.00    +0.000 OA
ATOM      3  N   UNL     1       6.420   5.098  15.785  0.00  0.00    +0.000 N 
ATOM      4  H   UNL     1       6.668   4.400  16.478  0.00  0.00    +0.000 HD
ENDROOT
BRANCH   3   5
ATOM      5  C   UNL     1       6.726   4.789  14.438  0.00  0.00    +0.000 A 
ATOM      6  C   UNL     1       7.705   5.472  13.705  0.00  0.00    +0.000 A 
ATOM      7  C   UNL     1       7.923   5.187  12.354  0.00  0.00    +0.000 A 
ATOM      8  C   UNL     1       7.170   4.203  11.724  0.00  0.00    +0.000 A 
ATOM      9  C   UNL     1       6.227   3.488  12.458  0.00  0.00    +0.000 A 
ATOM     10 CL   UNL     1       5.293   2.270  11.675  0.00  0.00    +0.000 Cl
ATOM     11  C   UNL     1       6.013   3.762  13.813  0.00  0.00    +0.000 A 
ENDBRANCH   3   5
BRANCH   1  15
ATOM     12  N   UNL     1       3.220   4.624  18.451  0.00  0.00    +0.000 NA
ATOM     13  C   UNL     1       4.534   3.992  18.164  0.00  0.00    +0.000 C 
ATOM     14  C   UNL     1       5.690   4.954  18.433  0.00  0.00    +0.000 C 
ATOM     15  C   UNL     1       5.509   6.303  17.722  0.00  0.00    +0.000 C 
ATOM     16  C   UNL     1       4.171   6.903  18.155  0.00  0.00    +0.000 C 
ATOM     17  C   UNL     1       3.014   5.963  17.844  0.00  0.00    +0.000 C 
BRANCH  12  19
ATOM     18  C   UNL     1       2.649   2.035  17.797  0.00  0.00    +0.000 C 
ATOM     19  S   UNL     1       1.877   3.566  18.305  0.00  0.00    +0.000 S 
ATOM     20  O   UNL     1       1.063   4.036  17.204  0.00  0.00    +0.000 OA
ATOM     21  O   UNL     1       1.313   3.367  19.621  0.00  0.00    +0.000 OA
ENDBRANCH  12  19
ENDBRANCH   1  15
TORSDOF 3
ENDMDL
MODEL 5
REMARK VINA RESULT:      -7.1      1.404      1.472
REMARK  Name = 
REMARK  4 active torsions:
REMARK  status: ('A' for Active; 'I' for Inactive)
REMARK    1  A    between atoms: C_1  and  S_2
REMARK    2  A    between atoms: S_2  and  N_5
REMARK    3  A    between atoms: C_8  and  C_9
REMARK    4  A    between atoms: N_11  and  C_12
REMARK                            x       y       z     vdW  Elec       q    Type
REMARK                         _______ _______ _______ _____ _____    ______ ____
ROOT
ATOM      1  C   UNL     1       6.887   5.328  16.743  0.00  0.00    +0.000 C 
ATOM      2  O   UNL     1       7.802   4.525  16.889  0.00  0.00    +0.000 OA
ATOM      3  N   UNL     1       6.341   5.689  15.521  0.00  0.00    +0.000 N 
ATOM      4  H   UNL     1       5.783   6.536  15.493  0.00  0.00    +0.000 HD
ENDROOT
BRANCH   3   5
ATOM      5  C   UNL     1       6.690   5.119  14.274  0.00  0.00    +0.000 A 
ATOM      6  C   UNL     1       7.782   5.560  13.514  0.00  0.00    +0.000 A 
ATOM      7  C   UNL     1       8.046   5.021  12.253  0.00  0.00    +0.000 A 
ATOM      8  C   UNL     1       7.226   4.023  11.740  0.00  0.00    +0.000 A 
ATOM      9  C   UNL     1       6.167   3.547  12.507  0.00  0.00    +0.000 A 
ATOM     10 CL   UNL     1       5.150   2.311  11.871  0.00  0.00    +0.000 Cl
ATOM     11  C   UNL     1       5.905   4.075  13.776  0.00  0.00    +0.000 A 
ENDBRANCH   3   5
BRANCH   1  15
ATOM     12  N   UNL     1       3.971   4.377  18.663  0.00  0.00    +0.000 NA
ATOM     13  C   UNL     1       5.339   3.954  19.060  0.00  0.00    +0.000 C 
ATOM     14  C   UNL     1       6.279   5.152  19.196  0.00  0.00    +0.000 C 
ATOM     15  C   UNL     1       6.270   6.049  17.950  0.00  0.00    +0.000 C 
ATOM     16  C   UNL     1       4.832   6.495  17.684  0.00  0.00    +0.000 C 
ATOM     17  C   UNL     1       3.903   5.301  17.504  0.00  0.00    +0.000 C 
BRANCH  12  19
ATOM     18  C   UNL     1       1.400   3.895  17.878  0.00  0.00    +0.000 C 
ATOM     19  S   UNL     1       2.820   3.105  18.623  0.00  0.00    +0.000 S 
ATOM     20  O   UNL     1       2.476   2.778  19.990  0.00  0.00    +0.000 OA
ATOM     21  O   UNL     1       3.299   2.092  17.709  0.00  0.00    +0.000 OA
ENDBRANCH  12  19
ENDBRANCH   1  15
TORSDOF 3
ENDMDL
MODEL 6
REMARK VINA RESULT:      -7.1      4.197      7.087
REMARK  Name = 
REMARK  4 active torsions:
REMARK  status: ('A' for Active; 'I' for Inactive)
REMARK    1  A    between atoms: C_1  and  S_2
REMARK    2  A    between atoms: S_2  and  N_5
REMARK    3  A    between atoms: C_8  and  C_9
REMARK    4  A    between atoms: N_11  and  C_12
REMARK                            x       y       z     vdW  Elec       q    Type
REMARK                         _______ _______ _______ _____ _____    ______ ____
ROOT
ATOM      1  C   UNL     1       2.729   5.072  19.034  0.00  0.00    +0.000 C 
ATOM      2  O   UNL     1       1.768   4.859  18.305  0.00  0.00    +0.000 OA
ATOM      3  N   UNL     1       3.037   6.302  19.595  0.00  0.00    +0.000 N 
ATOM      4  H   UNL     1       3.975   6.427  19.958  0.00  0.00    +0.000 HD
ENDROOT
BRANCH   3   5
ATOM      5  C   UNL     1       2.240   7.467  19.487  0.00  0.00    +0.000 A 
ATOM      6  C   UNL     1       2.133   8.209  18.303  0.00  0.00    +0.000 A 
ATOM      7  C   UNL     1       1.396   9.395  18.261  0.00  0.00    +0.000 A 
ATOM      8  C   UNL     1       0.747   9.849  19.403  0.00  0.00    +0.000 A 
ATOM      9  C   UNL     1       0.811   9.094  20.571  0.00  0.00    +0.000 A 
ATOM     10 CL   UNL     1       0.007   9.658  21.987  0.00  0.00    +0.000 Cl
ATOM     11  C   UNL     1       1.537   7.899  20.616  0.00  0.00    +0.000 A 
ENDBRANCH   3   5
BRANCH   1  15
ATOM     12  N   UNL     1       5.633   4.018  17.148  0.00  0.00    +0.000 NA
ATOM     13  C   UNL     1       5.730   5.034  18.230  0.00  0.00    +0.000 C 
ATOM     14  C   UNL     1       5.147   4.512  19.543  0.00  0.00    +0.000 C 
ATOM     15  C   UNL     1       3.726   3.955  19.374  0.00  0.00    +0.000 C 
ATOM     16  C   UNL     1       3.758   2.862  18.305  0.00  0.00    +0.000 C 
ATOM     17  C   UNL     1       4.297   3.393  16.983  0.00  0.00    +0.000 C 
BRANCH  12  19
ATOM     18  C   UNL     1       5.529   5.983  15.255  0.00  0.00    +0.000 C 
ATOM     19  S   UNL     1       6.390   4.474  15.678  0.00  0.00    +0.000 S 
ATOM     20  O   UNL     1       6.052   3.479  14.682  0.00  0.00    +0.000 OA
ATOM     21  O   UNL     1       7.767   4.809  15.964  0.00  0.00    +0.000 OA
ENDBRANCH  12  19
ENDBRANCH   1  15
TORSDOF 3
ENDMDL
MODEL 7
REMARK VINA RESULT:      -7.1      4.242      6.967
REMARK  Name = 
REMARK  4 active torsions:
REMARK  status: ('A' for Active; 'I' for Inactive)
REMARK    1  A    between atoms: C_1  and  S_2
REMARK    2  A    between atoms: S_2  and  N_5
REMARK    3  A    between atoms: C_8  and  C_9
REMARK    4  A    between atoms: N_11  and  C_12
REMARK                            x       y       z     vdW  Elec       q    Type
REMARK                         _______ _______ _______ _____ _____    ______ ____
ROOT
ATOM      1  C   UNL     1       2.556   4.621  18.916  0.00  0.00    +0.000 C 
ATOM      2  O   UNL     1       1.352   4.408  18.831  0.00  0.00    +0.000 OA
ATOM      3  N   UNL     1       3.132   5.880  18.989  0.00  0.00    +0.000 N 
ATOM      4  H   UNL     1       4.124   5.950  18.795  0.00  0.00    +0.000 HD
ENDROOT
BRANCH   3   5
ATOM      5  C   UNL     1       2.415   7.098  19.071  0.00  0.00    +0.000 A 
ATOM      6  C   UNL     1       2.206   7.934  17.967  0.00  0.00    +0.000 A 
ATOM      7  C   UNL     1       1.559   9.165  18.107  0.00  0.00    +0.000 A 
ATOM      8  C   UNL     1       1.101   9.568  19.356  0.00  0.00    +0.000 A 
ATOM      9  C   UNL     1       1.265   8.723  20.450  0.00  0.00    +0.000 A 
ATOM     10 CL   UNL     1       0.698   9.225  21.998  0.00  0.00    +0.000 Cl
ATOM     11  C   UNL     1       1.901   7.485  20.313  0.00  0.00    +0.000 A 
ENDBRANCH   3   5
BRANCH   1  15
ATOM     12  N   UNL     1       5.748   4.435  17.219  0.00  0.00    +0.000 NA
ATOM     13  C   UNL     1       5.635   4.918  18.621  0.00  0.00    +0.000 C 
ATOM     14  C   UNL     1       4.913   3.903  19.507  0.00  0.00    +0.000 C 
ATOM     15  C   UNL     1       3.565   3.464  18.917  0.00  0.00    +0.000 C 
ATOM     16  C   UNL     1       3.808   2.906  17.515  0.00  0.00    +0.000 C 
ATOM     17  C   UNL     1       4.488   3.933  16.618  0.00  0.00    +0.000 C 
BRANCH  12  19
ATOM     18  C   UNL     1       7.286   6.689  17.327  0.00  0.00    +0.000 C 
ATOM     19  S   UNL     1       6.667   5.455  16.191  0.00  0.00    +0.000 S 
ATOM     20  O   UNL     1       5.748   6.111  15.285  0.00  0.00    +0.000 OA
ATOM     21  O   UNL     1       7.795   4.698  15.695  0.00  0.00    +0.000 OA
ENDBRANCH  12  19
ENDBRANCH   1  15
TORSDOF 3
ENDMDL
MODEL 8
REMARK VINA RESULT:      -7.0      4.374      6.966
REMARK  Name = 
REMARK  4 active torsions:
REMARK  status: ('A' for Active; 'I' for Inactive)
REMARK    1  A    between atoms: C_1  and  S_2
REMARK    2  A    between atoms: S_2  and  N_5
REMARK    3  A    between atoms: C_8  and  C_9
REMARK    4  A    between atoms: N_11  and  C_12
REMARK                            x       y       z     vdW  Elec       q    Type
REMARK                         _______ _______ _______ _____ _____    ______ ____
ROOT
ATOM      1  C   UNL     1       2.317   4.785  18.326  0.00  0.00    +0.000 C 
ATOM      2  O   UNL     1       1.377   4.857  17.543  0.00  0.00    +0.000 OA
ATOM      3  N   UNL     1       2.820   5.852  19.055  0.00  0.00    +0.000 N 
ATOM      4  H   UNL     1       3.742   5.743  19.462  0.00  0.00    +0.000 HD
ENDROOT
BRANCH   3   5
ATOM      5  C   UNL     1       2.269   7.155  19.076  0.00  0.00    +0.000 A 
ATOM      6  C   UNL     1       2.299   8.012  17.968  0.00  0.00    +0.000 A 
ATOM      7  C   UNL     1       1.811   9.318  18.055  0.00  0.00    +0.000 A 
ATOM      8  C   UNL     1       1.274   9.780  19.251  0.00  0.00    +0.000 A 
ATOM      9  C   UNL     1       1.199   8.920  20.343  0.00  0.00    +0.000 A 
ATOM     10 CL   UNL     1       0.534   9.493  21.826  0.00  0.00    +0.000 Cl
ATOM     11  C   UNL     1       1.674   7.607  20.258  0.00  0.00    +0.000 A 
ENDBRANCH   3   5
BRANCH   1  15
ATOM     12  N   UNL     1       5.872   4.150  18.087  0.00  0.00    +0.000 NA
ATOM     13  C   UNL     1       5.228   4.510  19.377  0.00  0.00    +0.000 C 
ATOM     14  C   UNL     1       4.065   3.574  19.704  0.00  0.00    +0.000 C 
ATOM     15  C   UNL     1       3.061   3.460  18.548  0.00  0.00    +0.000 C 
ATOM     16  C   UNL     1       3.812   3.001  17.297  0.00  0.00    +0.000 C 
ATOM     17  C   UNL     1       4.943   3.959  16.946  0.00  0.00    +0.000 C 
BRANCH  12  19
ATOM     18  C   UNL     1       6.586   6.655  17.267  0.00  0.00    +0.000 C 
ATOM     19  S   UNL     1       7.274   5.066  17.714  0.00  0.00    +0.000 S 
ATOM     20  O   UNL     1       7.871   4.494  16.526  0.00  0.00    +0.000 OA
ATOM     21  O   UNL     1       8.039   5.236  18.929  0.00  0.00    +0.000 OA
ENDBRANCH  12  19
ENDBRANCH   1  15
TORSDOF 3
ENDMDL
MODEL 9
REMARK VINA RESULT:      -6.9      1.020      1.098
REMARK  Name = 
REMARK  4 active torsions:
REMARK  status: ('A' for Active; 'I' for Inactive)
REMARK    1  A    between atoms: C_1  and  S_2
REMARK    2  A    between atoms: S_2  and  N_5
REMARK    3  A    between atoms: C_8  and  C_9
REMARK    4  A    between atoms: N_11  and  C_12
REMARK                            x       y       z     vdW  Elec       q    Type
REMARK                         _______ _______ _______ _____ _____    ______ ____
ROOT
ATOM      1  C   UNL     1       5.595   6.219  16.266  0.00  0.00    +0.000 C 
ATOM      2  O   UNL     1       4.924   6.901  15.499  0.00  0.00    +0.000 OA
ATOM      3  N   UNL     1       6.450   5.201  15.876  0.00  0.00    +0.000 N 
ATOM      4  H   UNL     1       6.747   4.544  16.588  0.00  0.00    +0.000 HD
ENDROOT
BRANCH   3   5
ATOM      5  C   UNL     1       6.748   4.858  14.535  0.00  0.00    +0.000 A 
ATOM      6  C   UNL     1       7.773   5.469  13.802  0.00  0.00    +0.000 A 
ATOM      7  C   UNL     1       7.983   5.154  12.457  0.00  0.00    +0.000 A 
ATOM      8  C   UNL     1       7.175   4.213  11.831  0.00  0.00    +0.000 A 
ATOM      9  C   UNL     1       6.183   3.568  12.565  0.00  0.00    +0.000 A 
ATOM     10 CL   UNL     1       5.181   2.402  11.788  0.00  0.00    +0.000 Cl
ATOM     11  C   UNL     1       5.976   3.870  13.915  0.00  0.00    +0.000 A 
ENDBRANCH   3   5
BRANCH   1  15
ATOM     12  N   UNL     1       3.868   4.190  18.715  0.00  0.00    +0.000 NA
ATOM     13  C   UNL     1       5.299   3.963  18.382  0.00  0.00    +0.000 C 
ATOM     14  C   UNL     1       6.122   5.241  18.543  0.00  0.00    +0.000 C 
ATOM     15  C   UNL     1       5.514   6.430  17.785  0.00  0.00    +0.000 C 
ATOM     16  C   UNL     1       4.076   6.628  18.266  0.00  0.00    +0.000 C 
ATOM     17  C   UNL     1       3.244   5.368  18.064  0.00  0.00    +0.000 C 
BRANCH  12  19
ATOM     18  C   UNL     1       1.382   3.356  17.954  0.00  0.00    +0.000 C 
ATOM     19  S   UNL     1       2.902   2.772  18.693  0.00  0.00    +0.000 S 
ATOM     20  O   UNL     1       2.616   2.412  20.065  0.00  0.00    +0.000 OA
ATOM     21  O   UNL     1       3.508   1.827  17.781  0.00  0.00    +0.000 OA
ENDBRANCH  12  19
ENDBRANCH   1  15
TORSDOF 3
ENDMDL
