MODEL 1
REMARK VINA RESULT:      -6.5      0.000      0.000
REMARK  Name = 
REMARK  15 active torsions:
REMARK  status: ('A' for Active; 'I' for Inactive)
REMARK    1  A    between atoms: C_2  and  C_3
REMARK    2  A    between atoms: C_2  and  C_23
REMARK    3  A    between atoms: C_3  and  O_4
REMARK    4  A    between atoms: O_4  and  C_5
REMARK    5  A    between atoms: C_5  and  C_7
REMARK    6  A    between atoms: C_7  and  C_8
REMARK    7  A    between atoms: C_8  and  C_9
REMARK    8  A    between atoms: C_9  and  C_10
REMARK    9  A    between atoms: C_13  and  N_14
REMARK   10  A    between atoms: N_14  and  C_15
REMARK   11  A    between atoms: N_14  and  C_18
REMARK   12  A    between atoms: C_15  and  C_16
REMARK   13  A    between atoms: C_18  and  C_19
REMARK   14  A    between atoms: C_23  and  O_25
REMARK   15  A    between atoms: O_25  and  C_26
REMARK                            x       y       z     vdW  Elec       q    Type
REMARK                         _______ _______ _______ _____ _____    ______ ____
ROOT
ATOM      1  C   UNL     1       3.073   7.045  17.948  0.00  0.00    +0.000 C 
ENDROOT
BRANCH   1   2
ATOM      2  C   UNL     1       2.279   8.185  18.537  0.00  0.00    +0.000 A 
ATOM      3  C   UNL     1       1.730   8.101  19.819  0.00  0.00    +0.000 A 
ATOM      4  C   UNL     1       0.947   9.146  20.340  0.00  0.00    +0.000 A 
ATOM      5  C   UNL     1       0.679  10.315  19.611  0.00  0.00    +0.000 A 
ATOM      6  C   UNL     1       1.265  10.380  18.334  0.00  0.00    +0.000 A 
ATOM      7  C   UNL     1       2.031   9.336  17.795  0.00  0.00    +0.000 A 
BRANCH   5   8
ATOM      8  N   UNL     1      -0.149  11.326  20.098  0.00  0.00    +0.000 N 
BRANCH   8   9
ATOM      9  C   UNL     1      -0.045  11.814  21.490  0.00  0.00    +0.000 C 
BRANCH   9  10
ATOM     10  C   UNL     1      -1.101  11.252  22.449  0.00  0.00    +0.000 C 
ATOM     11 CL   UNL     1      -0.488   9.904  23.444  0.00  0.00    +0.000 Cl
ENDBRANCH   9  10
ENDBRANCH   8   9
BRANCH   8  12
ATOM     12  C   UNL     1      -0.968  12.147  19.177  0.00  0.00    +0.000 C 
BRANCH  12  13
ATOM     13  C   UNL     1      -2.363  11.552  18.947  0.00  0.00    +0.000 C 
ATOM     14 CL   UNL     1      -2.308  10.309  17.668  0.00  0.00    +0.000 Cl
ENDBRANCH  12  13
ENDBRANCH   8  12
ENDBRANCH   5   8
ENDBRANCH   1   2
BRANCH   1  15
ATOM     15  C   UNL     1       2.570   5.697  18.466  0.00  0.00    +0.000 C 
BRANCH  15  16
ATOM     16  C   UNL     1       3.511   5.071  19.498  0.00  0.00    +0.000 C 
BRANCH  16  17
ATOM     17  C   UNL     1       4.466   4.108  18.825  0.00  0.00    +0.000 C 
ATOM     18  O   UNL     1       5.409   3.561  19.379  0.00  0.00    +0.000 OA
BRANCH  17  19
ATOM     19  O   UNL     1       4.115   3.934  17.522  0.00  0.00    +0.000 OA
BRANCH  19  20
ATOM     20  C   UNL     1       5.194   3.631  16.612  0.00  0.00    +0.000 C 
BRANCH  20  22
ATOM     21  C   UNL     1       5.311   5.773  15.265  0.00  0.00    +0.000 C 
ATOM     22  C   UNL     1       5.857   4.890  16.122  0.00  0.00    +0.000 C 
BRANCH  22  23
ATOM     23  C   UNL     1       7.235   5.195  16.608  0.00  0.00    +0.000 C 
ATOM     24  O   UNL     1       7.995   4.363  17.073  0.00  0.00    +0.000 OA
BRANCH  23  25
ATOM     25  O   UNL     1       7.517   6.516  16.458  0.00  0.00    +0.000 OA
ATOM     26  C   UNL     1       7.586   7.226  17.698  0.00  0.00    +0.000 C 
ENDBRANCH  23  25
ENDBRANCH  22  23
ENDBRANCH  20  22
ENDBRANCH  19  20
ENDBRANCH  17  19
ENDBRANCH  16  17
ENDBRANCH  15  16
ENDBRANCH   1  15
TORSDOF 14
ENDMDL
MODEL 2
REMARK VINA RESULT:      -6.1      1.647      2.001
REMARK  Name = 
REMARK  15 active torsions:
REMARK  status: ('A' for Active; 'I' for Inactive)
REMARK    1  A    between atoms: C_2  and  C_3
REMARK    2  A    between atoms: C_2  and  C_23
REMARK    3  A    between atoms: C_3  and  O_4
REMARK    4  A    between atoms: O_4  and  C_5
REMARK    5  A    between atoms: C_5  and  C_7
REMARK    6  A    between atoms: C_7  and  C_8
REMARK    7  A    between atoms: C_8  and  C_9
REMARK    8  A    between atoms: C_9  and  C_10
REMARK    9  A    between atoms: C_13  and  N_14
REMARK   10  A    between atoms: N_14  and  C_15
REMARK   11  A    between atoms: N_14  and  C_18
REMARK   12  A    between atoms: C_15  and  C_16
REMARK   13  A    between atoms: C_18  and  C_19
REMARK   14  A    between atoms: C_23  and  O_25
REMARK   15  A    between atoms: O_25  and  C_26
REMARK                            x       y       z     vdW  Elec       q    Type
REMARK                         _______ _______ _______ _____ _____    ______ ____
ROOT
ATOM      1  C   UNL     1       3.112   6.199  18.740  0.00  0.00    +0.000 C 
ENDROOT
BRANCH   1   2
ATOM      2  C   UNL     1       2.336   7.461  19.027  0.00  0.00    +0.000 A 
ATOM      3  C   UNL     1       1.835   7.731  20.302  0.00  0.00    +0.000 A 
ATOM      4  C   UNL     1       1.068   8.884  20.548  0.00  0.00    +0.000 A 
ATOM      5  C   UNL     1       0.770   9.814  19.539  0.00  0.00    +0.000 A 
ATOM      6  C   UNL     1       1.309   9.526  18.272  0.00  0.00    +0.000 A 
ATOM      7  C   UNL     1       2.058   8.370  18.010  0.00  0.00    +0.000 A 
BRANCH   5   8
ATOM      8  N   UNL     1      -0.042  10.924  19.764  0.00  0.00    +0.000 N 
BRANCH   8   9
ATOM      9  C   UNL     1       0.432  12.092  20.538  0.00  0.00    +0.000 C 
BRANCH   9  10
ATOM     10  C   UNL     1       1.734  12.718  20.024  0.00  0.00    +0.000 C 
ATOM     11 CL   UNL     1       1.633  13.224  18.316  0.00  0.00    +0.000 Cl
ENDBRANCH   9  10
ENDBRANCH   8   9
BRANCH   8  12
ATOM     12  C   UNL     1      -1.302  11.110  19.008  0.00  0.00    +0.000 C 
BRANCH  12  13
ATOM     13  C   UNL     1      -1.845  12.540  19.118  0.00  0.00    +0.000 C 
ATOM     14 CL   UNL     1      -3.279  12.581  20.180  0.00  0.00    +0.000 Cl
ENDBRANCH  12  13
ENDBRANCH   8  12
ENDBRANCH   5   8
ENDBRANCH   1   2
BRANCH   1  15
ATOM     15  C   UNL     1       2.190   4.979  18.713  0.00  0.00    +0.000 C 
BRANCH  15  16
ATOM     16  C   UNL     1       2.490   4.035  17.547  0.00  0.00    +0.000 C 
BRANCH  16  17
ATOM     17  C   UNL     1       3.541   3.022  17.946  0.00  0.00    +0.000 C 
ATOM     18  O   UNL     1       3.307   1.956  18.497  0.00  0.00    +0.000 OA
BRANCH  17  19
ATOM     19  O   UNL     1       4.777   3.464  17.591  0.00  0.00    +0.000 OA
BRANCH  19  20
ATOM     20  C   UNL     1       4.900   3.991  16.253  0.00  0.00    +0.000 C 
BRANCH  20  22
ATOM     21  C   UNL     1       5.158   6.479  15.854  0.00  0.00    +0.000 C 
ATOM     22  C   UNL     1       5.655   5.293  16.251  0.00  0.00    +0.000 C 
BRANCH  22  23
ATOM     23  C   UNL     1       7.074   5.284  16.716  0.00  0.00    +0.000 C 
ATOM     24  O   UNL     1       7.917   4.497  16.321  0.00  0.00    +0.000 OA
BRANCH  23  25
ATOM     25  O   UNL     1       7.287   6.267  17.629  0.00  0.00    +0.000 OA
ATOM     26  C   UNL     1       7.342   5.789  18.976  0.00  0.00    +0.000 C 
ENDBRANCH  23  25
ENDBRANCH  22  23
ENDBRANCH  20  22
ENDBRANCH  19  20
ENDBRANCH  17  19
ENDBRANCH  16  17
ENDBRANCH  15  16
ENDBRANCH   1  15
TORSDOF 14
ENDMDL
MODEL 3
REMARK VINA RESULT:      -6.0      1.180      2.813
REMARK  Name = 
REMARK  15 active torsions:
REMARK  status: ('A' for Active; 'I' for Inactive)
REMARK    1  A    between atoms: C_2  and  C_3
REMARK    2  A    between atoms: C_2  and  C_23
REMARK    3  A    between atoms: C_3  and  O_4
REMARK    4  A    between atoms: O_4  and  C_5
REMARK    5  A    between atoms: C_5  and  C_7
REMARK    6  A    between atoms: C_7  and  C_8
REMARK    7  A    between atoms: C_8  and  C_9
REMARK    8  A    between atoms: C_9  and  C_10
REMARK    9  A    between atoms: C_13  and  N_14
REMARK   10  A    between atoms: N_14  and  C_15
REMARK   11  A    between atoms: N_14  and  C_18
REMARK   12  A    between atoms: C_15  and  C_16
REMARK   13  A    between atoms: C_18  and  C_19
REMARK   14  A    between atoms: C_23  and  O_25
REMARK   15  A    between atoms: O_25  and  C_26
REMARK                            x       y       z     vdW  Elec       q    Type
REMARK                         _______ _______ _______ _____ _____    ______ ____
ROOT
ATOM      1  C   UNL     1       3.019   6.359  18.264  0.00  0.00    +0.000 C 
ENDROOT
BRANCH   1   2
ATOM      2  C   UNL     1       2.307   7.637  18.633  0.00  0.00    +0.000 A 
ATOM      3  C   UNL     1       2.192   8.693  17.726  0.00  0.00    +0.000 A 
ATOM      4  C   UNL     1       1.573   9.900  18.097  0.00  0.00    +0.000 A 
ATOM      5  C   UNL     1       1.042  10.106  19.380  0.00  0.00    +0.000 A 
ATOM      6  C   UNL     1       1.151   9.016  20.262  0.00  0.00    +0.000 A 
ATOM      7  C   UNL     1       1.784   7.814  19.911  0.00  0.00    +0.000 A 
BRANCH   5   8
ATOM      8  N   UNL     1       0.485  11.323  19.771  0.00  0.00    +0.000 N 
BRANCH   8   9
ATOM      9  C   UNL     1      -0.540  12.008  18.953  0.00  0.00    +0.000 C 
BRANCH   9  10
ATOM     10  C   UNL     1      -1.795  11.176  18.667  0.00  0.00    +0.000 C 
ATOM     11 CL   UNL     1      -3.298  11.989  19.178  0.00  0.00    +0.000 Cl
ENDBRANCH   9  10
ENDBRANCH   8   9
BRANCH   8  12
ATOM     12  C   UNL     1       0.678  11.841  21.145  0.00  0.00    +0.000 C 
BRANCH  12  13
ATOM     13  C   UNL     1      -0.643  11.974  21.912  0.00  0.00    +0.000 C 
ATOM     14 CL   UNL     1      -0.878  10.577  22.997  0.00  0.00    +0.000 Cl
ENDBRANCH  12  13
ENDBRANCH   8  12
ENDBRANCH   5   8
ENDBRANCH   1   2
BRANCH   1  15
ATOM     15  C   UNL     1       3.375   5.547  19.509  0.00  0.00    +0.000 C 
BRANCH  15  16
ATOM     16  C   UNL     1       4.878   5.289  19.637  0.00  0.00    +0.000 C 
BRANCH  16  17
ATOM     17  C   UNL     1       5.293   4.139  18.743  0.00  0.00    +0.000 C 
ATOM     18  O   UNL     1       4.597   3.166  18.491  0.00  0.00    +0.000 OA
BRANCH  17  19
ATOM     19  O   UNL     1       6.545   4.353  18.256  0.00  0.00    +0.000 OA
BRANCH  19  20
ATOM     20  C   UNL     1       7.184   5.579  18.671  0.00  0.00    +0.000 C 
BRANCH  20  22
ATOM     21  C   UNL     1       7.768   7.806  17.614  0.00  0.00    +0.000 C 
ATOM     22  C   UNL     1       7.242   6.569  17.539  0.00  0.00    +0.000 C 
BRANCH  22  23
ATOM     23  C   UNL     1       6.666   6.166  16.222  0.00  0.00    +0.000 C 
ATOM     24  O   UNL     1       5.539   6.448  15.855  0.00  0.00    +0.000 OA
BRANCH  23  25
ATOM     25  O   UNL     1       7.569   5.451  15.501  0.00  0.00    +0.000 OA
ATOM     26  C   UNL     1       7.009   4.839  14.336  0.00  0.00    +0.000 C 
ENDBRANCH  23  25
ENDBRANCH  22  23
ENDBRANCH  20  22
ENDBRANCH  19  20
ENDBRANCH  17  19
ENDBRANCH  16  17
ENDBRANCH  15  16
ENDBRANCH   1  15
TORSDOF 14
ENDMDL
MODEL 4
REMARK VINA RESULT:      -6.0      1.582      2.047
REMARK  Name = 
REMARK  15 active torsions:
REMARK  status: ('A' for Active; 'I' for Inactive)
REMARK    1  A    between atoms: C_2  and  C_3
REMARK    2  A    between atoms: C_2  and  C_23
REMARK    3  A    between atoms: C_3  and  O_4
REMARK    4  A    between atoms: O_4  and  C_5
REMARK    5  A    between atoms: C_5  and  C_7
REMARK    6  A    between atoms: C_7  and  C_8
REMARK    7  A    between atoms: C_8  and  C_9
REMARK    8  A    between atoms: C_9  and  C_10
REMARK    9  A    between atoms: C_13  and  N_14
REMARK   10  A    between atoms: N_14  and  C_15
REMARK   11  A    between atoms: N_14  and  C_18
REMARK   12  A    between atoms: C_15  and  C_16
REMARK   13  A    between atoms: C_18  and  C_19
REMARK   14  A    between atoms: C_23  and  O_25
REMARK   15  A    between atoms: O_25  and  C_26
REMARK                            x       y       z     vdW  Elec       q    Type
REMARK                         _______ _______ _______ _____ _____    ______ ____
ROOT
ATOM      1  C   UNL     1       3.122   6.081  19.516  0.00  0.00    +0.000 C 
ENDROOT
BRANCH   1   2
ATOM      2  C   UNL     1       2.286   7.337  19.505  0.00  0.00    +0.000 A 
ATOM      3  C   UNL     1       2.175   8.126  18.358  0.00  0.00    +0.000 A 
ATOM      4  C   UNL     1       1.437   9.323  18.372  0.00  0.00    +0.000 A 
ATOM      5  C   UNL     1       0.777   9.782  19.523  0.00  0.00    +0.000 A 
ATOM      6  C   UNL     1       0.887   8.953  20.654  0.00  0.00    +0.000 A 
ATOM      7  C   UNL     1       1.637   7.768  20.659  0.00  0.00    +0.000 A 
BRANCH   5   8
ATOM      8  N   UNL     1       0.097  10.999  19.559  0.00  0.00    +0.000 N 
BRANCH   8   9
ATOM      9  C   UNL     1      -1.006  11.246  20.513  0.00  0.00    +0.000 C 
BRANCH   9  10
ATOM     10  C   UNL     1      -0.569  11.821  21.865  0.00  0.00    +0.000 C 
ATOM     11 CL   UNL     1      -1.073  10.809  23.245  0.00  0.00    +0.000 Cl
ENDBRANCH   9  10
ENDBRANCH   8   9
BRANCH   8  12
ATOM     12  C   UNL     1       0.626  12.186  18.850  0.00  0.00    +0.000 C 
BRANCH  12  13
ATOM     13  C   UNL     1      -0.489  13.109  18.343  0.00  0.00    +0.000 C 
ATOM     14 CL   UNL     1      -0.055  14.818  18.615  0.00  0.00    +0.000 Cl
ENDBRANCH  12  13
ENDBRANCH   8  12
ENDBRANCH   5   8
ENDBRANCH   1   2
BRANCH   1  15
ATOM     15  C   UNL     1       2.254   4.840  19.309  0.00  0.00    +0.000 C 
BRANCH  15  16
ATOM     16  C   UNL     1       3.075   3.551  19.227  0.00  0.00    +0.000 C 
BRANCH  16  17
ATOM     17  C   UNL     1       3.097   3.030  17.806  0.00  0.00    +0.000 C 
ATOM     18  O   UNL     1       2.705   1.923  17.464  0.00  0.00    +0.000 OA
BRANCH  17  19
ATOM     19  O   UNL     1       3.605   3.974  16.969  0.00  0.00    +0.000 OA
BRANCH  19  20
ATOM     20  C   UNL     1       4.943   3.734  16.483  0.00  0.00    +0.000 C 
BRANCH  20  22
ATOM     21  C   UNL     1       5.029   6.217  15.986  0.00  0.00    +0.000 C 
ATOM     22  C   UNL     1       5.638   5.027  16.152  0.00  0.00    +0.000 C 
BRANCH  22  23
ATOM     23  C   UNL     1       7.121   5.005  15.980  0.00  0.00    +0.000 C 
ATOM     24  O   UNL     1       7.702   5.458  15.009  0.00  0.00    +0.000 OA
BRANCH  23  25
ATOM     25  O   UNL     1       7.720   4.418  17.048  0.00  0.00    +0.000 OA
ATOM     26  C   UNL     1       7.599   5.175  18.255  0.00  0.00    +0.000 C 
ENDBRANCH  23  25
ENDBRANCH  22  23
ENDBRANCH  20  22
ENDBRANCH  19  20
ENDBRANCH  17  19
ENDBRANCH  16  17
ENDBRANCH  15  16
ENDBRANCH   1  15
TORSDOF 14
ENDMDL
MODEL 5
REMARK VINA RESULT:      -6.0      1.690      2.696
REMARK  Name = 
REMARK  15 active torsions:
REMARK  status: ('A' for Active; 'I' for Inactive)
REMARK    1  A    between atoms: C_2  and  C_3
REMARK    2  A    between atoms: C_2  and  C_23
REMARK    3  A    between atoms: C_3  and  O_4
REMARK    4  A    between atoms: O_4  and  C_5
REMARK    5  A    between atoms: C_5  and  C_7
REMARK    6  A    between atoms: C_7  and  C_8
REMARK    7  A    between atoms: C_8  and  C_9
REMARK    8  A    between atoms: C_9  and  C_10
REMARK    9  A    between atoms: C_13  and  N_14
REMARK   10  A    between atoms: N_14  and  C_15
REMARK   11  A    between atoms: N_14  and  C_18
REMARK   12  A    between atoms: C_15  and  C_16
REMARK   13  A    between atoms: C_18  and  C_19
REMARK   14  A    between atoms: C_23  and  O_25
REMARK   15  A    between atoms: O_25  and  C_26
REMARK                            x       y       z     vdW  Elec       q    Type
REMARK                         _______ _______ _______ _____ _____    ______ ____
ROOT
ATOM      1  C   UNL     1       2.401   6.494  19.937  0.00  0.00    +0.000 C 
ENDROOT
BRANCH   1   2
ATOM      2  C   UNL     1       1.817   7.869  19.720  0.00  0.00    +0.000 A 
ATOM      3  C   UNL     1       1.911   8.511  18.483  0.00  0.00    +0.000 A 
ATOM      4  C   UNL     1       1.411   9.813  18.304  0.00  0.00    +0.000 A 
ATOM      5  C   UNL     1       0.794  10.526  19.344  0.00  0.00    +0.000 A 
ATOM      6  C   UNL     1       0.693   9.844  20.569  0.00  0.00    +0.000 A 
ATOM      7  C   UNL     1       1.206   8.553  20.766  0.00  0.00    +0.000 A 
BRANCH   5   8
ATOM      8  N   UNL     1       0.354  11.840  19.189  0.00  0.00    +0.000 N 
BRANCH   8   9
ATOM      9  C   UNL     1      -0.818  12.174  18.349  0.00  0.00    +0.000 C 
BRANCH   9  10
ATOM     10  C   UNL     1      -2.029  11.255  18.543  0.00  0.00    +0.000 C 
ATOM     11 CL   UNL     1      -2.078   9.914  17.367  0.00  0.00    +0.000 Cl
ENDBRANCH   9  10
ENDBRANCH   8   9
BRANCH   8  12
ATOM     12  C   UNL     1       0.854  12.919  20.071  0.00  0.00    +0.000 C 
BRANCH  12  13
ATOM     13  C   UNL     1       1.619  13.999  19.298  0.00  0.00    +0.000 C 
ATOM     14 CL   UNL     1       2.722  13.253  18.110  0.00  0.00    +0.000 Cl
ENDBRANCH  12  13
ENDBRANCH   8  12
ENDBRANCH   5   8
ENDBRANCH   1   2
BRANCH   1  15
ATOM     15  C   UNL     1       3.401   6.140  18.835  0.00  0.00    +0.000 C 
BRANCH  15  16
ATOM     16  C   UNL     1       3.204   4.724  18.290  0.00  0.00    +0.000 C 
BRANCH  16  17
ATOM     17  C   UNL     1       4.369   3.841  18.683  0.00  0.00    +0.000 C 
ATOM     18  O   UNL     1       4.434   3.195  19.719  0.00  0.00    +0.000 OA
BRANCH  17  19
ATOM     19  O   UNL     1       5.323   3.864  17.713  0.00  0.00    +0.000 OA
BRANCH  19  20
ATOM     20  C   UNL     1       4.850   3.702  16.359  0.00  0.00    +0.000 C 
BRANCH  20  22
ATOM     21  C   UNL     1       6.262   3.966  14.272  0.00  0.00    +0.000 C 
ATOM     22  C   UNL     1       5.710   4.470  15.391  0.00  0.00    +0.000 C 
BRANCH  22  23
ATOM     23  C   UNL     1       5.990   5.907  15.686  0.00  0.00    +0.000 C 
ATOM     24  O   UNL     1       5.175   6.803  15.554  0.00  0.00    +0.000 OA
BRANCH  23  25
ATOM     25  O   UNL     1       7.268   6.068  16.120  0.00  0.00    +0.000 OA
ATOM     26  C   UNL     1       7.357   6.683  17.407  0.00  0.00    +0.000 C 
ENDBRANCH  23  25
ENDBRANCH  22  23
ENDBRANCH  20  22
ENDBRANCH  19  20
ENDBRANCH  17  19
ENDBRANCH  16  17
ENDBRANCH  15  16
ENDBRANCH   1  15
TORSDOF 14
ENDMDL
MODEL 6
REMARK VINA RESULT:      -6.0      1.896      2.873
REMARK  Name = 
REMARK  15 active torsions:
REMARK  status: ('A' for Active; 'I' for Inactive)
REMARK    1  A    between atoms: C_2  and  C_3
REMARK    2  A    between atoms: C_2  and  C_23
REMARK    3  A    between atoms: C_3  and  O_4
REMARK    4  A    between atoms: O_4  and  C_5
REMARK    5  A    between atoms: C_5  and  C_7
REMARK    6  A    between atoms: C_7  and  C_8
REMARK    7  A    between atoms: C_8  and  C_9
REMARK    8  A    between atoms: C_9  and  C_10
REMARK    9  A    between atoms: C_13  and  N_14
REMARK   10  A    between atoms: N_14  and  C_15
REMARK   11  A    between atoms: N_14  and  C_18
REMARK   12  A    between atoms: C_15  and  C_16
REMARK   13  A    between atoms: C_18  and  C_19
REMARK   14  A    between atoms: C_23  and  O_25
REMARK   15  A    between atoms: O_25  and  C_26
REMARK                            x       y       z     vdW  Elec       q    Type
REMARK                         _______ _______ _______ _____ _____    ______ ____
ROOT
ATOM      1  C   UNL     1       2.604   5.209  20.149  0.00  0.00    +0.000 C 
ENDROOT
BRANCH   1   2
ATOM      2  C   UNL     1       2.080   6.615  19.986  0.00  0.00    +0.000 A 
ATOM      3  C   UNL     1       2.311   7.346  18.819  0.00  0.00    +0.000 A 
ATOM      4  C   UNL     1       1.865   8.674  18.697  0.00  0.00    +0.000 A 
ATOM      5  C   UNL     1       1.171   9.328  19.727  0.00  0.00    +0.000 A 
ATOM      6  C   UNL     1       0.933   8.558  20.880  0.00  0.00    +0.000 A 
ATOM      7  C   UNL     1       1.390   7.239  21.021  0.00  0.00    +0.000 A 
BRANCH   5   8
ATOM      8  N   UNL     1       0.783  10.664  19.635  0.00  0.00    +0.000 N 
BRANCH   8   9
ATOM      9  C   UNL     1      -0.112  11.142  18.558  0.00  0.00    +0.000 C 
BRANCH   9  10
ATOM     10  C   UNL     1      -1.568  10.678  18.680  0.00  0.00    +0.000 C 
ATOM     11 CL   UNL     1      -2.680  11.995  19.139  0.00  0.00    +0.000 Cl
ENDBRANCH   9  10
ENDBRANCH   8   9
BRANCH   8  12
ATOM     12  C   UNL     1       1.013  11.601  20.758  0.00  0.00    +0.000 C 
BRANCH  12  13
ATOM     13  C   UNL     1       1.068  13.063  20.298  0.00  0.00    +0.000 C 
ATOM     14 CL   UNL     1       2.609  13.395  19.461  0.00  0.00    +0.000 Cl
ENDBRANCH  12  13
ENDBRANCH   8  12
ENDBRANCH   5   8
ENDBRANCH   1   2
BRANCH   1  15
ATOM     15  C   UNL     1       1.523   4.178  19.822  0.00  0.00    +0.000 C 
BRANCH  15  16
ATOM     16  C   UNL     1       1.422   3.881  18.324  0.00  0.00    +0.000 C 
BRANCH  16  17
ATOM     17  C   UNL     1       2.706   3.258  17.822  0.00  0.00    +0.000 C 
ATOM     18  O   UNL     1       3.030   2.092  17.997  0.00  0.00    +0.000 OA
BRANCH  17  19
ATOM     19  O   UNL     1       3.439   4.180  17.140  0.00  0.00    +0.000 OA
BRANCH  19  20
ATOM     20  C   UNL     1       4.783   3.785  16.790  0.00  0.00    +0.000 C 
BRANCH  20  22
ATOM     21  C   UNL     1       5.572   5.670  18.288  0.00  0.00    +0.000 C 
ATOM     22  C   UNL     1       5.789   4.782  17.299  0.00  0.00    +0.000 C 
BRANCH  22  23
ATOM     23  C   UNL     1       7.138   4.808  16.661  0.00  0.00    +0.000 C 
ATOM     24  O   UNL     1       8.093   4.161  17.057  0.00  0.00    +0.000 OA
BRANCH  23  25
ATOM     25  O   UNL     1       7.147   5.643  15.590  0.00  0.00    +0.000 OA
ATOM     26  C   UNL     1       7.171   4.957  14.335  0.00  0.00    +0.000 C 
ENDBRANCH  23  25
ENDBRANCH  22  23
ENDBRANCH  20  22
ENDBRANCH  19  20
ENDBRANCH  17  19
ENDBRANCH  16  17
ENDBRANCH  15  16
ENDBRANCH   1  15
TORSDOF 14
ENDMDL
MODEL 7
REMARK VINA RESULT:      -6.0      1.731      2.192
REMARK  Name = 
REMARK  15 active torsions:
REMARK  status: ('A' for Active; 'I' for Inactive)
REMARK    1  A    between atoms: C_2  and  C_3
REMARK    2  A    between atoms: C_2  and  C_23
REMARK    3  A    between atoms: C_3  and  O_4
REMARK    4  A    between atoms: O_4  and  C_5
REMARK    5  A    between atoms: C_5  and  C_7
REMARK    6  A    between atoms: C_7  and  C_8
REMARK    7  A    between atoms: C_8  and  C_9
REMARK    8  A    between atoms: C_9  and  C_10
REMARK    9  A    between atoms: C_13  and  N_14
REMARK   10  A    between atoms: N_14  and  C_15
REMARK   11  A    between atoms: N_14  and  C_18
REMARK   12  A    between atoms: C_15  and  C_16
REMARK   13  A    between atoms: C_18  and  C_19
REMARK   14  A    between atoms: C_23  and  O_25
REMARK   15  A    between atoms: O_25  and  C_26
REMARK                            x       y       z     vdW  Elec       q    Type
REMARK                         _______ _______ _______ _____ _____    ______ ____
ROOT
ATOM      1  C   UNL     1       3.157   6.429  19.117  0.00  0.00    +0.000 C 
ENDROOT
BRANCH   1   2
ATOM      2  C   UNL     1       2.282   7.658  19.083  0.00  0.00    +0.000 A 
ATOM      3  C   UNL     1       2.218   8.473  17.950  0.00  0.00    +0.000 A 
ATOM      4  C   UNL     1       1.441   9.645  17.946  0.00  0.00    +0.000 A 
ATOM      5  C   UNL     1       0.696  10.053  19.063  0.00  0.00    +0.000 A 
ATOM      6  C   UNL     1       0.761   9.199  20.179  0.00  0.00    +0.000 A 
ATOM      7  C   UNL     1       1.548   8.038  20.203  0.00  0.00    +0.000 A 
BRANCH   5   8
ATOM      8  N   UNL     1      -0.025  11.246  19.084  0.00  0.00    +0.000 N 
BRANCH   8   9
ATOM      9  C   UNL     1       0.648  12.560  19.180  0.00  0.00    +0.000 C 
BRANCH   9  10
ATOM     10  C   UNL     1       1.143  12.927  20.584  0.00  0.00    +0.000 C 
ATOM     11 CL   UNL     1       2.831  13.504  20.595  0.00  0.00    +0.000 Cl
ENDBRANCH   9  10
ENDBRANCH   8   9
BRANCH   8  12
ATOM     12  C   UNL     1      -1.462  11.273  18.730  0.00  0.00    +0.000 C 
BRANCH  12  13
ATOM     13  C   UNL     1      -1.777  10.419  17.496  0.00  0.00    +0.000 C 
ATOM     14 CL   UNL     1      -3.247   9.445  17.770  0.00  0.00    +0.000 Cl
ENDBRANCH  12  13
ENDBRANCH   8  12
ENDBRANCH   5   8
ENDBRANCH   1   2
BRANCH   1  15
ATOM     15  C   UNL     1       2.429   5.252  19.768  0.00  0.00    +0.000 C 
BRANCH  15  16
ATOM     16  C   UNL     1       2.746   3.915  19.096  0.00  0.00    +0.000 C 
BRANCH  16  17
ATOM     17  C   UNL     1       2.280   3.925  17.655  0.00  0.00    +0.000 C 
ATOM     18  O   UNL     1       1.141   4.183  17.294  0.00  0.00    +0.000 OA
BRANCH  17  19
ATOM     19  O   UNL     1       3.314   3.619  16.826  0.00  0.00    +0.000 OA
BRANCH  19  20
ATOM     20  C   UNL     1       4.626   3.607  17.429  0.00  0.00    +0.000 C 
BRANCH  20  22
ATOM     21  C   UNL     1       5.515   4.370  15.183  0.00  0.00    +0.000 C 
ATOM     22  C   UNL     1       5.646   4.231  16.515  0.00  0.00    +0.000 C 
BRANCH  22  23
ATOM     23  C   UNL     1       6.916   4.732  17.118  0.00  0.00    +0.000 C 
ATOM     24  O   UNL     1       8.008   4.221  16.936  0.00  0.00    +0.000 OA
BRANCH  23  25
ATOM     25  O   UNL     1       6.683   5.827  17.889  0.00  0.00    +0.000 OA
ATOM     26  C   UNL     1       7.369   6.997  17.435  0.00  0.00    +0.000 C 
ENDBRANCH  23  25
ENDBRANCH  22  23
ENDBRANCH  20  22
ENDBRANCH  19  20
ENDBRANCH  17  19
ENDBRANCH  16  17
ENDBRANCH  15  16
ENDBRANCH   1  15
TORSDOF 14
ENDMDL
MODEL 8
REMARK VINA RESULT:      -6.0      1.212      1.412
REMARK  Name = 
REMARK  15 active torsions:
REMARK  status: ('A' for Active; 'I' for Inactive)
REMARK    1  A    between atoms: C_2  and  C_3
REMARK    2  A    between atoms: C_2  and  C_23
REMARK    3  A    between atoms: C_3  and  O_4
REMARK    4  A    between atoms: O_4  and  C_5
REMARK    5  A    between atoms: C_5  and  C_7
REMARK    6  A    between atoms: C_7  and  C_8
REMARK    7  A    between atoms: C_8  and  C_9
REMARK    8  A    between atoms: C_9  and  C_10
REMARK    9  A    between atoms: C_13  and  N_14
REMARK   10  A    between atoms: N_14  and  C_15
REMARK   11  A    between atoms: N_14  and  C_18
REMARK   12  A    between atoms: C_15  and  C_16
REMARK   13  A    between atoms: C_18  and  C_19
REMARK   14  A    between atoms: C_23  and  O_25
REMARK   15  A    between atoms: O_25  and  C_26
REMARK                            x       y       z     vdW  Elec       q    Type
REMARK                         _______ _______ _______ _____ _____    ______ ____
ROOT
ATOM      1  C   UNL     1       2.678   7.167  18.143  0.00  0.00    +0.000 C 
ENDROOT
BRANCH   1   2
ATOM      2  C   UNL     1       1.976   8.379  18.706  0.00  0.00    +0.000 A 
ATOM      3  C   UNL     1       1.407   8.361  19.981  0.00  0.00    +0.000 A 
ATOM      4  C   UNL     1       0.708   9.476  20.477  0.00  0.00    +0.000 A 
ATOM      5  C   UNL     1       0.550  10.653  19.728  0.00  0.00    +0.000 A 
ATOM      6  C   UNL     1       1.155  10.648  18.458  0.00  0.00    +0.000 A 
ATOM      7  C   UNL     1       1.836   9.535  17.945  0.00  0.00    +0.000 A 
BRANCH   5   8
ATOM      8  N   UNL     1      -0.195  11.737  20.190  0.00  0.00    +0.000 N 
BRANCH   8   9
ATOM      9  C   UNL     1       0.073  12.363  21.503  0.00  0.00    +0.000 C 
BRANCH   9  10
ATOM     10  C   UNL     1      -1.104  12.324  22.485  0.00  0.00    +0.000 C 
ATOM     11 CL   UNL     1      -1.241  13.810  23.463  0.00  0.00    +0.000 Cl
ENDBRANCH   9  10
ENDBRANCH   8   9
BRANCH   8  12
ATOM     12  C   UNL     1      -1.090  12.487  19.280  0.00  0.00    +0.000 C 
BRANCH  12  13
ATOM     13  C   UNL     1      -2.451  11.801  19.101  0.00  0.00    +0.000 C 
ATOM     14 CL   UNL     1      -2.371  10.589  17.794  0.00  0.00    +0.000 Cl
ENDBRANCH  12  13
ENDBRANCH   8  12
ENDBRANCH   5   8
ENDBRANCH   1   2
BRANCH   1  15
ATOM     15  C   UNL     1       2.969   6.141  19.239  0.00  0.00    +0.000 C 
BRANCH  15  16
ATOM     16  C   UNL     1       2.181   4.842  19.057  0.00  0.00    +0.000 C 
BRANCH  16  17
ATOM     17  C   UNL     1       2.746   4.039  17.905  0.00  0.00    +0.000 C 
ATOM     18  O   UNL     1       2.078   3.528  17.017  0.00  0.00    +0.000 OA
BRANCH  17  19
ATOM     19  O   UNL     1       4.102   3.980  17.995  0.00  0.00    +0.000 OA
BRANCH  19  20
ATOM     20  C   UNL     1       4.814   3.843  16.747  0.00  0.00    +0.000 C 
BRANCH  20  22
ATOM     21  C   UNL     1       5.267   6.131  15.758  0.00  0.00    +0.000 C 
ATOM     22  C   UNL     1       5.658   5.057  16.470  0.00  0.00    +0.000 C 
BRANCH  22  23
ATOM     23  C   UNL     1       7.049   5.086  17.013  0.00  0.00    +0.000 C 
ATOM     24  O   UNL     1       7.937   4.331  16.657  0.00  0.00    +0.000 OA
BRANCH  23  25
ATOM     25  O   UNL     1       7.179   6.064  17.948  0.00  0.00    +0.000 OA
ATOM     26  C   UNL     1       6.972   5.602  19.286  0.00  0.00    +0.000 C 
ENDBRANCH  23  25
ENDBRANCH  22  23
ENDBRANCH  20  22
ENDBRANCH  19  20
ENDBRANCH  17  19
ENDBRANCH  16  17
ENDBRANCH  15  16
ENDBRANCH   1  15
TORSDOF 14
ENDMDL
MODEL 9
REMARK VINA RESULT:      -6.0      1.729      2.732
REMARK  Name = 
REMARK  15 active torsions:
REMARK  status: ('A' for Active; 'I' for Inactive)
REMARK    1  A    between atoms: C_2  and  C_3
REMARK    2  A    between atoms: C_2  and  C_23
REMARK    3  A    between atoms: C_3  and  O_4
REMARK    4  A    between atoms: O_4  and  C_5
REMARK    5  A    between atoms: C_5  and  C_7
REMARK    6  A    between atoms: C_7  and  C_8
REMARK    7  A    between atoms: C_8  and  C_9
REMARK    8  A    between atoms: C_9  and  C_10
REMARK    9  A    between atoms: C_13  and  N_14
REMARK   10  A    between atoms: N_14  and  C_15
REMARK   11  A    between atoms: N_14  and  C_18
REMARK   12  A    between atoms: C_15  and  C_16
REMARK   13  A    between atoms: C_18  and  C_19
REMARK   14  A    between atoms: C_23  and  O_25
REMARK   15  A    between atoms: O_25  and  C_26
REMARK                            x       y       z     vdW  Elec       q    Type
REMARK                         _______ _______ _______ _____ _____    ______ ____
ROOT
ATOM      1  C   UNL     1       3.147   6.430  18.350  0.00  0.00    +0.000 C 
ENDROOT
BRANCH   1   2
ATOM      2  C   UNL     1       2.351   7.668  18.685  0.00  0.00    +0.000 A 
ATOM      3  C   UNL     1       2.169   8.689  17.750  0.00  0.00    +0.000 A 
ATOM      4  C   UNL     1       1.471   9.863  18.088  0.00  0.00    +0.000 A 
ATOM      5  C   UNL     1       0.924  10.066  19.364  0.00  0.00    +0.000 A 
ATOM      6  C   UNL     1       1.103   9.009  20.275  0.00  0.00    +0.000 A 
ATOM      7  C   UNL     1       1.814   7.844  19.957  0.00  0.00    +0.000 A 
BRANCH   5   8
ATOM      8  N   UNL     1       0.287  11.254  19.723  0.00  0.00    +0.000 N 
BRANCH   8   9
ATOM      9  C   UNL     1      -1.177  11.421  19.592  0.00  0.00    +0.000 C 
BRANCH   9  10
ATOM     10  C   UNL     1      -1.664  11.727  18.170  0.00  0.00    +0.000 C 
ATOM     11 CL   UNL     1      -2.046  10.256  17.236  0.00  0.00    +0.000 Cl
ENDBRANCH   9  10
ENDBRANCH   8   9
BRANCH   8  12
ATOM     12  C   UNL     1       0.995  12.289  20.509  0.00  0.00    +0.000 C 
BRANCH  12  13
ATOM     13  C   UNL     1       2.057  13.026  19.683  0.00  0.00    +0.000 C 
ATOM     14 CL   UNL     1       1.305  14.322  18.714  0.00  0.00    +0.000 Cl
ENDBRANCH  12  13
ENDBRANCH   8  12
ENDBRANCH   5   8
ENDBRANCH   1   2
BRANCH   1  15
ATOM     15  C   UNL     1       2.561   5.196  19.036  0.00  0.00    +0.000 C 
BRANCH  15  16
ATOM     16  C   UNL     1       3.449   3.958  18.887  0.00  0.00    +0.000 C 
BRANCH  16  17
ATOM     17  C   UNL     1       3.287   3.357  17.507  0.00  0.00    +0.000 C 
ATOM     18  O   UNL     1       2.236   2.924  17.055  0.00  0.00    +0.000 OA
BRANCH  17  19
ATOM     19  O   UNL     1       4.474   3.379  16.844  0.00  0.00    +0.000 OA
BRANCH  19  20
ATOM     20  C   UNL     1       4.638   4.437  15.876  0.00  0.00    +0.000 C 
BRANCH  20  22
ATOM     21  C   UNL     1       6.369   3.859  14.120  0.00  0.00    +0.000 C 
ATOM     22  C   UNL     1       6.024   4.425  15.291  0.00  0.00    +0.000 C 
BRANCH  22  23
ATOM     23  C   UNL     1       7.119   5.083  16.064  0.00  0.00    +0.000 C 
ATOM     24  O   UNL     1       7.674   6.113  15.722  0.00  0.00    +0.000 OA
BRANCH  23  25
ATOM     25  O   UNL     1       7.403   4.377  17.190  0.00  0.00    +0.000 OA
ATOM     26  C   UNL     1       7.493   5.190  18.363  0.00  0.00    +0.000 C 
ENDBRANCH  23  25
ENDBRANCH  22  23
ENDBRANCH  20  22
ENDBRANCH  19  20
ENDBRANCH  17  19
ENDBRANCH  16  17
ENDBRANCH  15  16
ENDBRANCH   1  15
TORSDOF 14
ENDMDL
