MODEL 1
REMARK VINA RESULT:      -7.5      0.000      0.000
REMARK  Name = 
REMARK  10 active torsions:
REMARK  status: ('A' for Active; 'I' for Inactive)
REMARK    1  A    between atoms: C_1  and  O_2
REMARK    2  A    between atoms: O_2  and  C_3
REMARK    3  A    between atoms: C_5  and  O_6
REMARK    4  A    between atoms: O_6  and  C_7
REMARK    5  A    between atoms: C_8  and  C_9
REMARK    6  A    between atoms: C_12  and  O_13
REMARK    7  A    between atoms: C_21  and  O_22
REMARK    8  A    between atoms: C_23  and  O_24
REMARK    9  A    between atoms: C_28  and  O_29
REMARK   10  A    between atoms: O_29  and  C_30
REMARK                            x       y       z     vdW  Elec       q    Type
REMARK                         _______ _______ _______ _____ _____    ______ ____
ROOT
ATOM      1  C   UNL     1       3.501   5.958  18.954  0.00  0.00    +0.000 A 
ATOM      2  C   UNL     1       2.612   7.005  18.983  0.00  0.00    +0.000 A 
ATOM      3  C   UNL     1       2.401   7.986  17.925  0.00  0.00    +0.000 A 
ATOM      4  C   UNL     1       1.984   9.233  18.209  0.00  0.00    +0.000 A 
ATOM      5  C   UNL     1       1.566   9.554  19.617  0.00  0.00    +0.000 A 
ATOM      6  O   UNL     1       1.397  10.690  20.034  0.00  0.00    +0.000 OA
ATOM      7  C   UNL     1       1.218   8.391  20.461  0.00  0.00    +0.000 A 
ATOM      8  C   UNL     1       1.679   7.177  20.111  0.00  0.00    +0.000 A 
ATOM      9  O   UNL     1       1.173   6.045  20.708  0.00  0.00    +0.000 OA
ATOM     10  C   UNL     1       1.980   4.941  20.684  0.00  0.00    +0.000 A 
ATOM     11  C   UNL     1       1.462   3.785  21.266  0.00  0.00    +0.000 A 
ATOM     12  C   UNL     1       2.286   2.684  21.367  0.00  0.00    +0.000 A 
ATOM     13  C   UNL     1       3.640   2.809  21.078  0.00  0.00    +0.000 A 
ATOM     14  C   UNL     1       4.153   3.982  20.524  0.00  0.00    +0.000 A 
ATOM     15  C   UNL     1       3.269   4.992  20.126  0.00  0.00    +0.000 A 
ENDROOT
BRANCH   1  19
ATOM     16  C   UNL     1       6.456   5.321  15.678  0.00  0.00    +0.000 A 
ATOM     17  C   UNL     1       5.397   4.436  15.839  0.00  0.00    +0.000 A 
ATOM     18  C   UNL     1       4.369   4.630  16.789  0.00  0.00    +0.000 A 
ATOM     19  C   UNL     1       4.488   5.628  17.788  0.00  0.00    +0.000 A 
ATOM     20  C   UNL     1       5.677   6.402  17.680  0.00  0.00    +0.000 A 
ATOM     21  C   UNL     1       6.603   6.329  16.615  0.00  0.00    +0.000 A 
BRANCH  16  23
ATOM     22  C   UNL     1       6.877   4.446  13.516  0.00  0.00    +0.000 C 
ATOM     23  O   UNL     1       7.346   5.182  14.648  0.00  0.00    +0.000 OA
ENDBRANCH  16  23
BRANCH  18  24
ATOM     24  O   UNL     1       3.220   3.884  16.670  0.00  0.00    +0.000 OA
ATOM     25  C   UNL     1       3.180   2.635  17.367  0.00  0.00    +0.000 C 
ENDBRANCH  18  24
BRANCH  21  26
ATOM     26  O   UNL     1       7.558   7.311  16.660  0.00  0.00    +0.000 OA
ATOM     27  C   UNL     1       7.847   7.911  17.918  0.00  0.00    +0.000 C 
ENDBRANCH  21  26
ENDBRANCH   1  19
BRANCH   4  28
ATOM     28  O   UNL     1       1.864  10.216  17.247  0.00  0.00    +0.000 OA
ATOM     29  H   UNL     1       1.364  10.953  17.632  0.00  0.00    +0.000 HD
ENDBRANCH   4  28
BRANCH  12  30
ATOM     30  O   UNL     1       1.806   1.457  21.729  0.00  0.00    +0.000 OA
ATOM     31  H   UNL     1       2.343   1.143  22.480  0.00  0.00    +0.000 HD
ENDBRANCH  12  30
BRANCH  13  32
ATOM     32  O   UNL     1       4.463   1.730  21.227  0.00  0.00    +0.000 OA
ATOM     33  H   UNL     1       4.547   1.354  20.327  0.00  0.00    +0.000 HD
ENDBRANCH  13  32
TORSDOF 7
ENDMDL
MODEL 2
REMARK VINA RESULT:      -7.1      1.523      5.779
REMARK  Name = 
REMARK  10 active torsions:
REMARK  status: ('A' for Active; 'I' for Inactive)
REMARK    1  A    between atoms: C_1  and  O_2
REMARK    2  A    between atoms: O_2  and  C_3
REMARK    3  A    between atoms: C_5  and  O_6
REMARK    4  A    between atoms: O_6  and  C_7
REMARK    5  A    between atoms: C_8  and  C_9
REMARK    6  A    between atoms: C_12  and  O_13
REMARK    7  A    between atoms: C_21  and  O_22
REMARK    8  A    between atoms: C_23  and  O_24
REMARK    9  A    between atoms: C_28  and  O_29
REMARK   10  A    between atoms: O_29  and  C_30
REMARK                            x       y       z     vdW  Elec       q    Type
REMARK                         _______ _______ _______ _____ _____    ______ ____
ROOT
ATOM      1  C   UNL     1       3.501   5.515  17.959  0.00  0.00    +0.000 A 
ATOM      2  C   UNL     1       4.818   5.497  17.567  0.00  0.00    +0.000 A 
ATOM      3  C   UNL     1       5.780   6.580  17.730  0.00  0.00    +0.000 A 
ATOM      4  C   UNL     1       6.807   6.732  16.873  0.00  0.00    +0.000 A 
ATOM      5  C   UNL     1       7.055   5.664  15.845  0.00  0.00    +0.000 A 
ATOM      6  O   UNL     1       7.797   5.803  14.885  0.00  0.00    +0.000 OA
ATOM      7  C   UNL     1       6.453   4.345  16.135  0.00  0.00    +0.000 A 
ATOM      8  C   UNL     1       5.425   4.279  17.001  0.00  0.00    +0.000 A 
ATOM      9  O   UNL     1       5.011   3.063  17.495  0.00  0.00    +0.000 OA
ATOM     10  C   UNL     1       3.722   3.006  17.948  0.00  0.00    +0.000 A 
ATOM     11  C   UNL     1       3.305   1.783  18.471  0.00  0.00    +0.000 A 
ATOM     12  C   UNL     1       1.981   1.649  18.832  0.00  0.00    +0.000 A 
ATOM     13  C   UNL     1       1.071   2.642  18.488  0.00  0.00    +0.000 A 
ATOM     14  C   UNL     1       1.496   3.850  17.936  0.00  0.00    +0.000 A 
ATOM     15  C   UNL     1       2.867   4.119  17.859  0.00  0.00    +0.000 A 
ENDROOT
BRANCH   1  19
ATOM     16  C   UNL     1       1.503   9.134  19.626  0.00  0.00    +0.000 A 
ATOM     17  C   UNL     1       1.604   7.980  20.395  0.00  0.00    +0.000 A 
ATOM     18  C   UNL     1       2.310   6.832  19.971  0.00  0.00    +0.000 A 
ATOM     19  C   UNL     1       2.764   6.716  18.634  0.00  0.00    +0.000 A 
ATOM     20  C   UNL     1       2.486   7.861  17.837  0.00  0.00    +0.000 A 
ATOM     21  C   UNL     1       1.954   9.079  18.318  0.00  0.00    +0.000 A 
BRANCH  16  23
ATOM     22  C   UNL     1      -0.482  10.352  20.066  0.00  0.00    +0.000 C 
ATOM     23  O   UNL     1       0.944  10.276  20.131  0.00  0.00    +0.000 OA
ENDBRANCH  16  23
BRANCH  18  24
ATOM     24  O   UNL     1       2.615   5.871  20.906  0.00  0.00    +0.000 OA
ATOM     25  C   UNL     1       1.640   4.847  21.127  0.00  0.00    +0.000 C 
ENDBRANCH  18  24
BRANCH  21  26
ATOM     26  O   UNL     1       1.961  10.081  17.382  0.00  0.00    +0.000 OA
ATOM     27  C   UNL     1       2.512  11.340  17.749  0.00  0.00    +0.000 C 
ENDBRANCH  21  26
ENDBRANCH   1  19
BRANCH   4  28
ATOM     28  O   UNL     1       7.681   7.797  16.939  0.00  0.00    +0.000 OA
ATOM     29  H   UNL     1       8.583   7.452  16.834  0.00  0.00    +0.000 HD
ENDBRANCH   4  28
BRANCH  12  30
ATOM     30  O   UNL     1       1.533   0.569  19.538  0.00  0.00    +0.000 OA
ATOM     31  H   UNL     1       1.511   0.823  20.478  0.00  0.00    +0.000 HD
ENDBRANCH  12  30
BRANCH  13  32
ATOM     32  O   UNL     1      -0.249   2.483  18.802  0.00  0.00    +0.000 OA
ATOM     33  H   UNL     1      -0.596   3.394  18.890  0.00  0.00    +0.000 HD
ENDBRANCH  13  32
TORSDOF 7
ENDMDL
MODEL 3
REMARK VINA RESULT:      -6.9      0.428      4.809
REMARK  Name = 
REMARK  10 active torsions:
REMARK  status: ('A' for Active; 'I' for Inactive)
REMARK    1  A    between atoms: C_1  and  O_2
REMARK    2  A    between atoms: O_2  and  C_3
REMARK    3  A    between atoms: C_5  and  O_6
REMARK    4  A    between atoms: O_6  and  C_7
REMARK    5  A    between atoms: C_8  and  C_9
REMARK    6  A    between atoms: C_12  and  O_13
REMARK    7  A    between atoms: C_21  and  O_22
REMARK    8  A    between atoms: C_23  and  O_24
REMARK    9  A    between atoms: C_28  and  O_29
REMARK   10  A    between atoms: O_29  and  C_30
REMARK                            x       y       z     vdW  Elec       q    Type
REMARK                         _______ _______ _______ _____ _____    ______ ____
ROOT
ATOM      1  C   UNL     1       3.350   5.554  18.813  0.00  0.00    +0.000 A 
ATOM      2  C   UNL     1       3.229   4.748  19.920  0.00  0.00    +0.000 A 
ATOM      3  C   UNL     1       4.134   3.671  20.304  0.00  0.00    +0.000 A 
ATOM      4  C   UNL     1       3.694   2.612  21.008  0.00  0.00    +0.000 A 
ATOM      5  C   UNL     1       2.291   2.635  21.548  0.00  0.00    +0.000 A 
ATOM      6  O   UNL     1       1.716   1.651  21.990  0.00  0.00    +0.000 OA
ATOM      7  C   UNL     1       1.669   3.972  21.656  0.00  0.00    +0.000 A 
ATOM      8  C   UNL     1       2.166   4.978  20.914  0.00  0.00    +0.000 A 
ATOM      9  O   UNL     1       1.796   6.278  21.172  0.00  0.00    +0.000 OA
ATOM     10  C   UNL     1       1.927   7.158  20.134  0.00  0.00    +0.000 A 
ATOM     11  C   UNL     1       1.577   8.482  20.397  0.00  0.00    +0.000 A 
ATOM     12  C   UNL     1       1.583   9.376  19.348  0.00  0.00    +0.000 A 
ATOM     13  C   UNL     1       1.740   8.909  18.048  0.00  0.00    +0.000 A 
ATOM     14  C   UNL     1       2.061   7.576  17.794  0.00  0.00    +0.000 A 
ATOM     15  C   UNL     1       2.366   6.732  18.868  0.00  0.00    +0.000 A 
ENDROOT
BRANCH   1  19
ATOM     16  C   UNL     1       6.627   5.595  15.792  0.00  0.00    +0.000 A 
ATOM     17  C   UNL     1       5.740   4.526  15.840  0.00  0.00    +0.000 A 
ATOM     18  C   UNL     1       4.621   4.492  16.701  0.00  0.00    +0.000 A 
ATOM     19  C   UNL     1       4.471   5.455  17.729  0.00  0.00    +0.000 A 
ATOM     20  C   UNL     1       5.502   6.436  17.744  0.00  0.00    +0.000 A 
ATOM     21  C   UNL     1       6.508   6.575  16.762  0.00  0.00    +0.000 A 
BRANCH  16  23
ATOM     22  C   UNL     1       7.343   4.957  13.625  0.00  0.00    +0.000 C 
ATOM     23  O   UNL     1       7.608   5.660  14.841  0.00  0.00    +0.000 OA
ENDBRANCH  16  23
BRANCH  18  24
ATOM     24  O   UNL     1       3.643   3.555  16.465  0.00  0.00    +0.000 OA
ATOM     25  C   UNL     1       3.686   2.358  17.249  0.00  0.00    +0.000 C 
ENDBRANCH  18  24
BRANCH  21  26
ATOM     26  O   UNL     1       7.259   7.713  16.913  0.00  0.00    +0.000 OA
ATOM     27  C   UNL     1       8.037   7.853  18.096  0.00  0.00    +0.000 C 
ENDBRANCH  21  26
ENDBRANCH   1  19
BRANCH   4  28
ATOM     28  O   UNL     1       4.497   1.531  21.309  0.00  0.00    +0.000 OA
ATOM     29  H   UNL     1       5.379   1.699  20.939  0.00  0.00    +0.000 HD
ENDBRANCH   4  28
BRANCH  12  30
ATOM     30  O   UNL     1       1.457  10.721  19.549  0.00  0.00    +0.000 OA
ATOM     31  H   UNL     1       2.355  11.099  19.570  0.00  0.00    +0.000 HD
ENDBRANCH  12  30
BRANCH  13  32
ATOM     32  O   UNL     1       1.696   9.792  17.006  0.00  0.00    +0.000 OA
ATOM     33  H   UNL     1       0.919   9.517  16.479  0.00  0.00    +0.000 HD
ENDBRANCH  13  32
TORSDOF 7
ENDMDL
MODEL 4
REMARK VINA RESULT:      -6.6      6.070      9.569
REMARK  Name = 
REMARK  10 active torsions:
REMARK  status: ('A' for Active; 'I' for Inactive)
REMARK    1  A    between atoms: C_1  and  O_2
REMARK    2  A    between atoms: O_2  and  C_3
REMARK    3  A    between atoms: C_5  and  O_6
REMARK    4  A    between atoms: O_6  and  C_7
REMARK    5  A    between atoms: C_8  and  C_9
REMARK    6  A    between atoms: C_12  and  O_13
REMARK    7  A    between atoms: C_21  and  O_22
REMARK    8  A    between atoms: C_23  and  O_24
REMARK    9  A    between atoms: C_28  and  O_29
REMARK   10  A    between atoms: O_29  and  C_30
REMARK                            x       y       z     vdW  Elec       q    Type
REMARK                         _______ _______ _______ _____ _____    ______ ____
ROOT
ATOM      1  C   UNL     1      -0.094  12.696  20.604  0.00  0.00    +0.000 A 
ATOM      2  C   UNL     1       0.979  13.531  20.405  0.00  0.00    +0.000 A 
ATOM      3  C   UNL     1       1.649  13.785  19.135  0.00  0.00    +0.000 A 
ATOM      4  C   UNL     1       2.952  14.118  19.092  0.00  0.00    +0.000 A 
ATOM      5  C   UNL     1       3.669  14.400  20.382  0.00  0.00    +0.000 A 
ATOM      6  O   UNL     1       4.885  14.481  20.482  0.00  0.00    +0.000 OA
ATOM      7  C   UNL     1       2.805  14.729  21.536  0.00  0.00    +0.000 A 
ATOM      8  C   UNL     1       1.513  14.355  21.503  0.00  0.00    +0.000 A 
ATOM      9  O   UNL     1       0.622  14.861  22.422  0.00  0.00    +0.000 OA
ATOM     10  C   UNL     1      -0.498  14.111  22.648  0.00  0.00    +0.000 A 
ATOM     11  C   UNL     1      -1.417  14.630  23.560  0.00  0.00    +0.000 A 
ATOM     12  C   UNL     1      -2.502  13.852  23.903  0.00  0.00    +0.000 A 
ATOM     13  C   UNL     1      -2.551  12.524  23.498  0.00  0.00    +0.000 A 
ATOM     14  C   UNL     1      -1.610  12.005  22.608  0.00  0.00    +0.000 A 
ATOM     15  C   UNL     1      -0.688  12.873  22.010  0.00  0.00    +0.000 A 
ENDROOT
BRANCH   1  19
ATOM     16  C   UNL     1      -2.382  10.355  17.578  0.00  0.00    +0.000 A 
ATOM     17  C   UNL     1      -1.039  10.072  17.805  0.00  0.00    +0.000 A 
ATOM     18  C   UNL     1      -0.280  10.704  18.816  0.00  0.00    +0.000 A 
ATOM     19  C   UNL     1      -0.793  11.828  19.508  0.00  0.00    +0.000 A 
ATOM     20  C   UNL     1      -2.114  12.182  19.119  0.00  0.00    +0.000 A 
ATOM     21  C   UNL     1      -2.936  11.431  18.249  0.00  0.00    +0.000 A 
BRANCH  16  23
ATOM     22  C   UNL     1      -3.016   9.999  15.322  0.00  0.00    +0.000 C 
ATOM     23  O   UNL     1      -3.122   9.617  16.696  0.00  0.00    +0.000 OA
ENDBRANCH  16  23
BRANCH  18  24
ATOM     24  O   UNL     1       0.930  10.151  19.165  0.00  0.00    +0.000 OA
ATOM     25  C   UNL     1       1.821   9.810  18.099  0.00  0.00    +0.000 C 
ENDBRANCH  18  24
BRANCH  21  26
ATOM     26  O   UNL     1      -4.226  11.892  18.189  0.00  0.00    +0.000 OA
ATOM     27  C   UNL     1      -4.861  12.272  19.405  0.00  0.00    +0.000 C 
ENDBRANCH  21  26
ENDBRANCH   1  19
BRANCH   4  28
ATOM     28  O   UNL     1       3.643  14.274  17.908  0.00  0.00    +0.000 OA
ATOM     29  H   UNL     1       4.570  14.035  18.067  0.00  0.00    +0.000 HD
ENDBRANCH   4  28
BRANCH  12  30
ATOM     30  O   UNL     1      -3.549  14.356  24.621  0.00  0.00    +0.000 OA
ATOM     31  H   UNL     1      -4.229  14.643  23.984  0.00  0.00    +0.000 HD
ENDBRANCH  12  30
BRANCH  13  32
ATOM     32  O   UNL     1      -3.603  11.741  23.881  0.00  0.00    +0.000 OA
ATOM     33  H   UNL     1      -3.209  10.863  24.059  0.00  0.00    +0.000 HD
ENDBRANCH  13  32
TORSDOF 7
ENDMDL
MODEL 5
REMARK VINA RESULT:      -6.6      6.618      9.934
REMARK  Name = 
REMARK  10 active torsions:
REMARK  status: ('A' for Active; 'I' for Inactive)
REMARK    1  A    between atoms: C_1  and  O_2
REMARK    2  A    between atoms: O_2  and  C_3
REMARK    3  A    between atoms: C_5  and  O_6
REMARK    4  A    between atoms: O_6  and  C_7
REMARK    5  A    between atoms: C_8  and  C_9
REMARK    6  A    between atoms: C_12  and  O_13
REMARK    7  A    between atoms: C_21  and  O_22
REMARK    8  A    between atoms: C_23  and  O_24
REMARK    9  A    between atoms: C_28  and  O_29
REMARK   10  A    between atoms: O_29  and  C_30
REMARK                            x       y       z     vdW  Elec       q    Type
REMARK                         _______ _______ _______ _____ _____    ______ ____
ROOT
ATOM      1  C   UNL     1      -0.653  13.030  20.386  0.00  0.00    +0.000 A 
ATOM      2  C   UNL     1      -1.082  13.082  21.690  0.00  0.00    +0.000 A 
ATOM      3  C   UNL     1      -2.063  12.198  22.310  0.00  0.00    +0.000 A 
ATOM      4  C   UNL     1      -2.828  12.620  23.333  0.00  0.00    +0.000 A 
ATOM      5  C   UNL     1      -2.539  13.961  23.948  0.00  0.00    +0.000 A 
ATOM      6  O   UNL     1      -3.299  14.538  24.711  0.00  0.00    +0.000 OA
ATOM      7  C   UNL     1      -1.186  14.502  23.695  0.00  0.00    +0.000 A 
ATOM      8  C   UNL     1      -0.487  14.030  22.648  0.00  0.00    +0.000 A 
ATOM      9  O   UNL     1       0.856  14.308  22.529  0.00  0.00    +0.000 OA
ATOM     10  C   UNL     1       1.375  14.235  21.266  0.00  0.00    +0.000 A 
ATOM     11  C   UNL     1       2.740  14.492  21.143  0.00  0.00    +0.000 A 
ATOM     12  C   UNL     1       3.280  14.544  19.876  0.00  0.00    +0.000 A 
ATOM     13  C   UNL     1       2.438  14.538  18.769  0.00  0.00    +0.000 A 
ATOM     14  C   UNL     1       1.069  14.310  18.906  0.00  0.00    +0.000 A 
ATOM     15  C   UNL     1       0.561  13.944  20.158  0.00  0.00    +0.000 A 
ENDROOT
BRANCH   1  19
ATOM     16  C   UNL     1      -2.393  10.293  17.327  0.00  0.00    +0.000 A 
ATOM     17  C   UNL     1      -1.085  10.108  17.761  0.00  0.00    +0.000 A 
ATOM     18  C   UNL     1      -0.502  10.872  18.796  0.00  0.00    +0.000 A 
ATOM     19  C   UNL     1      -1.154  12.026  19.298  0.00  0.00    +0.000 A 
ATOM     20  C   UNL     1      -2.422  12.268  18.700  0.00  0.00    +0.000 A 
ATOM     21  C   UNL     1      -3.081  11.394  17.806  0.00  0.00    +0.000 A 
BRANCH  16  23
ATOM     22  C   UNL     1      -2.981   9.872  15.070  0.00  0.00    +0.000 C 
ATOM     23  O   UNL     1      -2.970   9.435  16.431  0.00  0.00    +0.000 OA
ENDBRANCH  16  23
BRANCH  18  24
ATOM     24  O   UNL     1       0.669  10.423  19.360  0.00  0.00    +0.000 OA
ATOM     25  C   UNL     1       0.555   9.561  20.496  0.00  0.00    +0.000 C 
ENDBRANCH  18  24
BRANCH  21  26
ATOM     26  O   UNL     1      -4.368  11.775  17.527  0.00  0.00    +0.000 OA
ATOM     27  C   UNL     1      -5.430  11.073  18.163  0.00  0.00    +0.000 C 
ENDBRANCH  21  26
ENDBRANCH   1  19
BRANCH   4  28
ATOM     28  O   UNL     1      -3.830  11.846  23.883  0.00  0.00    +0.000 OA
ATOM     29  H   UNL     1      -3.426  11.034  24.228  0.00  0.00    +0.000 HD
ENDBRANCH   4  28
BRANCH  12  30
ATOM     30  O   UNL     1       4.630  14.583  19.670  0.00  0.00    +0.000 OA
ATOM     31  H   UNL     1       4.789  15.126  18.876  0.00  0.00    +0.000 HD
ENDBRANCH  12  30
BRANCH  13  32
ATOM     32  O   UNL     1       2.973  14.639  17.516  0.00  0.00    +0.000 OA
ATOM     33  H   UNL     1       3.027  13.717  17.193  0.00  0.00    +0.000 HD
ENDBRANCH  13  32
TORSDOF 7
ENDMDL
MODEL 6
REMARK VINA RESULT:      -6.3      8.799     11.577
REMARK  Name = 
REMARK  10 active torsions:
REMARK  status: ('A' for Active; 'I' for Inactive)
REMARK    1  A    between atoms: C_1  and  O_2
REMARK    2  A    between atoms: O_2  and  C_3
REMARK    3  A    between atoms: C_5  and  O_6
REMARK    4  A    between atoms: O_6  and  C_7
REMARK    5  A    between atoms: C_8  and  C_9
REMARK    6  A    between atoms: C_12  and  O_13
REMARK    7  A    between atoms: C_21  and  O_22
REMARK    8  A    between atoms: C_23  and  O_24
REMARK    9  A    between atoms: C_28  and  O_29
REMARK   10  A    between atoms: O_29  and  C_30
REMARK                            x       y       z     vdW  Elec       q    Type
REMARK                         _______ _______ _______ _____ _____    ______ ____
ROOT
ATOM      1  C   UNL     1      -3.702  13.234  20.654  0.00  0.00    +0.000 A 
ATOM      2  C   UNL     1      -3.771  12.344  19.609  0.00  0.00    +0.000 A 
ATOM      3  C   UNL     1      -2.640  11.730  18.924  0.00  0.00    +0.000 A 
ATOM      4  C   UNL     1      -2.728  11.358  17.634  0.00  0.00    +0.000 A 
ATOM      5  C   UNL     1      -4.067  11.420  16.953  0.00  0.00    +0.000 A 
ATOM      6  O   UNL     1      -4.220  11.333  15.744  0.00  0.00    +0.000 OA
ATOM      7  C   UNL     1      -5.241  11.448  17.852  0.00  0.00    +0.000 A 
ATOM      8  C   UNL     1      -5.068  11.837  19.128  0.00  0.00    +0.000 A 
ATOM      9  O   UNL     1      -6.064  11.632  20.056  0.00  0.00    +0.000 OA
ATOM     10  C   UNL     1      -6.042  12.449  21.151  0.00  0.00    +0.000 A 
ATOM     11  C   UNL     1      -7.034  12.228  22.107  0.00  0.00    +0.000 A 
ATOM     12  C   UNL     1      -7.119  13.103  23.169  0.00  0.00    +0.000 A 
ATOM     13  C   UNL     1      -6.364  14.270  23.160  0.00  0.00    +0.000 A 
ATOM     14  C   UNL     1      -5.394  14.495  22.182  0.00  0.00    +0.000 A 
ATOM     15  C   UNL     1      -5.084  13.469  21.282  0.00  0.00    +0.000 A 
ENDROOT
BRANCH   1  19
ATOM     16  C   UNL     1       0.102  14.972  22.198  0.00  0.00    +0.000 A 
ATOM     17  C   UNL     1      -0.564  13.997  22.931  0.00  0.00    +0.000 A 
ATOM     18  C   UNL     1      -1.718  13.331  22.458  0.00  0.00    +0.000 A 
ATOM     19  C   UNL     1      -2.390  13.788  21.297  0.00  0.00    +0.000 A 
ATOM     20  C   UNL     1      -1.759  14.900  20.675  0.00  0.00    +0.000 A 
ATOM     21  C   UNL     1      -0.504  15.436  21.042  0.00  0.00    +0.000 A 
BRANCH  16  23
ATOM     22  C   UNL     1       2.456  15.005  21.933  0.00  0.00    +0.000 C 
ATOM     23  O   UNL     1       1.298  15.483  22.620  0.00  0.00    +0.000 OA
ENDBRANCH  16  23
BRANCH  18  24
ATOM     24  O   UNL     1      -2.120  12.185  23.102  0.00  0.00    +0.000 OA
ATOM     25  C   UNL     1      -1.254  11.050  23.013  0.00  0.00    +0.000 C 
ENDBRANCH  18  24
BRANCH  21  26
ATOM     26  O   UNL     1      -0.040  16.381  20.164  0.00  0.00    +0.000 OA
ATOM     27  C   UNL     1      -0.337  16.217  18.782  0.00  0.00    +0.000 C 
ENDBRANCH  21  26
ENDBRANCH   1  19
BRANCH   4  28
ATOM     28  O   UNL     1      -1.652  10.862  16.926  0.00  0.00    +0.000 OA
ATOM     29  H   UNL     1      -1.988  10.477  16.100  0.00  0.00    +0.000 HD
ENDBRANCH   4  28
BRANCH  12  30
ATOM     30  O   UNL     1      -7.916  12.849  24.248  0.00  0.00    +0.000 OA
ATOM     31  H   UNL     1      -7.675  11.969  24.589  0.00  0.00    +0.000 HD
ENDBRANCH  12  30
BRANCH  13  32
ATOM     32  O   UNL     1      -6.487  15.160  24.189  0.00  0.00    +0.000 OA
ATOM     33  H   UNL     1      -7.347  15.600  24.036  0.00  0.00    +0.000 HD
ENDBRANCH  13  32
TORSDOF 7
ENDMDL
MODEL 7
REMARK VINA RESULT:      -6.3      6.062      9.695
REMARK  Name = 
REMARK  10 active torsions:
REMARK  status: ('A' for Active; 'I' for Inactive)
REMARK    1  A    between atoms: C_1  and  O_2
REMARK    2  A    between atoms: O_2  and  C_3
REMARK    3  A    between atoms: C_5  and  O_6
REMARK    4  A    between atoms: O_6  and  C_7
REMARK    5  A    between atoms: C_8  and  C_9
REMARK    6  A    between atoms: C_12  and  O_13
REMARK    7  A    between atoms: C_21  and  O_22
REMARK    8  A    between atoms: C_23  and  O_24
REMARK    9  A    between atoms: C_28  and  O_29
REMARK   10  A    between atoms: O_29  and  C_30
REMARK                            x       y       z     vdW  Elec       q    Type
REMARK                         _______ _______ _______ _____ _____    ______ ____
ROOT
ATOM      1  C   UNL     1      -0.511  12.864  20.942  0.00  0.00    +0.000 A 
ATOM      2  C   UNL     1       0.562  13.700  20.751  0.00  0.00    +0.000 A 
ATOM      3  C   UNL     1       1.223  13.976  19.480  0.00  0.00    +0.000 A 
ATOM      4  C   UNL     1       2.526  14.308  19.434  0.00  0.00    +0.000 A 
ATOM      5  C   UNL     1       3.253  14.565  20.724  0.00  0.00    +0.000 A 
ATOM      6  O   UNL     1       4.470  14.642  20.816  0.00  0.00    +0.000 OA
ATOM      7  C   UNL     1       2.398  14.874  21.890  0.00  0.00    +0.000 A 
ATOM      8  C   UNL     1       1.106  14.504  21.860  0.00  0.00    +0.000 A 
ATOM      9  O   UNL     1       0.222  14.994  22.794  0.00  0.00    +0.000 OA
ATOM     10  C   UNL     1      -0.898  14.242  23.014  0.00  0.00    +0.000 A 
ATOM     11  C   UNL     1      -1.809  14.746  23.942  0.00  0.00    +0.000 A 
ATOM     12  C   UNL     1      -2.893  13.964  24.279  0.00  0.00    +0.000 A 
ATOM     13  C   UNL     1      -2.948  12.643  23.850  0.00  0.00    +0.000 A 
ATOM     14  C   UNL     1      -2.014  12.139  22.944  0.00  0.00    +0.000 A 
ATOM     15  C   UNL     1      -1.095  13.016  22.355  0.00  0.00    +0.000 A 
ENDROOT
BRANCH   1  19
ATOM     16  C   UNL     1      -2.225  10.354  17.681  0.00  0.00    +0.000 A 
ATOM     17  C   UNL     1      -3.046  11.218  18.396  0.00  0.00    +0.000 A 
ATOM     18  C   UNL     1      -2.555  12.114  19.373  0.00  0.00    +0.000 A 
ATOM     19  C   UNL     1      -1.220  12.017  19.836  0.00  0.00    +0.000 A 
ATOM     20  C   UNL     1      -0.465  11.001  19.188  0.00  0.00    +0.000 A 
ATOM     21  C   UNL     1      -0.904  10.241  18.080  0.00  0.00    +0.000 A 
BRANCH  16  23
ATOM     22  C   UNL     1      -2.848  10.303  15.395  0.00  0.00    +0.000 C 
ATOM     23  O   UNL     1      -2.712   9.613  16.640  0.00  0.00    +0.000 OA
ENDBRANCH  16  23
BRANCH  18  24
ATOM     24  O   UNL     1      -3.378  13.130  19.799  0.00  0.00    +0.000 OA
ATOM     25  C   UNL     1      -4.629  12.751  20.383  0.00  0.00    +0.000 C 
ENDBRANCH  18  24
BRANCH  21  26
ATOM     26  O   UNL     1       0.083   9.464  17.531  0.00  0.00    +0.000 OA
ATOM     27  C   UNL     1       1.383   9.524  18.104  0.00  0.00    +0.000 C 
ENDBRANCH  21  26
ENDBRANCH   1  19
BRANCH   4  28
ATOM     28  O   UNL     1       3.208  14.485  18.247  0.00  0.00    +0.000 OA
ATOM     29  H   UNL     1       3.266  15.438  18.073  0.00  0.00    +0.000 HD
ENDBRANCH   4  28
BRANCH  12  30
ATOM     30  O   UNL     1      -3.934  14.455  25.014  0.00  0.00    +0.000 OA
ATOM     31  H   UNL     1      -3.973  15.417  24.858  0.00  0.00    +0.000 HD
ENDBRANCH  12  30
BRANCH  13  32
ATOM     32  O   UNL     1      -3.998  11.855  24.227  0.00  0.00    +0.000 OA
ATOM     33  H   UNL     1      -3.722  11.463  25.080  0.00  0.00    +0.000 HD
ENDBRANCH  13  32
TORSDOF 7
ENDMDL
MODEL 8
REMARK VINA RESULT:      -6.3      8.691     11.330
REMARK  Name = 
REMARK  10 active torsions:
REMARK  status: ('A' for Active; 'I' for Inactive)
REMARK    1  A    between atoms: C_1  and  O_2
REMARK    2  A    between atoms: O_2  and  C_3
REMARK    3  A    between atoms: C_5  and  O_6
REMARK    4  A    between atoms: O_6  and  C_7
REMARK    5  A    between atoms: C_8  and  C_9
REMARK    6  A    between atoms: C_12  and  O_13
REMARK    7  A    between atoms: C_21  and  O_22
REMARK    8  A    between atoms: C_23  and  O_24
REMARK    9  A    between atoms: C_28  and  O_29
REMARK   10  A    between atoms: O_29  and  C_30
REMARK                            x       y       z     vdW  Elec       q    Type
REMARK                         _______ _______ _______ _____ _____    ______ ____
ROOT
ATOM      1  C   UNL     1      -3.590  12.745  20.679  0.00  0.00    +0.000 A 
ATOM      2  C   UNL     1      -4.822  12.979  21.239  0.00  0.00    +0.000 A 
ATOM      3  C   UNL     1      -5.109  13.896  22.336  0.00  0.00    +0.000 A 
ATOM      4  C   UNL     1      -6.137  13.674  23.175  0.00  0.00    +0.000 A 
ATOM      5  C   UNL     1      -7.098  12.561  22.863  0.00  0.00    +0.000 A 
ATOM      6  O   UNL     1      -7.916  12.125  23.660  0.00  0.00    +0.000 OA
ATOM      7  C   UNL     1      -7.108  12.099  21.458  0.00  0.00    +0.000 A 
ATOM      8  C   UNL     1      -6.038  12.358  20.686  0.00  0.00    +0.000 A 
ATOM      9  O   UNL     1      -6.109  12.182  19.322  0.00  0.00    +0.000 OA
ATOM     10  C   UNL     1      -4.919  11.986  18.679  0.00  0.00    +0.000 A 
ATOM     11  C   UNL     1      -4.983  11.832  17.294  0.00  0.00    +0.000 A 
ATOM     12  C   UNL     1      -3.821  11.516  16.622  0.00  0.00    +0.000 A 
ATOM     13  C   UNL     1      -2.683  11.170  17.341  0.00  0.00    +0.000 A 
ATOM     14  C   UNL     1      -2.639  11.299  18.729  0.00  0.00    +0.000 A 
ATOM     15  C   UNL     1      -3.708  11.917  19.390  0.00  0.00    +0.000 A 
ENDROOT
BRANCH   1  19
ATOM     16  C   UNL     1       0.290  14.717  21.643  0.00  0.00    +0.000 A 
ATOM     17  C   UNL     1      -0.302  13.860  22.565  0.00  0.00    +0.000 A 
ATOM     18  C   UNL     1      -1.476  13.125  22.288  0.00  0.00    +0.000 A 
ATOM     19  C   UNL     1      -2.242  13.397  21.128  0.00  0.00    +0.000 A 
ATOM     20  C   UNL     1      -1.679  14.405  20.298  0.00  0.00    +0.000 A 
ATOM     21  C   UNL     1      -0.410  14.997  20.482  0.00  0.00    +0.000 A 
BRANCH  16  23
ATOM     22  C   UNL     1       1.483  16.475  22.693  0.00  0.00    +0.000 C 
ATOM     23  O   UNL     1       1.506  15.293  21.890  0.00  0.00    +0.000 OA
ENDBRANCH  16  23
BRANCH  18  24
ATOM     24  O   UNL     1      -1.809  12.087  23.127  0.00  0.00    +0.000 OA
ATOM     25  C   UNL     1      -1.053  10.879  22.999  0.00  0.00    +0.000 C 
ENDBRANCH  18  24
BRANCH  21  26
ATOM     26  O   UNL     1      -0.030  15.801  19.438  0.00  0.00    +0.000 OA
ATOM     27  C   UNL     1      -0.652  17.074  19.309  0.00  0.00    +0.000 C 
ENDBRANCH  21  26
ENDBRANCH   1  19
BRANCH   4  28
ATOM     28  O   UNL     1      -6.384  14.466  24.278  0.00  0.00    +0.000 OA
ATOM     29  H   UNL     1      -5.547  14.885  24.540  0.00  0.00    +0.000 HD
ENDBRANCH   4  28
BRANCH  12  30
ATOM     30  O   UNL     1      -3.748  11.550  15.259  0.00  0.00    +0.000 OA
ATOM     31  H   UNL     1      -2.808  11.645  15.019  0.00  0.00    +0.000 HD
ENDBRANCH  12  30
BRANCH  13  32
ATOM     32  O   UNL     1      -1.548  10.809  16.672  0.00  0.00    +0.000 OA
ATOM     33  H   UNL     1      -1.781  10.889  15.725  0.00  0.00    +0.000 HD
ENDBRANCH  13  32
TORSDOF 7
ENDMDL
MODEL 9
REMARK VINA RESULT:      -6.1      6.765     10.631
REMARK  Name = 
REMARK  10 active torsions:
REMARK  status: ('A' for Active; 'I' for Inactive)
REMARK    1  A    between atoms: C_1  and  O_2
REMARK    2  A    between atoms: O_2  and  C_3
REMARK    3  A    between atoms: C_5  and  O_6
REMARK    4  A    between atoms: O_6  and  C_7
REMARK    5  A    between atoms: C_8  and  C_9
REMARK    6  A    between atoms: C_12  and  O_13
REMARK    7  A    between atoms: C_21  and  O_22
REMARK    8  A    between atoms: C_23  and  O_24
REMARK    9  A    between atoms: C_28  and  O_29
REMARK   10  A    between atoms: O_29  and  C_30
REMARK                            x       y       z     vdW  Elec       q    Type
REMARK                         _______ _______ _______ _____ _____    ______ ____
ROOT
ATOM      1  C   UNL     1      -3.127  13.086  20.557  0.00  0.00    +0.000 A 
ATOM      2  C   UNL     1      -4.119  12.491  19.815  0.00  0.00    +0.000 A 
ATOM      3  C   UNL     1      -3.947  11.805  18.540  0.00  0.00    +0.000 A 
ATOM      4  C   UNL     1      -4.943  11.761  17.636  0.00  0.00    +0.000 A 
ATOM      5  C   UNL     1      -6.300  12.276  18.028  0.00  0.00    +0.000 A 
ATOM      6  O   UNL     1      -7.199  12.498  17.231  0.00  0.00    +0.000 OA
ATOM      7  C   UNL     1      -6.553  12.369  19.482  0.00  0.00    +0.000 A 
ATOM      8  C   UNL     1      -5.502  12.413  20.319  0.00  0.00    +0.000 A 
ATOM      9  O   UNL     1      -5.685  12.237  21.672  0.00  0.00    +0.000 OA
ATOM     10  C   UNL     1      -4.717  12.762  22.483  0.00  0.00    +0.000 A 
ATOM     11  C   UNL     1      -4.886  12.565  23.853  0.00  0.00    +0.000 A 
ATOM     12  C   UNL     1      -3.996  13.177  24.711  0.00  0.00    +0.000 A 
ATOM     13  C   UNL     1      -3.097  14.113  24.215  0.00  0.00    +0.000 A 
ATOM     14  C   UNL     1      -2.957  14.325  22.843  0.00  0.00    +0.000 A 
ATOM     15  C   UNL     1      -3.633  13.482  21.953  0.00  0.00    +0.000 A 
ENDROOT
BRANCH   1  19
ATOM     16  C   UNL     1       1.224  13.023  19.589  0.00  0.00    +0.000 A 
ATOM     17  C   UNL     1       0.481  14.179  19.376  0.00  0.00    +0.000 A 
ATOM     18  C   UNL     1      -0.875  14.303  19.752  0.00  0.00    +0.000 A 
ATOM     19  C   UNL     1      -1.617  13.169  20.164  0.00  0.00    +0.000 A 
ATOM     20  C   UNL     1      -0.850  11.971  20.204  0.00  0.00    +0.000 A 
ATOM     21  C   UNL     1       0.548  11.892  20.014  0.00  0.00    +0.000 A 
BRANCH  16  23
ATOM     22  C   UNL     1       3.240  14.254  19.402  0.00  0.00    +0.000 C 
ATOM     23  O   UNL     1       2.570  12.992  19.352  0.00  0.00    +0.000 OA
ENDBRANCH  16  23
BRANCH  18  24
ATOM     24  O   UNL     1      -1.431  15.560  19.786  0.00  0.00    +0.000 OA
ATOM     25  C   UNL     1      -0.748  16.593  19.068  0.00  0.00    +0.000 C 
ENDBRANCH  18  24
BRANCH  21  26
ATOM     26  O   UNL     1       1.063  10.652  20.291  0.00  0.00    +0.000 OA
ATOM     27  C   UNL     1       0.164   9.551  20.358  0.00  0.00    +0.000 C 
ENDBRANCH  21  26
ENDBRANCH   1  19
BRANCH   4  28
ATOM     28  O   UNL     1      -4.788  11.204  16.382  0.00  0.00    +0.000 OA
ATOM     29  H   UNL     1      -5.289  10.373  16.359  0.00  0.00    +0.000 HD
ENDBRANCH   4  28
BRANCH  12  30
ATOM     30  O   UNL     1      -3.959  12.876  26.043  0.00  0.00    +0.000 OA
ATOM     31  H   UNL     1      -4.342  13.632  26.524  0.00  0.00    +0.000 HD
ENDBRANCH  12  30
BRANCH  13  32
ATOM     32  O   UNL     1      -2.250  14.755  25.075  0.00  0.00    +0.000 OA
ATOM     33  H   UNL     1      -1.676  15.300  24.499  0.00  0.00    +0.000 HD
ENDBRANCH  13  32
TORSDOF 7
ENDMDL
