MODEL 1
REMARK VINA RESULT:      -7.5      0.000      0.000
REMARK  Name = 
REMARK  5 active torsions:
REMARK  status: ('A' for Active; 'I' for Inactive)
REMARK    1  A    between atoms: C_1  and  C_2
REMARK    2  A    between atoms: C_5  and  O_6
REMARK    3  A    between atoms: C_7  and  N_8
REMARK    4  A    between atoms: C_9  and  C_11
REMARK    5  A    between atoms: N_15  and  C_16
REMARK                            x       y       z     vdW  Elec       q    Type
REMARK                         _______ _______ _______ _____ _____    ______ ____
ROOT
ATOM      1  N   UNL     1       4.426   4.045  17.209  0.00  0.00    +0.000 N 
ATOM      2  C   UNL     1       5.766   4.404  17.142  0.00  0.00    +0.000 C 
ATOM      3  O   UNL     1       6.449   4.671  18.128  0.00  0.00    +0.000 OA
ATOM      4  H   UNL     1       4.087   3.488  16.431  0.00  0.00    +0.000 HD
ENDROOT
BRANCH   2   5
ATOM      5  C   UNL     1       6.325   4.400  15.772  0.00  0.00    +0.000 A 
ATOM      6  N   UNL     1       7.280   5.307  15.353  0.00  0.00    +0.000 NA
ATOM      7  C   UNL     1       7.417   5.066  14.078  0.00  0.00    +0.000 A 
ATOM      8  N   UNL     1       8.212   5.733  13.226  0.00  0.00    +0.000 N 
ATOM      9  N   UNL     1       6.582   4.037  13.730  0.00  0.00    +0.000 N 
ATOM     10  C   UNL     1       6.277   3.530  12.419  0.00  0.00    +0.000 C 
ATOM     11  N   UNL     1       5.923   3.549  14.806  0.00  0.00    +0.000 NA
ATOM     12  H   UNL     1       8.892   6.356  13.656  0.00  0.00    +0.000 HD
ATOM     13  H   UNL     1       8.521   5.345  12.343  0.00  0.00    +0.000 HD
ENDBRANCH   2   5
BRANCH   1  19
ATOM     14  C   UNL     1       1.603   6.192  20.694  0.00  0.00    +0.000 C 
ATOM     15  C   UNL     1       2.330   4.995  20.151  0.00  0.00    +0.000 A 
ATOM     16  C   UNL     1       2.230   3.749  20.784  0.00  0.00    +0.000 A 
ATOM     17  C   UNL     1       2.836   2.620  20.227  0.00  0.00    +0.000 A 
ATOM     18  C   UNL     1       3.533   2.735  19.026  0.00  0.00    +0.000 A 
ATOM     19  C   UNL     1       3.692   3.977  18.410  0.00  0.00    +0.000 A 
ATOM     20  C   UNL     1       3.091   5.107  18.977  0.00  0.00    +0.000 A 
BRANCH  18  21
ATOM     21  O   UNL     1       4.126   1.637  18.458  0.00  0.00    +0.000 OA
ATOM     22  H   UNL     1       3.488   1.230  17.849  0.00  0.00    +0.000 HD
ENDBRANCH  18  21
ENDBRANCH   1  19
TORSDOF 3
ENDMDL
MODEL 2
REMARK VINA RESULT:      -7.4      1.152      2.086
REMARK  Name = 
REMARK  5 active torsions:
REMARK  status: ('A' for Active; 'I' for Inactive)
REMARK    1  A    between atoms: C_1  and  C_2
REMARK    2  A    between atoms: C_5  and  O_6
REMARK    3  A    between atoms: C_7  and  N_8
REMARK    4  A    between atoms: C_9  and  C_11
REMARK    5  A    between atoms: N_15  and  C_16
REMARK                            x       y       z     vdW  Elec       q    Type
REMARK                         _______ _______ _______ _____ _____    ______ ____
ROOT
ATOM      1  N   UNL     1       4.188   4.760  17.333  0.00  0.00    +0.000 N 
ATOM      2  C   UNL     1       5.577   4.762  17.323  0.00  0.00    +0.000 C 
ATOM      3  O   UNL     1       6.266   4.839  18.338  0.00  0.00    +0.000 OA
ATOM      4  H   UNL     1       3.749   4.314  16.534  0.00  0.00    +0.000 HD
ENDROOT
BRANCH   2   5
ATOM      5  C   UNL     1       6.171   4.622  15.975  0.00  0.00    +0.000 A 
ATOM      6  N   UNL     1       7.181   5.446  15.516  0.00  0.00    +0.000 NA
ATOM      7  C   UNL     1       7.340   5.097  14.268  0.00  0.00    +0.000 A 
ATOM      8  N   UNL     1       8.190   5.654  13.391  0.00  0.00    +0.000 N 
ATOM      9  N   UNL     1       6.463   4.084  13.977  0.00  0.00    +0.000 N 
ATOM     10  C   UNL     1       6.168   3.489  12.701  0.00  0.00    +0.000 C 
ATOM     11  N   UNL     1       5.752   3.716  15.067  0.00  0.00    +0.000 NA
ATOM     12  H   UNL     1       8.889   6.276  13.791  0.00  0.00    +0.000 HD
ATOM     13  H   UNL     1       8.502   5.183  12.551  0.00  0.00    +0.000 HD
ENDBRANCH   2   5
BRANCH   1  19
ATOM     14  C   UNL     1       2.184   2.771  21.426  0.00  0.00    +0.000 C 
ATOM     15  C   UNL     1       2.392   3.938  20.504  0.00  0.00    +0.000 A 
ATOM     16  C   UNL     1       1.889   5.205  20.827  0.00  0.00    +0.000 A 
ATOM     17  C   UNL     1       2.160   6.305  20.010  0.00  0.00    +0.000 A 
ATOM     18  C   UNL     1       2.949   6.141  18.874  0.00  0.00    +0.000 A 
ATOM     19  C   UNL     1       3.413   4.877  18.504  0.00  0.00    +0.000 A 
ATOM     20  C   UNL     1       3.130   3.776  19.321  0.00  0.00    +0.000 A 
BRANCH  18  21
ATOM     21  O   UNL     1       3.235   7.210  18.065  0.00  0.00    +0.000 OA
ATOM     22  H   UNL     1       3.009   6.967  17.152  0.00  0.00    +0.000 HD
ENDBRANCH  18  21
ENDBRANCH   1  19
TORSDOF 3
ENDMDL
MODEL 3
REMARK VINA RESULT:      -7.2      1.516      1.826
REMARK  Name = 
REMARK  5 active torsions:
REMARK  status: ('A' for Active; 'I' for Inactive)
REMARK    1  A    between atoms: C_1  and  C_2
REMARK    2  A    between atoms: C_5  and  O_6
REMARK    3  A    between atoms: C_7  and  N_8
REMARK    4  A    between atoms: C_9  and  C_11
REMARK    5  A    between atoms: N_15  and  C_16
REMARK                            x       y       z     vdW  Elec       q    Type
REMARK                         _______ _______ _______ _____ _____    ______ ____
ROOT
ATOM      1  N   UNL     1       4.844   3.420  16.811  0.00  0.00    +0.000 N 
ATOM      2  C   UNL     1       5.073   4.654  16.213  0.00  0.00    +0.000 C 
ATOM      3  O   UNL     1       4.578   5.706  16.612  0.00  0.00    +0.000 OA
ATOM      4  H   UNL     1       5.570   2.727  16.664  0.00  0.00    +0.000 HD
ENDROOT
BRANCH   2   5
ATOM      5  C   UNL     1       6.007   4.606  15.066  0.00  0.00    +0.000 A 
ATOM      6  N   UNL     1       7.078   5.469  14.941  0.00  0.00    +0.000 NA
ATOM      7  C   UNL     1       7.571   5.202  13.762  0.00  0.00    +0.000 A 
ATOM      8  N   UNL     1       8.607   5.824  13.176  0.00  0.00    +0.000 N 
ATOM      9  N   UNL     1       6.832   4.199  13.190  0.00  0.00    +0.000 N 
ATOM     10  C   UNL     1       6.903   3.682  11.850  0.00  0.00    +0.000 C 
ATOM     11  N   UNL     1       5.869   3.755  14.029  0.00  0.00    +0.000 NA
ATOM     12  H   UNL     1       9.157   6.428  13.783  0.00  0.00    +0.000 HD
ATOM     13  H   UNL     1       9.144   5.410  12.424  0.00  0.00    +0.000 HD
ENDBRANCH   2   5
BRANCH   1  19
ATOM     14  C   UNL     1       0.433   2.168  18.733  0.00  0.00    +0.000 C 
ATOM     15  C   UNL     1       1.844   2.653  18.900  0.00  0.00    +0.000 A 
ATOM     16  C   UNL     1       2.387   2.853  20.176  0.00  0.00    +0.000 A 
ATOM     17  C   UNL     1       3.726   3.219  20.329  0.00  0.00    +0.000 A 
ATOM     18  C   UNL     1       4.530   3.372  19.201  0.00  0.00    +0.000 A 
ATOM     19  C   UNL     1       3.995   3.232  17.919  0.00  0.00    +0.000 A 
ATOM     20  C   UNL     1       2.650   2.875  17.772  0.00  0.00    +0.000 A 
BRANCH  18  21
ATOM     21  O   UNL     1       5.850   3.721  19.330  0.00  0.00    +0.000 OA
ATOM     22  H   UNL     1       5.925   4.351  20.066  0.00  0.00    +0.000 HD
ENDBRANCH  18  21
ENDBRANCH   1  19
TORSDOF 3
ENDMDL
MODEL 4
REMARK VINA RESULT:      -6.8      0.689      1.385
REMARK  Name = 
REMARK  5 active torsions:
REMARK  status: ('A' for Active; 'I' for Inactive)
REMARK    1  A    between atoms: C_1  and  C_2
REMARK    2  A    between atoms: C_5  and  O_6
REMARK    3  A    between atoms: C_7  and  N_8
REMARK    4  A    between atoms: C_9  and  C_11
REMARK    5  A    between atoms: N_15  and  C_16
REMARK                            x       y       z     vdW  Elec       q    Type
REMARK                         _______ _______ _______ _____ _____    ______ ____
ROOT
ATOM      1  N   UNL     1       4.260   4.270  17.164  0.00  0.00    +0.000 N 
ATOM      2  C   UNL     1       5.594   4.617  16.989  0.00  0.00    +0.000 C 
ATOM      3  O   UNL     1       6.353   4.894  17.915  0.00  0.00    +0.000 OA
ATOM      4  H   UNL     1       3.858   3.704  16.424  0.00  0.00    +0.000 HD
ENDROOT
BRANCH   2   5
ATOM      5  C   UNL     1       6.046   4.586  15.580  0.00  0.00    +0.000 A 
ATOM      6  N   UNL     1       5.659   3.599  14.694  0.00  0.00    +0.000 NA
ATOM      7  C   UNL     1       6.352   3.842  13.616  0.00  0.00    +0.000 A 
ATOM      8  N   UNL     1       6.346   3.115  12.487  0.00  0.00    +0.000 N 
ATOM      9  N   UNL     1       7.129   4.951  13.831  0.00  0.00    +0.000 N 
ATOM     10  C   UNL     1       8.162   5.502  12.994  0.00  0.00    +0.000 C 
ATOM     11  N   UNL     1       6.903   5.484  15.053  0.00  0.00    +0.000 NA
ATOM     12  H   UNL     1       5.602   2.425  12.414  0.00  0.00    +0.000 HD
ATOM     13  H   UNL     1       6.645   3.484  11.593  0.00  0.00    +0.000 HD
ENDBRANCH   2   5
BRANCH   1  19
ATOM     14  C   UNL     1       1.581   6.446  20.743  0.00  0.00    +0.000 C 
ATOM     15  C   UNL     1       2.334   5.263  20.207  0.00  0.00    +0.000 A 
ATOM     16  C   UNL     1       2.351   4.048  20.905  0.00  0.00    +0.000 A 
ATOM     17  C   UNL     1       2.978   2.925  20.360  0.00  0.00    +0.000 A 
ATOM     18  C   UNL     1       3.578   3.013  19.106  0.00  0.00    +0.000 A 
ATOM     19  C   UNL     1       3.621   4.228  18.419  0.00  0.00    +0.000 A 
ATOM     20  C   UNL     1       3.000   5.352  18.974  0.00  0.00    +0.000 A 
BRANCH  18  21
ATOM     21  O   UNL     1       4.190   1.919  18.550  0.00  0.00    +0.000 OA
ATOM     22  H   UNL     1       4.689   1.465  19.248  0.00  0.00    +0.000 HD
ENDBRANCH  18  21
ENDBRANCH   1  19
TORSDOF 3
ENDMDL
MODEL 5
REMARK VINA RESULT:      -6.7      1.362      2.549
REMARK  Name = 
REMARK  5 active torsions:
REMARK  status: ('A' for Active; 'I' for Inactive)
REMARK    1  A    between atoms: C_1  and  C_2
REMARK    2  A    between atoms: C_5  and  O_6
REMARK    3  A    between atoms: C_7  and  N_8
REMARK    4  A    between atoms: C_9  and  C_11
REMARK    5  A    between atoms: N_15  and  C_16
REMARK                            x       y       z     vdW  Elec       q    Type
REMARK                         _______ _______ _______ _____ _____    ______ ____
ROOT
ATOM      1  N   UNL     1       4.026   4.957  17.081  0.00  0.00    +0.000 N 
ATOM      2  C   UNL     1       5.410   4.886  16.984  0.00  0.00    +0.000 C 
ATOM      3  O   UNL     1       6.162   4.900  17.956  0.00  0.00    +0.000 OA
ATOM      4  H   UNL     1       3.515   4.556  16.301  0.00  0.00    +0.000 HD
ENDROOT
BRANCH   2   5
ATOM      5  C   UNL     1       5.913   4.748  15.599  0.00  0.00    +0.000 A 
ATOM      6  N   UNL     1       5.537   3.708  14.770  0.00  0.00    +0.000 NA
ATOM      7  C   UNL     1       6.276   3.863  13.704  0.00  0.00    +0.000 A 
ATOM      8  N   UNL     1       6.295   3.059  12.629  0.00  0.00    +0.000 N 
ATOM      9  N   UNL     1       7.068   4.969  13.872  0.00  0.00    +0.000 N 
ATOM     10  C   UNL     1       8.142   5.440  13.040  0.00  0.00    +0.000 C 
ATOM     11  N   UNL     1       6.808   5.591  15.045  0.00  0.00    +0.000 NA
ATOM     12  H   UNL     1       5.540   2.380  12.575  0.00  0.00    +0.000 HD
ATOM     13  H   UNL     1       6.635   3.358  11.724  0.00  0.00    +0.000 HD
ENDBRANCH   2   5
BRANCH   1  19
ATOM     14  C   UNL     1       2.184   2.978  21.254  0.00  0.00    +0.000 C 
ATOM     15  C   UNL     1       2.391   4.153  20.342  0.00  0.00    +0.000 A 
ATOM     16  C   UNL     1       1.970   5.435  20.719  0.00  0.00    +0.000 A 
ATOM     17  C   UNL     1       2.244   6.539  19.907  0.00  0.00    +0.000 A 
ATOM     18  C   UNL     1       2.952   6.362  18.721  0.00  0.00    +0.000 A 
ATOM     19  C   UNL     1       3.331   5.086  18.300  0.00  0.00    +0.000 A 
ATOM     20  C   UNL     1       3.046   3.982  19.112  0.00  0.00    +0.000 A 
BRANCH  18  21
ATOM     21  O   UNL     1       3.239   7.434  17.916  0.00  0.00    +0.000 OA
ATOM     22  H   UNL     1       3.595   7.095  17.077  0.00  0.00    +0.000 HD
ENDBRANCH  18  21
ENDBRANCH   1  19
TORSDOF 3
ENDMDL
MODEL 6
REMARK VINA RESULT:      -6.6      6.826      8.439
REMARK  Name = 
REMARK  5 active torsions:
REMARK  status: ('A' for Active; 'I' for Inactive)
REMARK    1  A    between atoms: C_1  and  C_2
REMARK    2  A    between atoms: C_5  and  O_6
REMARK    3  A    between atoms: C_7  and  N_8
REMARK    4  A    between atoms: C_9  and  C_11
REMARK    5  A    between atoms: N_15  and  C_16
REMARK                            x       y       z     vdW  Elec       q    Type
REMARK                         _______ _______ _______ _____ _____    ______ ____
ROOT
ATOM      1  N   UNL     1       9.281   9.481  19.087  0.00  0.00    +0.000 N 
ATOM      2  C   UNL     1       8.290   9.346  18.123  0.00  0.00    +0.000 C 
ATOM      3  O   UNL     1       7.838  10.288  17.475  0.00  0.00    +0.000 OA
ATOM      4  H   UNL     1       9.833   8.648  19.262  0.00  0.00    +0.000 HD
ENDROOT
BRANCH   2   5
ATOM      5  C   UNL     1       7.846   7.952  17.904  0.00  0.00    +0.000 A 
ATOM      6  N   UNL     1       8.165   6.923  18.771  0.00  0.00    +0.000 NA
ATOM      7  C   UNL     1       7.711   5.851  18.180  0.00  0.00    +0.000 A 
ATOM      8  N   UNL     1       7.828   4.590  18.626  0.00  0.00    +0.000 N 
ATOM      9  N   UNL     1       7.123   6.214  16.996  0.00  0.00    +0.000 N 
ATOM     10  C   UNL     1       6.627   5.370  15.943  0.00  0.00    +0.000 C 
ATOM     11  N   UNL     1       7.136   7.556  16.827  0.00  0.00    +0.000 NA
ATOM     12  H   UNL     1       8.137   4.493  19.590  0.00  0.00    +0.000 HD
ATOM     13  H   UNL     1       7.224   3.839  18.317  0.00  0.00    +0.000 HD
ENDBRANCH   2   5
BRANCH   1  19
ATOM     14  C   UNL     1      11.750  13.635  17.917  0.00  0.00    +0.000 C 
ATOM     15  C   UNL     1      11.083  12.749  18.930  0.00  0.00    +0.000 A 
ATOM     16  C   UNL     1      10.937  13.165  20.260  0.00  0.00    +0.000 A 
ATOM     17  C   UNL     1      10.238  12.377  21.177  0.00  0.00    +0.000 A 
ATOM     18  C   UNL     1       9.672  11.174  20.760  0.00  0.00    +0.000 A 
ATOM     19  C   UNL     1       9.854  10.715  19.454  0.00  0.00    +0.000 A 
ATOM     20  C   UNL     1      10.563  11.504  18.541  0.00  0.00    +0.000 A 
BRANCH  18  21
ATOM     21  O   UNL     1       8.974  10.391  21.642  0.00  0.00    +0.000 OA
ATOM     22  H   UNL     1       8.516  10.976  22.268  0.00  0.00    +0.000 HD
ENDBRANCH  18  21
ENDBRANCH   1  19
TORSDOF 3
ENDMDL
MODEL 7
REMARK VINA RESULT:      -6.5      1.614      2.239
REMARK  Name = 
REMARK  5 active torsions:
REMARK  status: ('A' for Active; 'I' for Inactive)
REMARK    1  A    between atoms: C_1  and  C_2
REMARK    2  A    between atoms: C_5  and  O_6
REMARK    3  A    between atoms: C_7  and  N_8
REMARK    4  A    between atoms: C_9  and  C_11
REMARK    5  A    between atoms: N_15  and  C_16
REMARK                            x       y       z     vdW  Elec       q    Type
REMARK                         _______ _______ _______ _____ _____    ______ ____
ROOT
ATOM      1  N   UNL     1       4.622   3.448  16.658  0.00  0.00    +0.000 N 
ATOM      2  C   UNL     1       5.028   4.700  16.214  0.00  0.00    +0.000 C 
ATOM      3  O   UNL     1       4.804   5.744  16.825  0.00  0.00    +0.000 OA
ATOM      4  H   UNL     1       5.171   2.667  16.313  0.00  0.00    +0.000 HD
ENDROOT
BRANCH   2   5
ATOM      5  C   UNL     1       5.797   4.674  14.951  0.00  0.00    +0.000 A 
ATOM      6  N   UNL     1       5.665   3.663  14.018  0.00  0.00    +0.000 NA
ATOM      7  C   UNL     1       6.582   3.924  13.127  0.00  0.00    +0.000 A 
ATOM      8  N   UNL     1       6.866   3.186  12.042  0.00  0.00    +0.000 N 
ATOM      9  N   UNL     1       7.245   5.065  13.496  0.00  0.00    +0.000 N 
ATOM     10  C   UNL     1       8.423   5.650  12.913  0.00  0.00    +0.000 C 
ATOM     11  N   UNL     1       6.719   5.601  14.621  0.00  0.00    +0.000 NA
ATOM     12  H   UNL     1       6.187   2.465  11.811  0.00  0.00    +0.000 HD
ATOM     13  H   UNL     1       7.352   3.557  11.235  0.00  0.00    +0.000 HD
ENDBRANCH   2   5
BRANCH   1  19
ATOM     14  C   UNL     1       0.393   2.220  18.966  0.00  0.00    +0.000 C 
ATOM     15  C   UNL     1       1.826   2.667  19.008  0.00  0.00    +0.000 A 
ATOM     16  C   UNL     1       2.497   2.806  20.230  0.00  0.00    +0.000 A 
ATOM     17  C   UNL     1       3.855   3.136  20.261  0.00  0.00    +0.000 A 
ATOM     18  C   UNL     1       4.546   3.315  19.064  0.00  0.00    +0.000 A 
ATOM     19  C   UNL     1       3.883   3.236  17.838  0.00  0.00    +0.000 A 
ATOM     20  C   UNL     1       2.521   2.915  17.814  0.00  0.00    +0.000 A 
BRANCH  18  21
ATOM     21  O   UNL     1       5.881   3.629  19.073  0.00  0.00    +0.000 OA
ATOM     22  H   UNL     1       6.247   3.414  18.199  0.00  0.00    +0.000 HD
ENDBRANCH  18  21
ENDBRANCH   1  19
TORSDOF 3
ENDMDL
MODEL 8
REMARK VINA RESULT:      -6.5      3.869      6.049
REMARK  Name = 
REMARK  5 active torsions:
REMARK  status: ('A' for Active; 'I' for Inactive)
REMARK    1  A    between atoms: C_1  and  C_2
REMARK    2  A    between atoms: C_5  and  O_6
REMARK    3  A    between atoms: C_7  and  N_8
REMARK    4  A    between atoms: C_9  and  C_11
REMARK    5  A    between atoms: N_15  and  C_16
REMARK                            x       y       z     vdW  Elec       q    Type
REMARK                         _______ _______ _______ _____ _____    ______ ____
ROOT
ATOM      1  N   UNL     1       2.429   7.155  20.141  0.00  0.00    +0.000 N 
ATOM      2  C   UNL     1       2.078   5.815  20.254  0.00  0.00    +0.000 C 
ATOM      3  O   UNL     1       0.944   5.430  20.528  0.00  0.00    +0.000 OA
ATOM      4  H   UNL     1       3.235   7.344  19.553  0.00  0.00    +0.000 HD
ENDROOT
BRANCH   2   5
ATOM      5  C   UNL     1       3.186   4.875  19.976  0.00  0.00    +0.000 A 
ATOM      6  N   UNL     1       4.359   5.267  19.358  0.00  0.00    +0.000 NA
ATOM      7  C   UNL     1       5.016   4.153  19.177  0.00  0.00    +0.000 A 
ATOM      8  N   UNL     1       6.205   4.024  18.568  0.00  0.00    +0.000 N 
ATOM      9  N   UNL     1       4.274   3.116  19.679  0.00  0.00    +0.000 N 
ATOM     10  C   UNL     1       4.516   1.702  19.571  0.00  0.00    +0.000 C 
ATOM     11  N   UNL     1       3.132   3.557  20.254  0.00  0.00    +0.000 NA
ATOM     12  H   UNL     1       6.708   4.892  18.398  0.00  0.00    +0.000 HD
ATOM     13  H   UNL     1       6.812   3.226  18.709  0.00  0.00    +0.000 HD
ENDBRANCH   2   5
BRANCH   1  19
ATOM     14  C   UNL     1      -0.431   9.870  23.169  0.00  0.00    +0.000 C 
ATOM     15  C   UNL     1       0.100   9.558  21.799  0.00  0.00    +0.000 A 
ATOM     16  C   UNL     1      -0.217  10.375  20.705  0.00  0.00    +0.000 A 
ATOM     17  C   UNL     1       0.350  10.133  19.452  0.00  0.00    +0.000 A 
ATOM     18  C   UNL     1       1.248   9.079  19.294  0.00  0.00    +0.000 A 
ATOM     19  C   UNL     1       1.533   8.220  20.357  0.00  0.00    +0.000 A 
ATOM     20  C   UNL     1       0.955   8.461  21.609  0.00  0.00    +0.000 A 
BRANCH  18  21
ATOM     21  O   UNL     1       1.822   8.831  18.074  0.00  0.00    +0.000 OA
ATOM     22  H   UNL     1       2.572   9.440  17.965  0.00  0.00    +0.000 HD
ENDBRANCH  18  21
ENDBRANCH   1  19
TORSDOF 3
ENDMDL
MODEL 9
REMARK VINA RESULT:      -6.5      3.671      6.045
REMARK  Name = 
REMARK  5 active torsions:
REMARK  status: ('A' for Active; 'I' for Inactive)
REMARK    1  A    between atoms: C_1  and  C_2
REMARK    2  A    between atoms: C_5  and  O_6
REMARK    3  A    between atoms: C_7  and  N_8
REMARK    4  A    between atoms: C_9  and  C_11
REMARK    5  A    between atoms: N_15  and  C_16
REMARK                            x       y       z     vdW  Elec       q    Type
REMARK                         _______ _______ _______ _____ _____    ______ ____
ROOT
ATOM      1  N   UNL     1       2.392   7.305  19.803  0.00  0.00    +0.000 N 
ATOM      2  C   UNL     1       2.188   5.960  20.085  0.00  0.00    +0.000 C 
ATOM      3  O   UNL     1       1.188   5.529  20.656  0.00  0.00    +0.000 OA
ATOM      4  H   UNL     1       3.013   7.495  19.023  0.00  0.00    +0.000 HD
ENDROOT
BRANCH   2   5
ATOM      5  C   UNL     1       3.266   5.071  19.601  0.00  0.00    +0.000 A 
ATOM      6  N   UNL     1       3.395   3.760  20.019  0.00  0.00    +0.000 NA
ATOM      7  C   UNL     1       4.515   3.358  19.482  0.00  0.00    +0.000 A 
ATOM      8  N   UNL     1       5.084   2.153  19.641  0.00  0.00    +0.000 N 
ATOM      9  N   UNL     1       5.048   4.388  18.750  0.00  0.00    +0.000 N 
ATOM     10  C   UNL     1       6.335   4.465  18.112  0.00  0.00    +0.000 C 
ATOM     11  N   UNL     1       4.237   5.471  18.755  0.00  0.00    +0.000 NA
ATOM     12  H   UNL     1       4.495   1.443  20.071  0.00  0.00    +0.000 HD
ATOM     13  H   UNL     1       5.765   1.776  18.994  0.00  0.00    +0.000 HD
ENDBRANCH   2   5
BRANCH   1  19
ATOM     14  C   UNL     1      -0.266   9.726  23.238  0.00  0.00    +0.000 C 
ATOM     15  C   UNL     1       0.155   9.523  21.811  0.00  0.00    +0.000 A 
ATOM     16  C   UNL     1      -0.271  10.402  20.806  0.00  0.00    +0.000 A 
ATOM     17  C   UNL     1       0.194  10.262  19.497  0.00  0.00    +0.000 A 
ATOM     18  C   UNL     1       1.099   9.248  19.193  0.00  0.00    +0.000 A 
ATOM     19  C   UNL     1       1.492   8.328  20.166  0.00  0.00    +0.000 A 
ATOM     20  C   UNL     1       1.016   8.466  21.475  0.00  0.00    +0.000 A 
BRANCH  18  21
ATOM     21  O   UNL     1       1.574   9.099  17.915  0.00  0.00    +0.000 OA
ATOM     22  H   UNL     1       2.539   8.990  17.963  0.00  0.00    +0.000 HD
ENDBRANCH  18  21
ENDBRANCH   1  19
TORSDOF 3
ENDMDL
