MODEL 1
REMARK VINA RESULT:      -7.5      0.000      0.000
REMARK  Name = 
REMARK  11 active torsions:
REMARK  status: ('A' for Active; 'I' for Inactive)
REMARK    1  A    between atoms: C_1  and  C_2
REMARK    2  A    between atoms: C_2  and  C_3
REMARK    3  A    between atoms: C_3  and  C_4
REMARK    4  A    between atoms: C_4  and  N_5
REMARK    5  A    between atoms: C_7  and  C_8
REMARK    6  A    between atoms: N_10  and  C_11
REMARK    7  A    between atoms: C_11  and  C_12
REMARK    8  A    between atoms: C_21  and  N_22
REMARK    9  A    between atoms: N_22  and  C_23
REMARK   10  A    between atoms: N_22  and  C_24
REMARK   11  A    between atoms: C_26  and  N_27
REMARK                            x       y       z     vdW  Elec       q    Type
REMARK                         _______ _______ _______ _____ _____    ______ ____
ROOT
ATOM      1  N   UNL     1      -2.076  10.029  17.591  0.00  0.00    +0.000 N 
ATOM      2  C   UNL     1      -0.754   9.634  17.444  0.00  0.00    +0.000 A 
ATOM      3  C   UNL     1       0.231   9.835  18.324  0.00  0.00    +0.000 A 
ATOM      4  C   UNL     1      -0.168  10.493  19.589  0.00  0.00    +0.000 A 
ATOM      5  O   UNL     1       0.480  10.277  20.608  0.00  0.00    +0.000 OA
ATOM      6  C   UNL     1      -1.397  11.349  19.573  0.00  0.00    +0.000 A 
ATOM      7  C   UNL     1      -1.614  12.422  20.483  0.00  0.00    +0.000 A 
ATOM      8  C   UNL     1      -2.923  12.970  20.467  0.00  0.00    +0.000 A 
ATOM      9  C   UNL     1      -3.978  12.515  19.664  0.00  0.00    +0.000 A 
ATOM     10  C   UNL     1      -3.674  11.506  18.755  0.00  0.00    +0.000 A 
ATOM     11  C   UNL     1      -2.394  10.945  18.634  0.00  0.00    +0.000 A 
ENDROOT
BRANCH   9  12
ATOM     12  N   UNL     1      -5.247  13.043  19.739  0.00  0.00    +0.000 N 
ATOM     13  C   UNL     1      -5.604  14.191  20.584  0.00  0.00    +0.000 C 
ATOM     14  C   UNL     1      -6.804  13.824  21.470  0.00  0.00    +0.000 C 
ATOM     15  O   UNL     1      -7.916  13.355  20.685  0.00  0.00    +0.000 OA
ATOM     16  C   UNL     1      -7.538  12.194  19.927  0.00  0.00    +0.000 C 
ATOM     17  C   UNL     1      -6.375  12.497  18.968  0.00  0.00    +0.000 C 
ENDBRANCH   9  12
BRANCH   3  18
ATOM     18  C   UNL     1       1.599   9.337  18.019  0.00  0.00    +0.000 C 
ATOM     19  O   UNL     1       2.409  10.015  17.392  0.00  0.00    +0.000 OA
ATOM     20  N   UNL     1       1.894   8.088  18.504  0.00  0.00    +0.000 N 
ATOM     21  H   UNL     1       1.167   7.562  18.988  0.00  0.00    +0.000 HD
BRANCH  20  22
ATOM     22  C   UNL     1       3.187   7.471  18.313  0.00  0.00    +0.000 C 
BRANCH  22  23
ATOM     23  C   UNL     1       3.060   6.015  17.947  0.00  0.00    +0.000 A 
ATOM     24  C   UNL     1       1.887   5.309  18.257  0.00  0.00    +0.000 A 
ATOM     25  C   UNL     1       1.752   3.966  17.901  0.00  0.00    +0.000 A 
ATOM     26  C   UNL     1       2.785   3.314  17.230  0.00  0.00    +0.000 A 
ATOM     27  C   UNL     1       3.957   4.004  16.914  0.00  0.00    +0.000 A 
ATOM     28  C   UNL     1       4.091   5.348  17.270  0.00  0.00    +0.000 A 
ENDBRANCH  22  23
ENDBRANCH  20  22
ENDBRANCH   3  18
BRANCH   7  29
ATOM     29  N   UNL     1      -0.665  13.040  21.302  0.00  0.00    +0.000 N 
ATOM     30  C   UNL     1      -0.679  12.874  22.757  0.00  0.00    +0.000 C 
ATOM     31  C   UNL     1       0.555  13.664  20.797  0.00  0.00    +0.000 C 
ENDBRANCH   7  29
BRANCH   1  32
ATOM     32  C   UNL     1      -3.065   9.750  16.526  0.00  0.00    +0.000 C 
BRANCH  32  33
ATOM     33  C   UNL     1      -2.901  10.711  15.340  0.00  0.00    +0.000 C 
BRANCH  33  35
ATOM     34  C   UNL     1      -2.833   9.476  13.145  0.00  0.00    +0.000 C 
ATOM     35  C   UNL     1      -3.704  10.252  14.122  0.00  0.00    +0.000 C 
ENDBRANCH  33  35
ENDBRANCH  32  33
ENDBRANCH   1  32
TORSDOF 8
ENDMDL
MODEL 2
REMARK VINA RESULT:      -7.3      0.750      1.297
REMARK  Name = 
REMARK  11 active torsions:
REMARK  status: ('A' for Active; 'I' for Inactive)
REMARK    1  A    between atoms: C_1  and  C_2
REMARK    2  A    between atoms: C_2  and  C_3
REMARK    3  A    between atoms: C_3  and  C_4
REMARK    4  A    between atoms: C_4  and  N_5
REMARK    5  A    between atoms: C_7  and  C_8
REMARK    6  A    between atoms: N_10  and  C_11
REMARK    7  A    between atoms: C_11  and  C_12
REMARK    8  A    between atoms: C_21  and  N_22
REMARK    9  A    between atoms: N_22  and  C_23
REMARK   10  A    between atoms: N_22  and  C_24
REMARK   11  A    between atoms: C_26  and  N_27
REMARK                            x       y       z     vdW  Elec       q    Type
REMARK                         _______ _______ _______ _____ _____    ______ ____
ROOT
ATOM      1  N   UNL     1      -2.166  10.331  18.001  0.00  0.00    +0.000 N 
ATOM      2  C   UNL     1      -0.830  10.024  17.788  0.00  0.00    +0.000 A 
ATOM      3  C   UNL     1       0.191  10.357  18.583  0.00  0.00    +0.000 A 
ATOM      4  C   UNL     1      -0.176  11.073  19.827  0.00  0.00    +0.000 A 
ATOM      5  O   UNL     1       0.550  10.977  20.811  0.00  0.00    +0.000 OA
ATOM      6  C   UNL     1      -1.466  11.834  19.840  0.00  0.00    +0.000 A 
ATOM      7  C   UNL     1      -1.706  12.949  20.690  0.00  0.00    +0.000 A 
ATOM      8  C   UNL     1      -3.051  13.399  20.729  0.00  0.00    +0.000 A 
ATOM      9  C   UNL     1      -4.117  12.813  20.032  0.00  0.00    +0.000 A 
ATOM     10  C   UNL     1      -3.795  11.767  19.173  0.00  0.00    +0.000 A 
ATOM     11  C   UNL     1      -2.486  11.293  19.001  0.00  0.00    +0.000 A 
ENDROOT
BRANCH   9  12
ATOM     12  N   UNL     1      -5.416  13.252  20.160  0.00  0.00    +0.000 N 
ATOM     13  C   UNL     1      -5.816  14.662  20.048  0.00  0.00    +0.000 C 
ATOM     14  C   UNL     1      -6.633  15.064  21.285  0.00  0.00    +0.000 C 
ATOM     15  O   UNL     1      -7.760  14.190  21.481  0.00  0.00    +0.000 OA
ATOM     16  C   UNL     1      -7.316  12.833  21.650  0.00  0.00    +0.000 C 
ATOM     17  C   UNL     1      -6.536  12.334  20.423  0.00  0.00    +0.000 C 
ENDBRANCH   9  12
BRANCH   3  18
ATOM     18  C   UNL     1       1.571   9.939  18.217  0.00  0.00    +0.000 C 
ATOM     19  O   UNL     1       2.443  10.760  17.944  0.00  0.00    +0.000 OA
ATOM     20  N   UNL     1       1.801   8.587  18.231  0.00  0.00    +0.000 N 
ATOM     21  H   UNL     1       1.026   7.956  18.434  0.00  0.00    +0.000 HD
BRANCH  20  22
ATOM     22  C   UNL     1       3.094   8.021  17.921  0.00  0.00    +0.000 C 
BRANCH  22  23
ATOM     23  C   UNL     1       3.025   6.523  17.775  0.00  0.00    +0.000 A 
ATOM     24  C   UNL     1       4.116   5.814  17.249  0.00  0.00    +0.000 A 
ATOM     25  C   UNL     1       4.070   4.424  17.132  0.00  0.00    +0.000 A 
ATOM     26  C   UNL     1       2.935   3.726  17.542  0.00  0.00    +0.000 A 
ATOM     27  C   UNL     1       1.843   4.418  18.069  0.00  0.00    +0.000 A 
ATOM     28  C   UNL     1       1.890   5.809  18.186  0.00  0.00    +0.000 A 
ENDBRANCH  22  23
ENDBRANCH  20  22
ENDBRANCH   3  18
BRANCH   7  29
ATOM     29  N   UNL     1      -0.757  13.691  21.400  0.00  0.00    +0.000 N 
ATOM     30  C   UNL     1       0.103  14.675  20.738  0.00  0.00    +0.000 C 
ATOM     31  C   UNL     1      -0.714  13.766  22.857  0.00  0.00    +0.000 C 
ENDBRANCH   7  29
BRANCH   1  32
ATOM     32  C   UNL     1      -3.197   9.907  17.027  0.00  0.00    +0.000 C 
BRANCH  32  33
ATOM     33  C   UNL     1      -3.175  10.782  15.765  0.00  0.00    +0.000 C 
BRANCH  33  35
ATOM     34  C   UNL     1      -3.956   9.941  13.523  0.00  0.00    +0.000 C 
ATOM     35  C   UNL     1      -2.807   9.975  14.520  0.00  0.00    +0.000 C 
ENDBRANCH  33  35
ENDBRANCH  32  33
ENDBRANCH   1  32
TORSDOF 8
ENDMDL
MODEL 3
REMARK VINA RESULT:      -7.2      1.003      1.518
REMARK  Name = 
REMARK  11 active torsions:
REMARK  status: ('A' for Active; 'I' for Inactive)
REMARK    1  A    between atoms: C_1  and  C_2
REMARK    2  A    between atoms: C_2  and  C_3
REMARK    3  A    between atoms: C_3  and  C_4
REMARK    4  A    between atoms: C_4  and  N_5
REMARK    5  A    between atoms: C_7  and  C_8
REMARK    6  A    between atoms: N_10  and  C_11
REMARK    7  A    between atoms: C_11  and  C_12
REMARK    8  A    between atoms: C_21  and  N_22
REMARK    9  A    between atoms: N_22  and  C_23
REMARK   10  A    between atoms: N_22  and  C_24
REMARK   11  A    between atoms: C_26  and  N_27
REMARK                            x       y       z     vdW  Elec       q    Type
REMARK                         _______ _______ _______ _____ _____    ______ ____
ROOT
ATOM      1  N   UNL     1      -1.936  10.202  18.317  0.00  0.00    +0.000 N 
ATOM      2  C   UNL     1      -0.641   9.847  17.969  0.00  0.00    +0.000 A 
ATOM      3  C   UNL     1       0.480  10.287  18.549  0.00  0.00    +0.000 A 
ATOM      4  C   UNL     1       0.287  11.195  19.703  0.00  0.00    +0.000 A 
ATOM      5  O   UNL     1       1.146  11.246  20.577  0.00  0.00    +0.000 OA
ATOM      6  C   UNL     1      -0.995  11.967  19.778  0.00  0.00    +0.000 A 
ATOM      7  C   UNL     1      -1.122  13.206  20.466  0.00  0.00    +0.000 A 
ATOM      8  C   UNL     1      -2.452  13.674  20.622  0.00  0.00    +0.000 A 
ATOM      9  C   UNL     1      -3.601  13.001  20.186  0.00  0.00    +0.000 A 
ATOM     10  C   UNL     1      -3.395  11.828  19.466  0.00  0.00    +0.000 A 
ATOM     11  C   UNL     1      -2.119  11.314  19.188  0.00  0.00    +0.000 A 
ENDROOT
BRANCH   9  12
ATOM     12  N   UNL     1      -4.872  13.472  20.425  0.00  0.00    +0.000 N 
ATOM     13  C   UNL     1      -6.036  12.602  20.643  0.00  0.00    +0.000 C 
ATOM     14  C   UNL     1      -7.166  13.005  19.683  0.00  0.00    +0.000 C 
ATOM     15  O   UNL     1      -7.494  14.401  19.809  0.00  0.00    +0.000 OA
ATOM     16  C   UNL     1      -6.343  15.213  19.524  0.00  0.00    +0.000 C 
ATOM     17  C   UNL     1      -5.182  14.909  20.485  0.00  0.00    +0.000 C 
ENDBRANCH   9  12
BRANCH   3  18
ATOM     18  C   UNL     1       1.798   9.798  18.062  0.00  0.00    +0.000 C 
ATOM     19  O   UNL     1       2.617  10.553  17.546  0.00  0.00    +0.000 OA
ATOM     20  N   UNL     1       2.037   8.460  18.252  0.00  0.00    +0.000 N 
ATOM     21  H   UNL     1       1.303   7.880  18.656  0.00  0.00    +0.000 HD
BRANCH  20  22
ATOM     22  C   UNL     1       3.278   7.834  17.855  0.00  0.00    +0.000 C 
BRANCH  22  23
ATOM     23  C   UNL     1       3.130   6.340  17.726  0.00  0.00    +0.000 A 
ATOM     24  C   UNL     1       1.930   5.714  18.095  0.00  0.00    +0.000 A 
ATOM     25  C   UNL     1       1.776   4.334  17.956  0.00  0.00    +0.000 A 
ATOM     26  C   UNL     1       2.819   3.563  17.445  0.00  0.00    +0.000 A 
ATOM     27  C   UNL     1       4.019   4.172  17.072  0.00  0.00    +0.000 A 
ATOM     28  C   UNL     1       4.171   5.554  17.211  0.00  0.00    +0.000 A 
ENDBRANCH  22  23
ENDBRANCH  20  22
ENDBRANCH   3  18
BRANCH   7  29
ATOM     29  N   UNL     1      -0.088  14.037  20.907  0.00  0.00    +0.000 N 
ATOM     30  C   UNL     1       0.727  14.816  19.972  0.00  0.00    +0.000 C 
ATOM     31  C   UNL     1       0.102  14.419  22.304  0.00  0.00    +0.000 C 
ENDBRANCH   7  29
BRANCH   1  32
ATOM     32  C   UNL     1      -3.091   9.644  17.579  0.00  0.00    +0.000 C 
BRANCH  32  33
ATOM     33  C   UNL     1      -2.837   9.627  16.065  0.00  0.00    +0.000 C 
BRANCH  33  35
ATOM     34  C   UNL     1      -4.496  11.515  16.228  0.00  0.00    +0.000 C 
ATOM     35  C   UNL     1      -3.415  10.864  15.378  0.00  0.00    +0.000 C 
ENDBRANCH  33  35
ENDBRANCH  32  33
ENDBRANCH   1  32
TORSDOF 8
ENDMDL
MODEL 4
REMARK VINA RESULT:      -7.1      1.111      1.636
REMARK  Name = 
REMARK  11 active torsions:
REMARK  status: ('A' for Active; 'I' for Inactive)
REMARK    1  A    between atoms: C_1  and  C_2
REMARK    2  A    between atoms: C_2  and  C_3
REMARK    3  A    between atoms: C_3  and  C_4
REMARK    4  A    between atoms: C_4  and  N_5
REMARK    5  A    between atoms: C_7  and  C_8
REMARK    6  A    between atoms: N_10  and  C_11
REMARK    7  A    between atoms: C_11  and  C_12
REMARK    8  A    between atoms: C_21  and  N_22
REMARK    9  A    between atoms: N_22  and  C_23
REMARK   10  A    between atoms: N_22  and  C_24
REMARK   11  A    between atoms: C_26  and  N_27
REMARK                            x       y       z     vdW  Elec       q    Type
REMARK                         _______ _______ _______ _____ _____    ______ ____
ROOT
ATOM      1  N   UNL     1      -2.414  10.609  17.761  0.00  0.00    +0.000 N 
ATOM      2  C   UNL     1      -1.135  10.092  17.617  0.00  0.00    +0.000 A 
ATOM      3  C   UNL     1      -0.165  10.121  18.536  0.00  0.00    +0.000 A 
ATOM      4  C   UNL     1      -0.538  10.720  19.839  0.00  0.00    +0.000 A 
ATOM      5  O   UNL     1       0.049  10.361  20.854  0.00  0.00    +0.000 OA
ATOM      6  C   UNL     1      -1.673  11.697  19.858  0.00  0.00    +0.000 A 
ATOM      7  C   UNL     1      -1.811  12.714  20.844  0.00  0.00    +0.000 A 
ATOM      8  C   UNL     1      -3.056  13.395  20.837  0.00  0.00    +0.000 A 
ATOM      9  C   UNL     1      -4.123  13.114  19.974  0.00  0.00    +0.000 A 
ATOM     10  C   UNL     1      -3.893  12.151  18.996  0.00  0.00    +0.000 A 
ATOM     11  C   UNL     1      -2.673  11.471  18.865  0.00  0.00    +0.000 A 
ENDROOT
BRANCH   9  12
ATOM     12  N   UNL     1      -5.335  13.764  20.057  0.00  0.00    +0.000 N 
ATOM     13  C   UNL     1      -6.515  13.392  19.264  0.00  0.00    +0.000 C 
ATOM     14  C   UNL     1      -7.054  14.632  18.534  0.00  0.00    +0.000 C 
ATOM     15  O   UNL     1      -7.326  15.709  19.449  0.00  0.00    +0.000 OA
ATOM     16  C   UNL     1      -6.129  16.080  20.153  0.00  0.00    +0.000 C 
ATOM     17  C   UNL     1      -5.558  14.903  20.961  0.00  0.00    +0.000 C 
ENDBRANCH   9  12
BRANCH   3  18
ATOM     18  C   UNL     1       1.155   9.509  18.228  0.00  0.00    +0.000 C 
ATOM     19  O   UNL     1       1.967  10.061  17.490  0.00  0.00    +0.000 OA
ATOM     20  N   UNL     1       1.405   8.308  18.841  0.00  0.00    +0.000 N 
ATOM     21  H   UNL     1       0.677   7.886  19.416  0.00  0.00    +0.000 HD
BRANCH  20  22
ATOM     22  C   UNL     1       2.650   7.594  18.664  0.00  0.00    +0.000 C 
BRANCH  22  23
ATOM     23  C   UNL     1       2.490   6.121  18.935  0.00  0.00    +0.000 A 
ATOM     24  C   UNL     1       2.084   5.676  20.202  0.00  0.00    +0.000 A 
ATOM     25  C   UNL     1       1.911   4.314  20.455  0.00  0.00    +0.000 A 
ATOM     26  C   UNL     1       2.139   3.382  19.444  0.00  0.00    +0.000 A 
ATOM     27  C   UNL     1       2.543   3.810  18.178  0.00  0.00    +0.000 A 
ATOM     28  C   UNL     1       2.715   5.173  17.926  0.00  0.00    +0.000 A 
ENDBRANCH  22  23
ENDBRANCH  20  22
ENDBRANCH   3  18
BRANCH   7  29
ATOM     29  N   UNL     1      -0.832  13.167  21.735  0.00  0.00    +0.000 N 
ATOM     30  C   UNL     1       0.379  13.843  21.268  0.00  0.00    +0.000 C 
ATOM     31  C   UNL     1      -1.034  13.260  23.178  0.00  0.00    +0.000 C 
ENDBRANCH   7  29
BRANCH   1  32
ATOM     32  C   UNL     1      -3.389  10.516  16.651  0.00  0.00    +0.000 C 
BRANCH  32  33
ATOM     33  C   UNL     1      -2.742   9.956  15.377  0.00  0.00    +0.000 C 
BRANCH  33  35
ATOM     34  C   UNL     1      -2.981   9.624  12.891  0.00  0.00    +0.000 C 
ATOM     35  C   UNL     1      -3.678  10.059  14.172  0.00  0.00    +0.000 C 
ENDBRANCH  33  35
ENDBRANCH  32  33
ENDBRANCH   1  32
TORSDOF 8
ENDMDL
MODEL 5
REMARK VINA RESULT:      -7.1      2.024      2.788
REMARK  Name = 
REMARK  11 active torsions:
REMARK  status: ('A' for Active; 'I' for Inactive)
REMARK    1  A    between atoms: C_1  and  C_2
REMARK    2  A    between atoms: C_2  and  C_3
REMARK    3  A    between atoms: C_3  and  C_4
REMARK    4  A    between atoms: C_4  and  N_5
REMARK    5  A    between atoms: C_7  and  C_8
REMARK    6  A    between atoms: N_10  and  C_11
REMARK    7  A    between atoms: C_11  and  C_12
REMARK    8  A    between atoms: C_21  and  N_22
REMARK    9  A    between atoms: N_22  and  C_23
REMARK   10  A    between atoms: N_22  and  C_24
REMARK   11  A    between atoms: C_26  and  N_27
REMARK                            x       y       z     vdW  Elec       q    Type
REMARK                         _______ _______ _______ _____ _____    ______ ____
ROOT
ATOM      1  N   UNL     1      -1.775  11.102  18.982  0.00  0.00    +0.000 N 
ATOM      2  C   UNL     1      -0.742  10.260  18.601  0.00  0.00    +0.000 A 
ATOM      3  C   UNL     1       0.521  10.314  19.037  0.00  0.00    +0.000 A 
ATOM      4  C   UNL     1       0.797  11.347  20.062  0.00  0.00    +0.000 A 
ATOM      5  O   UNL     1       1.712  11.170  20.860  0.00  0.00    +0.000 OA
ATOM      6  C   UNL     1      -0.107  12.540  20.113  0.00  0.00    +0.000 A 
ATOM      7  C   UNL     1       0.296  13.804  20.628  0.00  0.00    +0.000 A 
ATOM      8  C   UNL     1      -0.752  14.744  20.806  0.00  0.00    +0.000 A 
ATOM      9  C   UNL     1      -2.107  14.499  20.546  0.00  0.00    +0.000 A 
ATOM     10  C   UNL     1      -2.417  13.263  19.986  0.00  0.00    +0.000 A 
ATOM     11  C   UNL     1      -1.449  12.289  19.698  0.00  0.00    +0.000 A 
ENDROOT
BRANCH   9  12
ATOM     12  N   UNL     1      -3.091  15.428  20.801  0.00  0.00    +0.000 N 
ATOM     13  C   UNL     1      -2.874  16.881  20.746  0.00  0.00    +0.000 C 
ATOM     14  C   UNL     1      -3.348  17.521  22.060  0.00  0.00    +0.000 C 
ATOM     15  O   UNL     1      -4.717  17.182  22.350  0.00  0.00    +0.000 OA
ATOM     16  C   UNL     1      -4.866  15.757  22.458  0.00  0.00    +0.000 C 
ATOM     17  C   UNL     1      -4.466  15.044  21.156  0.00  0.00    +0.000 C 
ENDBRANCH   9  12
BRANCH   3  18
ATOM     18  C   UNL     1       1.513   9.325  18.537  0.00  0.00    +0.000 C 
ATOM     19  O   UNL     1       2.064   9.457  17.447  0.00  0.00    +0.000 OA
ATOM     20  N   UNL     1       1.780   8.279  19.383  0.00  0.00    +0.000 N 
ATOM     21  H   UNL     1       1.265   8.209  20.259  0.00  0.00    +0.000 HD
BRANCH  20  22
ATOM     22  C   UNL     1       2.736   7.246  19.055  0.00  0.00    +0.000 C 
BRANCH  22  23
ATOM     23  C   UNL     1       2.139   5.870  19.199  0.00  0.00    +0.000 A 
ATOM     24  C   UNL     1       2.014   5.033  18.079  0.00  0.00    +0.000 A 
ATOM     25  C   UNL     1       1.485   3.749  18.207  0.00  0.00    +0.000 A 
ATOM     26  C   UNL     1       1.076   3.284  19.456  0.00  0.00    +0.000 A 
ATOM     27  C   UNL     1       1.194   4.104  20.579  0.00  0.00    +0.000 A 
ATOM     28  C   UNL     1       1.726   5.390  20.450  0.00  0.00    +0.000 A 
ENDBRANCH  22  23
ENDBRANCH  20  22
ENDBRANCH   3  18
BRANCH   7  29
ATOM     29  N   UNL     1       1.601  14.238  20.877  0.00  0.00    +0.000 N 
ATOM     30  C   UNL     1       2.630  14.223  19.836  0.00  0.00    +0.000 C 
ATOM     31  C   UNL     1       1.991  14.982  22.072  0.00  0.00    +0.000 C 
ENDBRANCH   7  29
BRANCH   1  32
ATOM     32  C   UNL     1      -3.130  10.934  18.408  0.00  0.00    +0.000 C 
BRANCH  32  33
ATOM     33  C   UNL     1      -3.098  10.085  17.129  0.00  0.00    +0.000 C 
BRANCH  33  35
ATOM     34  C   UNL     1      -3.141  10.140  14.611  0.00  0.00    +0.000 C 
ATOM     35  C   UNL     1      -3.428  10.915  15.888  0.00  0.00    +0.000 C 
ENDBRANCH  33  35
ENDBRANCH  32  33
ENDBRANCH   1  32
TORSDOF 8
ENDMDL
MODEL 6
REMARK VINA RESULT:      -7.0      1.049      1.345
REMARK  Name = 
REMARK  11 active torsions:
REMARK  status: ('A' for Active; 'I' for Inactive)
REMARK    1  A    between atoms: C_1  and  C_2
REMARK    2  A    between atoms: C_2  and  C_3
REMARK    3  A    between atoms: C_3  and  C_4
REMARK    4  A    between atoms: C_4  and  N_5
REMARK    5  A    between atoms: C_7  and  C_8
REMARK    6  A    between atoms: N_10  and  C_11
REMARK    7  A    between atoms: C_11  and  C_12
REMARK    8  A    between atoms: C_21  and  N_22
REMARK    9  A    between atoms: N_22  and  C_23
REMARK   10  A    between atoms: N_22  and  C_24
REMARK   11  A    between atoms: C_26  and  N_27
REMARK                            x       y       z     vdW  Elec       q    Type
REMARK                         _______ _______ _______ _____ _____    ______ ____
ROOT
ATOM      1  N   UNL     1      -1.963  10.145  18.197  0.00  0.00    +0.000 N 
ATOM      2  C   UNL     1      -0.671   9.770  17.861  0.00  0.00    +0.000 A 
ATOM      3  C   UNL     1       0.449  10.168  18.471  0.00  0.00    +0.000 A 
ATOM      4  C   UNL     1       0.256  11.048  19.647  0.00  0.00    +0.000 A 
ATOM      5  O   UNL     1       1.101  11.055  20.537  0.00  0.00    +0.000 OA
ATOM      6  C   UNL     1      -1.009  11.846  19.722  0.00  0.00    +0.000 A 
ATOM      7  C   UNL     1      -1.121  13.068  20.443  0.00  0.00    +0.000 A 
ATOM      8  C   UNL     1      -2.443  13.562  20.590  0.00  0.00    +0.000 A 
ATOM      9  C   UNL     1      -3.598  12.928  20.115  0.00  0.00    +0.000 A 
ATOM     10  C   UNL     1      -3.406  11.771  19.366  0.00  0.00    +0.000 A 
ATOM     11  C   UNL     1      -2.137  11.236  19.095  0.00  0.00    +0.000 A 
ENDROOT
BRANCH   9  12
ATOM     12  N   UNL     1      -4.863  13.421  20.345  0.00  0.00    +0.000 N 
ATOM     13  C   UNL     1      -5.132  14.783  20.827  0.00  0.00    +0.000 C 
ATOM     14  C   UNL     1      -6.033  14.721  22.069  0.00  0.00    +0.000 C 
ATOM     15  O   UNL     1      -7.242  13.984  21.808  0.00  0.00    +0.000 OA
ATOM     16  C   UNL     1      -6.930  12.640  21.404  0.00  0.00    +0.000 C 
ATOM     17  C   UNL     1      -6.075  12.616  20.127  0.00  0.00    +0.000 C 
ENDBRANCH   9  12
BRANCH   3  18
ATOM     18  C   UNL     1       1.764   9.663  17.994  0.00  0.00    +0.000 C 
ATOM     19  O   UNL     1       2.586  10.404  17.463  0.00  0.00    +0.000 OA
ATOM     20  N   UNL     1       1.996   8.328  18.209  0.00  0.00    +0.000 N 
ATOM     21  H   UNL     1       1.259   7.759  18.625  0.00  0.00    +0.000 HD
BRANCH  20  22
ATOM     22  C   UNL     1       3.234   7.688  17.824  0.00  0.00    +0.000 C 
BRANCH  22  23
ATOM     23  C   UNL     1       3.222   6.216  18.147  0.00  0.00    +0.000 A 
ATOM     24  C   UNL     1       2.105   5.431  17.825  0.00  0.00    +0.000 A 
ATOM     25  C   UNL     1       2.095   4.063  18.099  0.00  0.00    +0.000 A 
ATOM     26  C   UNL     1       3.202   3.462  18.695  0.00  0.00    +0.000 A 
ATOM     27  C   UNL     1       4.322   4.231  19.021  0.00  0.00    +0.000 A 
ATOM     28  C   UNL     1       4.331   5.600  18.745  0.00  0.00    +0.000 A 
ENDBRANCH  22  23
ENDBRANCH  20  22
ENDBRANCH   3  18
BRANCH   7  29
ATOM     29  N   UNL     1      -0.077  13.863  20.925  0.00  0.00    +0.000 N 
ATOM     30  C   UNL     1       0.816  14.593  20.022  0.00  0.00    +0.000 C 
ATOM     31  C   UNL     1       0.058  14.259  22.324  0.00  0.00    +0.000 C 
ENDBRANCH   7  29
BRANCH   1  32
ATOM     32  C   UNL     1      -3.117   9.634  17.423  0.00  0.00    +0.000 C 
BRANCH  32  33
ATOM     33  C   UNL     1      -2.828   9.631  15.915  0.00  0.00    +0.000 C 
BRANCH  33  35
ATOM     34  C   UNL     1      -4.531  11.476  16.121  0.00  0.00    +0.000 C 
ATOM     35  C   UNL     1      -3.552  10.770  15.196  0.00  0.00    +0.000 C 
ENDBRANCH  33  35
ENDBRANCH  32  33
ENDBRANCH   1  32
TORSDOF 8
ENDMDL
MODEL 7
REMARK VINA RESULT:      -6.9      1.196      1.432
REMARK  Name = 
REMARK  11 active torsions:
REMARK  status: ('A' for Active; 'I' for Inactive)
REMARK    1  A    between atoms: C_1  and  C_2
REMARK    2  A    between atoms: C_2  and  C_3
REMARK    3  A    between atoms: C_3  and  C_4
REMARK    4  A    between atoms: C_4  and  N_5
REMARK    5  A    between atoms: C_7  and  C_8
REMARK    6  A    between atoms: N_10  and  C_11
REMARK    7  A    between atoms: C_11  and  C_12
REMARK    8  A    between atoms: C_21  and  N_22
REMARK    9  A    between atoms: N_22  and  C_23
REMARK   10  A    between atoms: N_22  and  C_24
REMARK   11  A    between atoms: C_26  and  N_27
REMARK                            x       y       z     vdW  Elec       q    Type
REMARK                         _______ _______ _______ _____ _____    ______ ____
ROOT
ATOM      1  N   UNL     1      -2.436  10.969  17.497  0.00  0.00    +0.000 N 
ATOM      2  C   UNL     1      -1.122  10.528  17.434  0.00  0.00    +0.000 A 
ATOM      3  C   UNL     1      -0.293  10.373  18.470  0.00  0.00    +0.000 A 
ATOM      4  C   UNL     1      -0.877  10.653  19.803  0.00  0.00    +0.000 A 
ATOM      5  O   UNL     1      -0.417  10.088  20.790  0.00  0.00    +0.000 OA
ATOM      6  C   UNL     1      -2.057  11.573  19.868  0.00  0.00    +0.000 A 
ATOM      7  C   UNL     1      -2.387  12.338  21.022  0.00  0.00    +0.000 A 
ATOM      8  C   UNL     1      -3.655  12.973  20.980  0.00  0.00    +0.000 A 
ATOM      9  C   UNL     1      -4.575  12.869  19.928  0.00  0.00    +0.000 A 
ATOM     10  C   UNL     1      -4.157  12.157  18.808  0.00  0.00    +0.000 A 
ATOM     11  C   UNL     1      -2.894  11.553  18.712  0.00  0.00    +0.000 A 
ENDROOT
BRANCH   9  12
ATOM     12  N   UNL     1      -5.821  13.454  19.971  0.00  0.00    +0.000 N 
ATOM     13  C   UNL     1      -6.156  14.710  19.286  0.00  0.00    +0.000 C 
ATOM     14  C   UNL     1      -6.781  15.692  20.289  0.00  0.00    +0.000 C 
ATOM     15  O   UNL     1      -7.917  15.113  20.958  0.00  0.00    +0.000 OA
ATOM     16  C   UNL     1      -7.526  13.925  21.666  0.00  0.00    +0.000 C 
ATOM     17  C   UNL     1      -6.943  12.865  20.719  0.00  0.00    +0.000 C 
ENDBRANCH   9  12
BRANCH   3  18
ATOM     18  C   UNL     1       1.090   9.877  18.235  0.00  0.00    +0.000 C 
ATOM     19  O   UNL     1       2.010  10.640  17.951  0.00  0.00    +0.000 OA
ATOM     20  N   UNL     1       1.264   8.524  18.379  0.00  0.00    +0.000 N 
ATOM     21  H   UNL     1       0.453   7.941  18.584  0.00  0.00    +0.000 HD
BRANCH  20  22
ATOM     22  C   UNL     1       2.550   7.889  18.207  0.00  0.00    +0.000 C 
BRANCH  22  23
ATOM     23  C   UNL     1       2.552   6.481  18.744  0.00  0.00    +0.000 A 
ATOM     24  C   UNL     1       2.249   6.239  20.093  0.00  0.00    +0.000 A 
ATOM     25  C   UNL     1       2.225   4.937  20.593  0.00  0.00    +0.000 A 
ATOM     26  C   UNL     1       2.500   3.860  19.751  0.00  0.00    +0.000 A 
ATOM     27  C   UNL     1       2.802   4.085  18.406  0.00  0.00    +0.000 A 
ATOM     28  C   UNL     1       2.825   5.390  17.906  0.00  0.00    +0.000 A 
ENDBRANCH  22  23
ENDBRANCH  20  22
ENDBRANCH   3  18
BRANCH   7  29
ATOM     29  N   UNL     1      -1.569  12.601  22.125  0.00  0.00    +0.000 N 
ATOM     30  C   UNL     1      -1.659  11.813  23.355  0.00  0.00    +0.000 C 
ATOM     31  C   UNL     1      -0.397  13.470  22.072  0.00  0.00    +0.000 C 
ENDBRANCH   7  29
BRANCH   1  32
ATOM     32  C   UNL     1      -3.241  11.106  16.262  0.00  0.00    +0.000 C 
BRANCH  32  33
ATOM     33  C   UNL     1      -3.294   9.789  15.475  0.00  0.00    +0.000 C 
BRANCH  33  35
ATOM     34  C   UNL     1      -4.214   9.852  13.131  0.00  0.00    +0.000 C 
ATOM     35  C   UNL     1      -2.971   9.998  13.995  0.00  0.00    +0.000 C 
ENDBRANCH  33  35
ENDBRANCH  32  33
ENDBRANCH   1  32
TORSDOF 8
ENDMDL
MODEL 8
REMARK VINA RESULT:      -6.9      2.074      4.779
REMARK  Name = 
REMARK  11 active torsions:
REMARK  status: ('A' for Active; 'I' for Inactive)
REMARK    1  A    between atoms: C_1  and  C_2
REMARK    2  A    between atoms: C_2  and  C_3
REMARK    3  A    between atoms: C_3  and  C_4
REMARK    4  A    between atoms: C_4  and  N_5
REMARK    5  A    between atoms: C_7  and  C_8
REMARK    6  A    between atoms: N_10  and  C_11
REMARK    7  A    between atoms: C_11  and  C_12
REMARK    8  A    between atoms: C_21  and  N_22
REMARK    9  A    between atoms: N_22  and  C_23
REMARK   10  A    between atoms: N_22  and  C_24
REMARK   11  A    between atoms: C_26  and  N_27
REMARK                            x       y       z     vdW  Elec       q    Type
REMARK                         _______ _______ _______ _____ _____    ______ ____
ROOT
ATOM      1  N   UNL     1      -1.333  13.020  21.500  0.00  0.00    +0.000 N 
ATOM      2  C   UNL     1      -0.233  12.504  20.832  0.00  0.00    +0.000 A 
ATOM      3  C   UNL     1      -0.211  12.067  19.570  0.00  0.00    +0.000 A 
ATOM      4  C   UNL     1      -1.482  12.211  18.823  0.00  0.00    +0.000 A 
ATOM      5  O   UNL     1      -1.451  12.326  17.602  0.00  0.00    +0.000 OA
ATOM      6  C   UNL     1      -2.753  12.275  19.613  0.00  0.00    +0.000 A 
ATOM      7  C   UNL     1      -4.019  11.889  19.090  0.00  0.00    +0.000 A 
ATOM      8  C   UNL     1      -5.134  12.229  19.898  0.00  0.00    +0.000 A 
ATOM      9  C   UNL     1      -5.067  12.922  21.115  0.00  0.00    +0.000 A 
ATOM     10  C   UNL     1      -3.792  13.210  21.593  0.00  0.00    +0.000 A 
ATOM     11  C   UNL     1      -2.619  12.852  20.912  0.00  0.00    +0.000 A 
ENDROOT
BRANCH   9  12
ATOM     12  N   UNL     1      -6.190  13.284  21.825  0.00  0.00    +0.000 N 
ATOM     13  C   UNL     1      -6.428  14.641  22.336  0.00  0.00    +0.000 C 
ATOM     14  C   UNL     1      -6.743  14.576  23.838  0.00  0.00    +0.000 C 
ATOM     15  O   UNL     1      -7.842  13.687  24.110  0.00  0.00    +0.000 OA
ATOM     16  C   UNL     1      -7.537  12.360  23.651  0.00  0.00    +0.000 C 
ATOM     17  C   UNL     1      -7.266  12.331  22.138  0.00  0.00    +0.000 C 
ENDBRANCH   9  12
BRANCH   3  18
ATOM     18  C   UNL     1       1.060  11.551  18.994  0.00  0.00    +0.000 C 
ATOM     19  O   UNL     1       2.099  12.204  19.034  0.00  0.00    +0.000 OA
ATOM     20  N   UNL     1       0.991  10.297  18.441  0.00  0.00    +0.000 N 
ATOM     21  H   UNL     1       0.090   9.821  18.409  0.00  0.00    +0.000 HD
BRANCH  20  22
ATOM     22  C   UNL     1       2.142   9.645  17.860  0.00  0.00    +0.000 C 
BRANCH  22  23
ATOM     23  C   UNL     1       2.315   8.245  18.391  0.00  0.00    +0.000 A 
ATOM     24  C   UNL     1       2.903   7.254  17.590  0.00  0.00    +0.000 A 
ATOM     25  C   UNL     1       3.089   5.962  18.082  0.00  0.00    +0.000 A 
ATOM     26  C   UNL     1       2.692   5.644  19.380  0.00  0.00    +0.000 A 
ATOM     27  C   UNL     1       2.107   6.621  20.189  0.00  0.00    +0.000 A 
ATOM     28  C   UNL     1       1.922   7.915  19.696  0.00  0.00    +0.000 A 
ENDBRANCH  22  23
ENDBRANCH  20  22
ENDBRANCH   3  18
BRANCH   7  29
ATOM     29  N   UNL     1      -4.263  11.140  17.935  0.00  0.00    +0.000 N 
ATOM     30  C   UNL     1      -4.794  11.755  16.716  0.00  0.00    +0.000 C 
ATOM     31  C   UNL     1      -3.774   9.778  17.736  0.00  0.00    +0.000 C 
ENDBRANCH   7  29
BRANCH   1  32
ATOM     32  C   UNL     1      -1.217  13.458  22.910  0.00  0.00    +0.000 C 
BRANCH  32  33
ATOM     33  C   UNL     1      -0.569  14.845  23.017  0.00  0.00    +0.000 C 
BRANCH  33  35
ATOM     34  C   UNL     1      -2.658  16.219  23.322  0.00  0.00    +0.000 C 
ATOM     35  C   UNL     1      -1.462  15.937  22.426  0.00  0.00    +0.000 C 
ENDBRANCH  33  35
ENDBRANCH  32  33
ENDBRANCH   1  32
TORSDOF 8
ENDMDL
MODEL 9
REMARK VINA RESULT:      -6.9      1.999      4.887
REMARK  Name = 
REMARK  11 active torsions:
REMARK  status: ('A' for Active; 'I' for Inactive)
REMARK    1  A    between atoms: C_1  and  C_2
REMARK    2  A    between atoms: C_2  and  C_3
REMARK    3  A    between atoms: C_3  and  C_4
REMARK    4  A    between atoms: C_4  and  N_5
REMARK    5  A    between atoms: C_7  and  C_8
REMARK    6  A    between atoms: N_10  and  C_11
REMARK    7  A    between atoms: C_11  and  C_12
REMARK    8  A    between atoms: C_21  and  N_22
REMARK    9  A    between atoms: N_22  and  C_23
REMARK   10  A    between atoms: N_22  and  C_24
REMARK   11  A    between atoms: C_26  and  N_27
REMARK                            x       y       z     vdW  Elec       q    Type
REMARK                         _______ _______ _______ _____ _____    ______ ____
ROOT
ATOM      1  N   UNL     1      -1.366  12.691  21.612  0.00  0.00    +0.000 N 
ATOM      2  C   UNL     1      -0.277  12.158  20.938  0.00  0.00    +0.000 A 
ATOM      3  C   UNL     1      -0.246  11.797  19.652  0.00  0.00    +0.000 A 
ATOM      4  C   UNL     1      -1.489  12.053  18.888  0.00  0.00    +0.000 A 
ATOM      5  O   UNL     1      -1.421  12.239  17.677  0.00  0.00    +0.000 OA
ATOM      6  C   UNL     1      -2.774  12.137  19.653  0.00  0.00    +0.000 A 
ATOM      7  C   UNL     1      -4.045  11.850  19.079  0.00  0.00    +0.000 A 
ATOM      8  C   UNL     1      -5.161  12.201  19.882  0.00  0.00    +0.000 A 
ATOM      9  C   UNL     1      -5.088  12.815  21.140  0.00  0.00    +0.000 A 
ATOM     10  C   UNL     1      -3.813  13.006  21.663  0.00  0.00    +0.000 A 
ATOM     11  C   UNL     1      -2.643  12.628  20.987  0.00  0.00    +0.000 A 
ENDROOT
BRANCH   9  12
ATOM     12  N   UNL     1      -6.208  13.194  21.845  0.00  0.00    +0.000 N 
ATOM     13  C   UNL     1      -6.365  14.509  22.482  0.00  0.00    +0.000 C 
ATOM     14  C   UNL     1      -6.744  14.322  23.959  0.00  0.00    +0.000 C 
ATOM     15  O   UNL     1      -7.917  13.501  24.105  0.00  0.00    +0.000 OA
ATOM     16  C   UNL     1      -7.693  12.205  23.525  0.00  0.00    +0.000 C 
ATOM     17  C   UNL     1      -7.365  12.302  22.026  0.00  0.00    +0.000 C 
ENDBRANCH   9  12
BRANCH   3  18
ATOM     18  C   UNL     1       1.010  11.249  19.074  0.00  0.00    +0.000 C 
ATOM     19  O   UNL     1       2.005  11.950  18.911  0.00  0.00    +0.000 OA
ATOM     20  N   UNL     1       0.983   9.914  18.762  0.00  0.00    +0.000 N 
ATOM     21  H   UNL     1       0.115   9.395  18.890  0.00  0.00    +0.000 HD
BRANCH  20  22
ATOM     22  C   UNL     1       2.129   9.225  18.213  0.00  0.00    +0.000 C 
BRANCH  22  23
ATOM     23  C   UNL     1       2.199   7.796  18.686  0.00  0.00    +0.000 A 
ATOM     24  C   UNL     1       1.975   7.488  20.037  0.00  0.00    +0.000 A 
ATOM     25  C   UNL     1       2.015   6.166  20.479  0.00  0.00    +0.000 A 
ATOM     26  C   UNL     1       2.275   5.135  19.578  0.00  0.00    +0.000 A 
ATOM     27  C   UNL     1       2.499   5.426  18.231  0.00  0.00    +0.000 A 
ATOM     28  C   UNL     1       2.458   6.751  17.788  0.00  0.00    +0.000 A 
ENDBRANCH  22  23
ENDBRANCH  20  22
ENDBRANCH   3  18
BRANCH   7  29
ATOM     29  N   UNL     1      -4.298  11.186  17.875  0.00  0.00    +0.000 N 
ATOM     30  C   UNL     1      -4.894  11.873  16.727  0.00  0.00    +0.000 C 
ATOM     31  C   UNL     1      -3.763   9.866  17.553  0.00  0.00    +0.000 C 
ENDBRANCH   7  29
BRANCH   1  32
ATOM     32  C   UNL     1      -1.263  13.037  23.048  0.00  0.00    +0.000 C 
BRANCH  32  33
ATOM     33  C   UNL     1      -1.180  14.556  23.257  0.00  0.00    +0.000 C 
BRANCH  33  35
ATOM     34  C   UNL     1      -1.276  15.641  25.528  0.00  0.00    +0.000 C 
ATOM     35  C   UNL     1      -2.085  15.023  24.398  0.00  0.00    +0.000 C 
ENDBRANCH  33  35
ENDBRANCH  32  33
ENDBRANCH   1  32
TORSDOF 8
ENDMDL
