MODEL 1
REMARK VINA RESULT:      -7.9      0.000      0.000
REMARK  Name = 
REMARK  9 active torsions:
REMARK  status: ('A' for Active; 'I' for Inactive)
REMARK    1  A    between atoms: C_1  and  C_2
REMARK    2  A    between atoms: C_2  and  C_3
REMARK    3  A    between atoms: C_3  and  N_4
REMARK    4  A    between atoms: N_4  and  C_5
REMARK    5  A    between atoms: C_5  and  C_6
REMARK    6  A    between atoms: C_7  and  C_8
REMARK    7  A    between atoms: C_8  and  C_9
REMARK    8  A    between atoms: C_9  and  C_10
REMARK    9  A    between atoms: C_9  and  C_16
REMARK                            x       y       z     vdW  Elec       q    Type
REMARK                         _______ _______ _______ _____ _____    ______ ____
ROOT
ATOM      1  C   UNL     1       2.403   7.196  17.449  0.00  0.00    +0.000 C 
ENDROOT
BRANCH   1   3
ATOM      2  C   UNL     1       1.832   9.727  18.108  0.00  0.00    +0.000 C 
ATOM      3  C   UNL     1       2.081   8.602  17.766  0.00  0.00    +0.000 C 
BRANCH   2   4
ATOM      4  C   UNL     1       1.585  11.100  18.564  0.00  0.00    +0.000 C 
BRANCH   4   5
ATOM      5  N   UNL     1       0.386  11.170  19.539  0.00  0.00    +0.000 N 
ATOM      6  C   UNL     1      -0.709  10.149  19.120  0.00  0.00    +0.000 C 
ATOM      7  C   UNL     1      -1.529  10.613  17.923  0.00  0.00    +0.000 C 
ATOM      8  C   UNL     1      -2.136  11.980  18.181  0.00  0.00    +0.000 C 
ATOM      9  C   UNL     1      -1.019  12.982  18.392  0.00  0.00    +0.000 C 
ATOM     10  C   UNL     1      -0.166  12.607  19.593  0.00  0.00    +0.000 C 
BRANCH   5  11
ATOM     11  C   UNL     1       0.824  10.767  20.981  0.00  0.00    +0.000 C 
BRANCH  11  13
ATOM     12  C   UNL     1       1.278   8.354  21.517  0.00  0.00    +0.000 C 
ATOM     13  C   UNL     1       0.220   9.446  21.461  0.00  0.00    +0.000 C 
ENDBRANCH  11  13
ENDBRANCH   5  11
ENDBRANCH   4   5
ENDBRANCH   2   4
ENDBRANCH   1   3
BRANCH   1  14
ATOM     14  C   UNL     1       3.088   6.419  18.605  0.00  0.00    +0.000 C 
BRANCH  14  15
ATOM     15  C   UNL     1       2.322   5.155  18.997  0.00  0.00    +0.000 A 
ATOM     16  C   UNL     1       2.019   4.158  18.058  0.00  0.00    +0.000 A 
ATOM     17  C   UNL     1       1.309   3.017  18.434  0.00  0.00    +0.000 A 
ATOM     18  C   UNL     1       0.889   2.853  19.752  0.00  0.00    +0.000 A 
ATOM     19  C   UNL     1       1.189   3.827  20.701  0.00  0.00    +0.000 A 
ATOM     20  C   UNL     1       1.905   4.967  20.329  0.00  0.00    +0.000 A 
ENDBRANCH  14  15
BRANCH  14  21
ATOM     21  C   UNL     1       4.573   6.155  18.329  0.00  0.00    +0.000 A 
ATOM     22  C   UNL     1       5.336   5.441  19.270  0.00  0.00    +0.000 A 
ATOM     23  C   UNL     1       6.712   5.270  19.093  0.00  0.00    +0.000 A 
ATOM     24  C   UNL     1       7.347   5.795  17.970  0.00  0.00    +0.000 A 
ATOM     25  C   UNL     1       6.601   6.464  17.006  0.00  0.00    +0.000 A 
ATOM     26  C   UNL     1       5.225   6.632  17.178  0.00  0.00    +0.000 A 
ENDBRANCH  14  21
ENDBRANCH   1  14
TORSDOF 8
ENDMDL
MODEL 2
REMARK VINA RESULT:      -7.8      1.214      3.838
REMARK  Name = 
REMARK  9 active torsions:
REMARK  status: ('A' for Active; 'I' for Inactive)
REMARK    1  A    between atoms: C_1  and  C_2
REMARK    2  A    between atoms: C_2  and  C_3
REMARK    3  A    between atoms: C_3  and  N_4
REMARK    4  A    between atoms: N_4  and  C_5
REMARK    5  A    between atoms: C_5  and  C_6
REMARK    6  A    between atoms: C_7  and  C_8
REMARK    7  A    between atoms: C_8  and  C_9
REMARK    8  A    between atoms: C_9  and  C_10
REMARK    9  A    between atoms: C_9  and  C_16
REMARK                            x       y       z     vdW  Elec       q    Type
REMARK                         _______ _______ _______ _____ _____    ______ ____
ROOT
ATOM      1  C   UNL     1       3.497   7.720  17.985  0.00  0.00    +0.000 C 
ENDROOT
BRANCH   1   3
ATOM      2  C   UNL     1       1.227   9.138  17.943  0.00  0.00    +0.000 C 
ATOM      3  C   UNL     1       2.223   8.465  17.938  0.00  0.00    +0.000 C 
BRANCH   2   4
ATOM      4  C   UNL     1       0.047  10.011  17.926  0.00  0.00    +0.000 C 
BRANCH   4   5
ATOM      5  N   UNL     1      -0.042  10.874  19.207  0.00  0.00    +0.000 N 
ATOM      6  C   UNL     1      -1.191  11.914  19.076  0.00  0.00    +0.000 C 
ATOM      7  C   UNL     1      -0.826  13.095  18.187  0.00  0.00    +0.000 C 
ATOM      8  C   UNL     1       0.451  13.759  18.667  0.00  0.00    +0.000 C 
ATOM      9  C   UNL     1       1.586  12.757  18.591  0.00  0.00    +0.000 C 
ATOM     10  C   UNL     1       1.313  11.554  19.479  0.00  0.00    +0.000 C 
BRANCH   5  11
ATOM     11  C   UNL     1      -0.396   9.991  20.442  0.00  0.00    +0.000 C 
BRANCH  11  13
ATOM     12  C   UNL     1       1.240   8.525  21.663  0.00  0.00    +0.000 C 
ATOM     13  C   UNL     1       0.707   9.941  21.501  0.00  0.00    +0.000 C 
ENDBRANCH  11  13
ENDBRANCH   5  11
ENDBRANCH   4   5
ENDBRANCH   2   4
ENDBRANCH   1   3
BRANCH   1  14
ATOM     14  C   UNL     1       3.394   6.243  17.519  0.00  0.00    +0.000 C 
BRANCH  14  15
ATOM     15  C   UNL     1       4.757   5.637  17.184  0.00  0.00    +0.000 A 
ATOM     16  C   UNL     1       5.932   6.080  17.809  0.00  0.00    +0.000 A 
ATOM     17  C   UNL     1       7.169   5.521  17.481  0.00  0.00    +0.000 A 
ATOM     18  C   UNL     1       7.252   4.513  16.523  0.00  0.00    +0.000 A 
ATOM     19  C   UNL     1       6.095   4.053  15.899  0.00  0.00    +0.000 A 
ATOM     20  C   UNL     1       4.856   4.606  16.230  0.00  0.00    +0.000 A 
ENDBRANCH  14  15
BRANCH  14  21
ATOM     21  C   UNL     1       2.581   5.381  18.492  0.00  0.00    +0.000 A 
ATOM     22  C   UNL     1       2.724   5.578  19.877  0.00  0.00    +0.000 A 
ATOM     23  C   UNL     1       2.072   4.744  20.789  0.00  0.00    +0.000 A 
ATOM     24  C   UNL     1       1.256   3.709  20.337  0.00  0.00    +0.000 A 
ATOM     25  C   UNL     1       1.066   3.528  18.972  0.00  0.00    +0.000 A 
ATOM     26  C   UNL     1       1.712   4.364  18.058  0.00  0.00    +0.000 A 
ENDBRANCH  14  21
ENDBRANCH   1  14
TORSDOF 8
ENDMDL
MODEL 3
REMARK VINA RESULT:      -7.8      0.671      1.389
REMARK  Name = 
REMARK  9 active torsions:
REMARK  status: ('A' for Active; 'I' for Inactive)
REMARK    1  A    between atoms: C_1  and  C_2
REMARK    2  A    between atoms: C_2  and  C_3
REMARK    3  A    between atoms: C_3  and  N_4
REMARK    4  A    between atoms: N_4  and  C_5
REMARK    5  A    between atoms: C_5  and  C_6
REMARK    6  A    between atoms: C_7  and  C_8
REMARK    7  A    between atoms: C_8  and  C_9
REMARK    8  A    between atoms: C_9  and  C_10
REMARK    9  A    between atoms: C_9  and  C_16
REMARK                            x       y       z     vdW  Elec       q    Type
REMARK                         _______ _______ _______ _____ _____    ______ ____
ROOT
ATOM      1  C   UNL     1       2.723   6.986  17.450  0.00  0.00    +0.000 C 
ENDROOT
BRANCH   1   3
ATOM      2  C   UNL     1       1.925   9.432  18.190  0.00  0.00    +0.000 C 
ATOM      3  C   UNL     1       2.242   8.316  17.877  0.00  0.00    +0.000 C 
BRANCH   2   4
ATOM      4  C   UNL     1       1.553  10.816  18.508  0.00  0.00    +0.000 C 
BRANCH   4   5
ATOM      5  N   UNL     1       0.359  10.874  19.490  0.00  0.00    +0.000 N 
ATOM      6  C   UNL     1      -0.781   9.933  19.008  0.00  0.00    +0.000 C 
ATOM      7  C   UNL     1      -1.580  10.512  17.848  0.00  0.00    +0.000 C 
ATOM      8  C   UNL     1      -2.125  11.884  18.199  0.00  0.00    +0.000 C 
ATOM      9  C   UNL     1      -0.964  12.819  18.473  0.00  0.00    +0.000 C 
ATOM     10  C   UNL     1      -0.128  12.327  19.643  0.00  0.00    +0.000 C 
BRANCH   5  11
ATOM     11  C   UNL     1       0.781  10.356  20.900  0.00  0.00    +0.000 C 
BRANCH  11  13
ATOM     12  C   UNL     1       1.086   7.911  21.399  0.00  0.00    +0.000 C 
ATOM     13  C   UNL     1       0.087   9.055  21.311  0.00  0.00    +0.000 C 
ENDBRANCH  11  13
ENDBRANCH   5  11
ENDBRANCH   4   5
ENDBRANCH   2   4
ENDBRANCH   1   3
BRANCH   1  14
ATOM     14  C   UNL     1       3.468   6.188  18.553  0.00  0.00    +0.000 C 
BRANCH  14  15
ATOM     15  C   UNL     1       2.624   5.051  19.127  0.00  0.00    +0.000 A 
ATOM     16  C   UNL     1       2.582   4.789  20.505  0.00  0.00    +0.000 A 
ATOM     17  C   UNL     1       1.813   3.738  21.008  0.00  0.00    +0.000 A 
ATOM     18  C   UNL     1       1.076   2.932  20.145  0.00  0.00    +0.000 A 
ATOM     19  C   UNL     1       1.096   3.182  18.775  0.00  0.00    +0.000 A 
ATOM     20  C   UNL     1       1.860   4.237  18.269  0.00  0.00    +0.000 A 
ENDBRANCH  14  15
BRANCH  14  21
ATOM     21  C   UNL     1       4.859   5.728  18.099  0.00  0.00    +0.000 A 
ATOM     22  C   UNL     1       5.044   5.283  16.778  0.00  0.00    +0.000 A 
ATOM     23  C   UNL     1       6.274   4.765  16.363  0.00  0.00    +0.000 A 
ATOM     24  C   UNL     1       7.343   4.696  17.253  0.00  0.00    +0.000 A 
ATOM     25  C   UNL     1       7.193   5.175  18.550  0.00  0.00    +0.000 A 
ATOM     26  C   UNL     1       5.966   5.697  18.966  0.00  0.00    +0.000 A 
ENDBRANCH  14  21
ENDBRANCH   1  14
TORSDOF 8
ENDMDL
MODEL 4
REMARK VINA RESULT:      -7.7      1.040      2.781
REMARK  Name = 
REMARK  9 active torsions:
REMARK  status: ('A' for Active; 'I' for Inactive)
REMARK    1  A    between atoms: C_1  and  C_2
REMARK    2  A    between atoms: C_2  and  C_3
REMARK    3  A    between atoms: C_3  and  N_4
REMARK    4  A    between atoms: N_4  and  C_5
REMARK    5  A    between atoms: C_5  and  C_6
REMARK    6  A    between atoms: C_7  and  C_8
REMARK    7  A    between atoms: C_8  and  C_9
REMARK    8  A    between atoms: C_9  and  C_10
REMARK    9  A    between atoms: C_9  and  C_16
REMARK                            x       y       z     vdW  Elec       q    Type
REMARK                         _______ _______ _______ _____ _____    ______ ____
ROOT
ATOM      1  C   UNL     1       2.787   7.557  17.469  0.00  0.00    +0.000 C 
ENDROOT
BRANCH   1   3
ATOM      2  C   UNL     1       1.695   9.667  18.702  0.00  0.00    +0.000 C 
ATOM      3  C   UNL     1       2.196   8.701  18.192  0.00  0.00    +0.000 C 
BRANCH   2   4
ATOM      4  C   UNL     1       1.028  10.838  19.284  0.00  0.00    +0.000 C 
BRANCH   4   5
ATOM      5  N   UNL     1      -0.393  10.493  19.790  0.00  0.00    +0.000 N 
ATOM      6  C   UNL     1      -1.015  11.715  20.521  0.00  0.00    +0.000 C 
ATOM      7  C   UNL     1      -0.458  11.915  21.925  0.00  0.00    +0.000 C 
ATOM      8  C   UNL     1      -0.613  10.653  22.753  0.00  0.00    +0.000 C 
ATOM      9  C   UNL     1       0.174   9.535  22.099  0.00  0.00    +0.000 C 
ATOM     10  C   UNL     1      -0.342   9.250  20.698  0.00  0.00    +0.000 C 
BRANCH   5  11
ATOM     11  C   UNL     1      -1.341  10.177  18.592  0.00  0.00    +0.000 C 
BRANCH  11  13
ATOM     12  C   UNL     1      -3.309  11.387  17.601  0.00  0.00    +0.000 C 
ATOM     13  C   UNL     1      -1.805  11.420  17.830  0.00  0.00    +0.000 C 
ENDBRANCH  11  13
ENDBRANCH   5  11
ENDBRANCH   4   5
ENDBRANCH   2   4
ENDBRANCH   1   3
BRANCH   1  14
ATOM     14  C   UNL     1       3.502   6.522  18.379  0.00  0.00    +0.000 C 
BRANCH  14  15
ATOM     15  C   UNL     1       2.567   5.407  18.846  0.00  0.00    +0.000 A 
ATOM     16  C   UNL     1       2.104   4.418  17.965  0.00  0.00    +0.000 A 
ATOM     17  C   UNL     1       1.241   3.415  18.410  0.00  0.00    +0.000 A 
ATOM     18  C   UNL     1       0.826   3.383  19.739  0.00  0.00    +0.000 A 
ATOM     19  C   UNL     1       1.283   4.349  20.631  0.00  0.00    +0.000 A 
ATOM     20  C   UNL     1       2.152   5.351  20.191  0.00  0.00    +0.000 A 
ENDBRANCH  14  15
BRANCH  14  21
ATOM     21  C   UNL     1       4.796   5.992  17.752  0.00  0.00    +0.000 A 
ATOM     22  C   UNL     1       4.975   6.073  16.360  0.00  0.00    +0.000 A 
ATOM     23  C   UNL     1       6.099   5.511  15.748  0.00  0.00    +0.000 A 
ATOM     24  C   UNL     1       7.070   4.871  16.516  0.00  0.00    +0.000 A 
ATOM     25  C   UNL     1       6.933   4.822  17.898  0.00  0.00    +0.000 A 
ATOM     26  C   UNL     1       5.813   5.387  18.512  0.00  0.00    +0.000 A 
ENDBRANCH  14  21
ENDBRANCH   1  14
TORSDOF 8
ENDMDL
MODEL 5
REMARK VINA RESULT:      -7.7      0.881      2.643
REMARK  Name = 
REMARK  9 active torsions:
REMARK  status: ('A' for Active; 'I' for Inactive)
REMARK    1  A    between atoms: C_1  and  C_2
REMARK    2  A    between atoms: C_2  and  C_3
REMARK    3  A    between atoms: C_3  and  N_4
REMARK    4  A    between atoms: N_4  and  C_5
REMARK    5  A    between atoms: C_5  and  C_6
REMARK    6  A    between atoms: C_7  and  C_8
REMARK    7  A    between atoms: C_8  and  C_9
REMARK    8  A    between atoms: C_9  and  C_10
REMARK    9  A    between atoms: C_9  and  C_16
REMARK                            x       y       z     vdW  Elec       q    Type
REMARK                         _______ _______ _______ _____ _____    ______ ____
ROOT
ATOM      1  C   UNL     1       2.529   7.449  17.546  0.00  0.00    +0.000 C 
ENDROOT
BRANCH   1   3
ATOM      2  C   UNL     1       1.455   9.727  18.455  0.00  0.00    +0.000 C 
ATOM      3  C   UNL     1       1.960   8.699  18.090  0.00  0.00    +0.000 C 
BRANCH   2   4
ATOM      4  C   UNL     1       0.780  10.959  18.878  0.00  0.00    +0.000 C 
BRANCH   4   5
ATOM      5  N   UNL     1      -0.591  10.663  19.532  0.00  0.00    +0.000 N 
ATOM      6  C   UNL     1      -1.249  11.984  20.022  0.00  0.00    +0.000 C 
ATOM      7  C   UNL     1      -0.637  12.512  21.312  0.00  0.00    +0.000 C 
ATOM      8  C   UNL     1      -0.673  11.454  22.400  0.00  0.00    +0.000 C 
ATOM      9  C   UNL     1       0.147  10.261  21.954  0.00  0.00    +0.000 C 
ATOM     10  C   UNL     1      -0.419   9.652  20.681  0.00  0.00    +0.000 C 
BRANCH   5  11
ATOM     11  C   UNL     1      -1.576  10.049  18.491  0.00  0.00    +0.000 C 
BRANCH  11  13
ATOM     12  C   UNL     1      -2.471  10.427  16.173  0.00  0.00    +0.000 C 
ATOM     13  C   UNL     1      -2.158  11.073  17.515  0.00  0.00    +0.000 C 
ENDBRANCH  11  13
ENDBRANCH   5  11
ENDBRANCH   4   5
ENDBRANCH   2   4
ENDBRANCH   1   3
BRANCH   1  14
ATOM     14  C   UNL     1       3.199   6.534  18.606  0.00  0.00    +0.000 C 
BRANCH  14  15
ATOM     15  C   UNL     1       2.347   5.314  18.951  0.00  0.00    +0.000 A 
ATOM     16  C   UNL     1       1.892   5.080  20.258  0.00  0.00    +0.000 A 
ATOM     17  C   UNL     1       1.125   3.953  20.555  0.00  0.00    +0.000 A 
ATOM     18  C   UNL     1       0.799   3.041  19.554  0.00  0.00    +0.000 A 
ATOM     19  C   UNL     1       1.233   3.260  18.249  0.00  0.00    +0.000 A 
ATOM     20  C   UNL     1       1.996   4.391  17.947  0.00  0.00    +0.000 A 
ENDBRANCH  14  15
BRANCH  14  21
ATOM     21  C   UNL     1       4.640   6.169  18.230  0.00  0.00    +0.000 A 
ATOM     22  C   UNL     1       5.426   5.432  19.134  0.00  0.00    +0.000 A 
ATOM     23  C   UNL     1       6.771   5.168  18.863  0.00  0.00    +0.000 A 
ATOM     24  C   UNL     1       7.352   5.622  17.681  0.00  0.00    +0.000 A 
ATOM     25  C   UNL     1       6.579   6.311  16.754  0.00  0.00    +0.000 A 
ATOM     26  C   UNL     1       5.233   6.572  17.020  0.00  0.00    +0.000 A 
ENDBRANCH  14  21
ENDBRANCH   1  14
TORSDOF 8
ENDMDL
MODEL 6
REMARK VINA RESULT:      -7.7      0.536      1.127
REMARK  Name = 
REMARK  9 active torsions:
REMARK  status: ('A' for Active; 'I' for Inactive)
REMARK    1  A    between atoms: C_1  and  C_2
REMARK    2  A    between atoms: C_2  and  C_3
REMARK    3  A    between atoms: C_3  and  N_4
REMARK    4  A    between atoms: N_4  and  C_5
REMARK    5  A    between atoms: C_5  and  C_6
REMARK    6  A    between atoms: C_7  and  C_8
REMARK    7  A    between atoms: C_8  and  C_9
REMARK    8  A    between atoms: C_9  and  C_10
REMARK    9  A    between atoms: C_9  and  C_16
REMARK                            x       y       z     vdW  Elec       q    Type
REMARK                         _______ _______ _______ _____ _____    ______ ____
ROOT
ATOM      1  C   UNL     1       2.402   7.253  17.475  0.00  0.00    +0.000 C 
ENDROOT
BRANCH   1   3
ATOM      2  C   UNL     1       1.684   9.700  18.290  0.00  0.00    +0.000 C 
ATOM      3  C   UNL     1       1.965   8.599  17.898  0.00  0.00    +0.000 C 
BRANCH   2   4
ATOM      4  C   UNL     1       1.403  11.064  18.753  0.00  0.00    +0.000 C 
BRANCH   4   5
ATOM      5  N   UNL     1       0.344  11.077  19.881  0.00  0.00    +0.000 N 
ATOM      6  C   UNL     1      -0.834  10.127  19.524  0.00  0.00    +0.000 C 
ATOM      7  C   UNL     1      -1.784  10.719  18.491  0.00  0.00    +0.000 C 
ATOM      8  C   UNL     1      -2.300  12.073  18.944  0.00  0.00    +0.000 C 
ATOM      9  C   UNL     1      -1.127  13.022  19.091  0.00  0.00    +0.000 C 
ATOM     10  C   UNL     1      -0.141  12.517  20.132  0.00  0.00    +0.000 C 
BRANCH   5  11
ATOM     11  C   UNL     1       0.950  10.533  21.211  0.00  0.00    +0.000 C 
BRANCH  11  13
ATOM     12  C   UNL     1      -0.063   9.434  23.232  0.00  0.00    +0.000 C 
ATOM     13  C   UNL     1       0.240   9.288  21.748  0.00  0.00    +0.000 C 
ENDBRANCH  11  13
ENDBRANCH   5  11
ENDBRANCH   4   5
ENDBRANCH   2   4
ENDBRANCH   1   3
BRANCH   1  14
ATOM     14  C   UNL     1       3.104   6.427  18.586  0.00  0.00    +0.000 C 
BRANCH  14  15
ATOM     15  C   UNL     1       2.289   5.207  19.013  0.00  0.00    +0.000 A 
ATOM     16  C   UNL     1       1.785   4.294  18.074  0.00  0.00    +0.000 A 
ATOM     17  C   UNL     1       1.033   3.192  18.484  0.00  0.00    +0.000 A 
ATOM     18  C   UNL     1       0.772   2.983  19.836  0.00  0.00    +0.000 A 
ATOM     19  C   UNL     1       1.272   3.872  20.785  0.00  0.00    +0.000 A 
ATOM     20  C   UNL     1       2.030   4.973  20.378  0.00  0.00    +0.000 A 
ENDBRANCH  14  15
BRANCH  14  21
ATOM     21  C   UNL     1       4.553   6.081  18.226  0.00  0.00    +0.000 A 
ATOM     22  C   UNL     1       5.031   6.360  16.934  0.00  0.00    +0.000 A 
ATOM     23  C   UNL     1       6.315   5.967  16.546  0.00  0.00    +0.000 A 
ATOM     24  C   UNL     1       7.148   5.303  17.444  0.00  0.00    +0.000 A 
ATOM     25  C   UNL     1       6.710   5.060  18.740  0.00  0.00    +0.000 A 
ATOM     26  C   UNL     1       5.429   5.456  19.132  0.00  0.00    +0.000 A 
ENDBRANCH  14  21
ENDBRANCH   1  14
TORSDOF 8
ENDMDL
MODEL 7
REMARK VINA RESULT:      -7.7      1.297      3.973
REMARK  Name = 
REMARK  9 active torsions:
REMARK  status: ('A' for Active; 'I' for Inactive)
REMARK    1  A    between atoms: C_1  and  C_2
REMARK    2  A    between atoms: C_2  and  C_3
REMARK    3  A    between atoms: C_3  and  N_4
REMARK    4  A    between atoms: N_4  and  C_5
REMARK    5  A    between atoms: C_5  and  C_6
REMARK    6  A    between atoms: C_7  and  C_8
REMARK    7  A    between atoms: C_8  and  C_9
REMARK    8  A    between atoms: C_9  and  C_10
REMARK    9  A    between atoms: C_9  and  C_16
REMARK                            x       y       z     vdW  Elec       q    Type
REMARK                         _______ _______ _______ _____ _____    ______ ____
ROOT
ATOM      1  C   UNL     1       3.337   7.384  18.297  0.00  0.00    +0.000 C 
ENDROOT
BRANCH   1   3
ATOM      2  C   UNL     1       1.204   8.977  18.007  0.00  0.00    +0.000 C 
ATOM      3  C   UNL     1       2.155   8.247  18.091  0.00  0.00    +0.000 C 
BRANCH   2   4
ATOM      4  C   UNL     1       0.080   9.917  17.931  0.00  0.00    +0.000 C 
BRANCH   4   5
ATOM      5  N   UNL     1      -0.052  10.755  19.225  0.00  0.00    +0.000 N 
ATOM      6  C   UNL     1      -1.207  11.786  19.083  0.00  0.00    +0.000 C 
ATOM      7  C   UNL     1      -0.828  12.988  18.227  0.00  0.00    +0.000 C 
ATOM      8  C   UNL     1       0.429  13.654  18.755  0.00  0.00    +0.000 C 
ATOM      9  C   UNL     1       1.574  12.663  18.691  0.00  0.00    +0.000 C 
ATOM     10  C   UNL     1       1.288  11.441  19.549  0.00  0.00    +0.000 C 
BRANCH   5  11
ATOM     11  C   UNL     1      -0.433   9.845  20.433  0.00  0.00    +0.000 C 
BRANCH  11  13
ATOM     12  C   UNL     1      -0.265   9.812  22.941  0.00  0.00    +0.000 C 
ATOM     13  C   UNL     1       0.498   9.998  21.638  0.00  0.00    +0.000 C 
ENDBRANCH  11  13
ENDBRANCH   5  11
ENDBRANCH   4   5
ENDBRANCH   2   4
ENDBRANCH   1   3
BRANCH   1  14
ATOM     14  C   UNL     1       3.230   5.983  17.640  0.00  0.00    +0.000 C 
BRANCH  14  15
ATOM     15  C   UNL     1       4.576   5.473  17.125  0.00  0.00    +0.000 A 
ATOM     16  C   UNL     1       5.778   6.126  17.436  0.00  0.00    +0.000 A 
ATOM     17  C   UNL     1       6.996   5.651  16.946  0.00  0.00    +0.000 A 
ATOM     18  C   UNL     1       7.033   4.517  16.138  0.00  0.00    +0.000 A 
ATOM     19  C   UNL     1       5.852   3.849  15.826  0.00  0.00    +0.000 A 
ATOM     20  C   UNL     1       4.632   4.319  16.319  0.00  0.00    +0.000 A 
ENDBRANCH  14  15
BRANCH  14  21
ATOM     21  C   UNL     1       2.514   4.970  18.540  0.00  0.00    +0.000 A 
ATOM     22  C   UNL     1       1.642   4.028  17.967  0.00  0.00    +0.000 A 
ATOM     23  C   UNL     1       0.900   3.158  18.770  0.00  0.00    +0.000 A 
ATOM     24  C   UNL     1       1.025   3.202  20.156  0.00  0.00    +0.000 A 
ATOM     25  C   UNL     1       1.917   4.095  20.740  0.00  0.00    +0.000 A 
ATOM     26  C   UNL     1       2.664   4.962  19.939  0.00  0.00    +0.000 A 
ENDBRANCH  14  21
ENDBRANCH   1  14
TORSDOF 8
ENDMDL
MODEL 8
REMARK VINA RESULT:      -7.7      0.936      2.829
REMARK  Name = 
REMARK  9 active torsions:
REMARK  status: ('A' for Active; 'I' for Inactive)
REMARK    1  A    between atoms: C_1  and  C_2
REMARK    2  A    between atoms: C_2  and  C_3
REMARK    3  A    between atoms: C_3  and  N_4
REMARK    4  A    between atoms: N_4  and  C_5
REMARK    5  A    between atoms: C_5  and  C_6
REMARK    6  A    between atoms: C_7  and  C_8
REMARK    7  A    between atoms: C_8  and  C_9
REMARK    8  A    between atoms: C_9  and  C_10
REMARK    9  A    between atoms: C_9  and  C_16
REMARK                            x       y       z     vdW  Elec       q    Type
REMARK                         _______ _______ _______ _____ _____    ______ ____
ROOT
ATOM      1  C   UNL     1       2.594   7.325  17.394  0.00  0.00    +0.000 C 
ENDROOT
BRANCH   1   3
ATOM      2  C   UNL     1       1.556   9.568  18.424  0.00  0.00    +0.000 C 
ATOM      3  C   UNL     1       1.977   8.542  17.960  0.00  0.00    +0.000 C 
BRANCH   2   4
ATOM      4  C   UNL     1       1.078  10.854  18.944  0.00  0.00    +0.000 C 
BRANCH   4   5
ATOM      5  N   UNL     1      -0.377  10.756  19.459  0.00  0.00    +0.000 N 
ATOM      6  C   UNL     1      -0.896  12.161  19.877  0.00  0.00    +0.000 C 
ATOM      7  C   UNL     1      -0.346  12.623  21.221  0.00  0.00    +0.000 C 
ATOM      8  C   UNL     1      -0.632  11.598  22.303  0.00  0.00    +0.000 C 
ATOM      9  C   UNL     1       0.059  10.297  21.944  0.00  0.00    +0.000 C 
ATOM     10  C   UNL     1      -0.458   9.750  20.623  0.00  0.00    +0.000 C 
BRANCH   5  11
ATOM     11  C   UNL     1      -1.330  10.263  18.328  0.00  0.00    +0.000 C 
BRANCH  11  13
ATOM     12  C   UNL     1      -2.682  10.994  16.338  0.00  0.00    +0.000 C 
ATOM     13  C   UNL     1      -2.206  11.369  17.734  0.00  0.00    +0.000 C 
ENDBRANCH  11  13
ENDBRANCH   5  11
ENDBRANCH   4   5
ENDBRANCH   2   4
ENDBRANCH   1   3
BRANCH   1  14
ATOM     14  C   UNL     1       3.316   6.428  18.435  0.00  0.00    +0.000 C 
BRANCH  14  15
ATOM     15  C   UNL     1       2.440   5.274  18.922  0.00  0.00    +0.000 A 
ATOM     16  C   UNL     1       2.105   5.126  20.276  0.00  0.00    +0.000 A 
ATOM     17  C   UNL     1       1.314   4.057  20.702  0.00  0.00    +0.000 A 
ATOM     18  C   UNL     1       0.845   3.121  19.784  0.00  0.00    +0.000 A 
ATOM     19  C   UNL     1       1.158   3.256  18.434  0.00  0.00    +0.000 A 
ATOM     20  C   UNL     1       1.945   4.327  18.004  0.00  0.00    +0.000 A 
ENDBRANCH  14  15
BRANCH  14  21
ATOM     21  C   UNL     1       4.694   5.966  17.948  0.00  0.00    +0.000 A 
ATOM     22  C   UNL     1       5.004   6.034  16.579  0.00  0.00    +0.000 A 
ATOM     23  C   UNL     1       6.214   5.530  16.093  0.00  0.00    +0.000 A 
ATOM     24  C   UNL     1       7.140   4.963  16.965  0.00  0.00    +0.000 A 
ATOM     25  C   UNL     1       6.872   4.930  18.329  0.00  0.00    +0.000 A 
ATOM     26  C   UNL     1       5.666   5.437  18.817  0.00  0.00    +0.000 A 
ENDBRANCH  14  21
ENDBRANCH   1  14
TORSDOF 8
ENDMDL
MODEL 9
REMARK VINA RESULT:      -7.6      1.256      2.590
REMARK  Name = 
REMARK  9 active torsions:
REMARK  status: ('A' for Active; 'I' for Inactive)
REMARK    1  A    between atoms: C_1  and  C_2
REMARK    2  A    between atoms: C_2  and  C_3
REMARK    3  A    between atoms: C_3  and  N_4
REMARK    4  A    between atoms: N_4  and  C_5
REMARK    5  A    between atoms: C_5  and  C_6
REMARK    6  A    between atoms: C_7  and  C_8
REMARK    7  A    between atoms: C_8  and  C_9
REMARK    8  A    between atoms: C_9  and  C_10
REMARK    9  A    between atoms: C_9  and  C_16
REMARK                            x       y       z     vdW  Elec       q    Type
REMARK                         _______ _______ _______ _____ _____    ______ ____
ROOT
ATOM      1  C   UNL     1       3.079   7.543  17.688  0.00  0.00    +0.000 C 
ENDROOT
BRANCH   1   3
ATOM      2  C   UNL     1       1.425   8.927  19.275  0.00  0.00    +0.000 C 
ATOM      3  C   UNL     1       2.155   8.335  18.526  0.00  0.00    +0.000 C 
BRANCH   2   4
ATOM      4  C   UNL     1       0.585   9.653  20.235  0.00  0.00    +0.000 C 
BRANCH   4   5
ATOM      5  N   UNL     1      -0.048  10.913  19.600  0.00  0.00    +0.000 N 
ATOM      6  C   UNL     1       1.056  11.945  19.235  0.00  0.00    +0.000 C 
ATOM      7  C   UNL     1       1.587  12.701  20.446  0.00  0.00    +0.000 C 
ATOM      8  C   UNL     1       0.456  13.368  21.206  0.00  0.00    +0.000 C 
ATOM      9  C   UNL     1      -0.495  12.300  21.709  0.00  0.00    +0.000 C 
ATOM     10  C   UNL     1      -1.097  11.515  20.555  0.00  0.00    +0.000 C 
BRANCH   5  11
ATOM     11  C   UNL     1      -0.764  10.555  18.261  0.00  0.00    +0.000 C 
BRANCH  11  13
ATOM     12  C   UNL     1      -2.961   9.850  17.264  0.00  0.00    +0.000 C 
ATOM     13  C   UNL     1      -2.284  10.722  18.312  0.00  0.00    +0.000 C 
ENDBRANCH  11  13
ENDBRANCH   5  11
ENDBRANCH   4   5
ENDBRANCH   2   4
ENDBRANCH   1   3
BRANCH   1  14
ATOM     14  C   UNL     1       3.755   6.356  18.425  0.00  0.00    +0.000 C 
BRANCH  14  15
ATOM     15  C   UNL     1       2.746   5.312  18.903  0.00  0.00    +0.000 A 
ATOM     16  C   UNL     1       2.427   5.167  20.262  0.00  0.00    +0.000 A 
ATOM     17  C   UNL     1       1.511   4.199  20.679  0.00  0.00    +0.000 A 
ATOM     18  C   UNL     1       0.901   3.361  19.749  0.00  0.00    +0.000 A 
ATOM     19  C   UNL     1       1.197   3.496  18.395  0.00  0.00    +0.000 A 
ATOM     20  C   UNL     1       2.108   4.468  17.973  0.00  0.00    +0.000 A 
ENDBRANCH  14  15
BRANCH  14  21
ATOM     21  C   UNL     1       4.904   5.746  17.613  0.00  0.00    +0.000 A 
ATOM     22  C   UNL     1       5.950   5.086  18.282  0.00  0.00    +0.000 A 
ATOM     23  C   UNL     1       7.059   4.607  17.579  0.00  0.00    +0.000 A 
ATOM     24  C   UNL     1       7.137   4.765  16.197  0.00  0.00    +0.000 A 
ATOM     25  C   UNL     1       6.090   5.373  15.513  0.00  0.00    +0.000 A 
ATOM     26  C   UNL     1       4.979   5.848  16.213  0.00  0.00    +0.000 A 
ENDBRANCH  14  21
ENDBRANCH   1  14
TORSDOF 8
ENDMDL
