MODEL 1
REMARK VINA RESULT:      -8.3      0.000      0.000
REMARK  Name = 
REMARK  5 active torsions:
REMARK  status: ('A' for Active; 'I' for Inactive)
REMARK    1  A    between atoms: C_1  and  C_2
REMARK    2  A    between atoms: C_5  and  S_6
REMARK    3  A    between atoms: S_6  and  C_7
REMARK    4  A    between atoms: C_7  and  C_9
REMARK    5  A    between atoms: C_12  and  C_13
REMARK                            x       y       z     vdW  Elec       q    Type
REMARK                         _______ _______ _______ _____ _____    ______ ____
ROOT
ATOM      1  C   UNL     1       5.106   6.697  17.689  0.00  0.00    +0.000 A 
ATOM      2  C   UNL     1       4.056   7.467  17.225  0.00  0.00    +0.000 A 
ATOM      3  C   UNL     1       2.876   6.954  17.818  0.00  0.00    +0.000 A 
ATOM      4  C   UNL     1       3.257   5.896  18.617  0.00  0.00    +0.000 A 
ATOM      5  O   UNL     1       4.614   5.742  18.539  0.00  0.00    +0.000 OA
ENDROOT
BRANCH   4   6
ATOM      6  C   UNL     1       2.557   4.939  19.471  0.00  0.00    +0.000 A 
ATOM      7  C   UNL     1       2.885   4.811  20.833  0.00  0.00    +0.000 A 
ATOM      8  C   UNL     1       2.232   3.880  21.645  0.00  0.00    +0.000 A 
ATOM      9  C   UNL     1       1.244   3.069  21.102  0.00  0.00    +0.000 A 
ATOM     10  F   UNL     1       0.626   2.172  21.880  0.00  0.00    +0.000 F 
ATOM     11  C   UNL     1       0.891   3.176  19.766  0.00  0.00    +0.000 A 
ATOM     12  C   UNL     1       1.546   4.106  18.962  0.00  0.00    +0.000 A 
ATOM     13  F   UNL     1       1.183   4.179  17.673  0.00  0.00    +0.000 F 
ENDBRANCH   4   6
BRANCH   1  14
ATOM     14  C   UNL     1       6.522   6.768  17.388  0.00  0.00    +0.000 C 
ATOM     15  O   UNL     1       7.112   7.798  17.078  0.00  0.00    +0.000 OA
BRANCH  14  16
ATOM     16  S   UNL     1       7.345   5.218  17.315  0.00  0.00    +0.000 S 
BRANCH  16  21
ATOM     17  C   UNL     1       5.743   3.368  12.360  0.00  0.00    +0.000 C 
ATOM     18  C   UNL     1       6.387   4.066  13.502  0.00  0.00    +0.000 A 
ATOM     19  N   UNL     1       7.302   5.006  13.401  0.00  0.00    +0.000 NA
ATOM     20  N   UNL     1       7.712   5.471  14.638  0.00  0.00    +0.000 NA
ATOM     21  C   UNL     1       7.088   4.868  15.628  0.00  0.00    +0.000 A 
ATOM     22  S   UNL     1       5.964   3.672  15.118  0.00  0.00    +0.000 S 
ENDBRANCH  16  21
ENDBRANCH  14  16
ENDBRANCH   1  14
TORSDOF 4
ENDMDL
MODEL 2
REMARK VINA RESULT:      -7.9      3.037      4.613
REMARK  Name = 
REMARK  5 active torsions:
REMARK  status: ('A' for Active; 'I' for Inactive)
REMARK    1  A    between atoms: C_1  and  C_2
REMARK    2  A    between atoms: C_5  and  S_6
REMARK    3  A    between atoms: S_6  and  C_7
REMARK    4  A    between atoms: C_7  and  C_9
REMARK    5  A    between atoms: C_12  and  C_13
REMARK                            x       y       z     vdW  Elec       q    Type
REMARK                         _______ _______ _______ _____ _____    ______ ____
ROOT
ATOM      1  C   UNL     1       3.704   4.892  19.777  0.00  0.00    +0.000 A 
ATOM      2  C   UNL     1       2.617   4.448  20.507  0.00  0.00    +0.000 A 
ATOM      3  C   UNL     1       1.685   5.514  20.548  0.00  0.00    +0.000 A 
ATOM      4  C   UNL     1       2.243   6.560  19.841  0.00  0.00    +0.000 A 
ATOM      5  O   UNL     1       3.469   6.179  19.372  0.00  0.00    +0.000 OA
ENDROOT
BRANCH   4   6
ATOM      6  C   UNL     1       1.834   7.925  19.519  0.00  0.00    +0.000 A 
ATOM      7  C   UNL     1       2.075   8.469  18.244  0.00  0.00    +0.000 A 
ATOM      8  C   UNL     1       1.705   9.783  17.943  0.00  0.00    +0.000 A 
ATOM      9  C   UNL     1       1.091  10.563  18.913  0.00  0.00    +0.000 A 
ATOM     10  F   UNL     1       0.745  11.824  18.624  0.00  0.00    +0.000 F 
ATOM     11  C   UNL     1       0.831  10.054  20.176  0.00  0.00    +0.000 A 
ATOM     12  C   UNL     1       1.202   8.744  20.470  0.00  0.00    +0.000 A 
ATOM     13  F   UNL     1       0.940   8.286  21.703  0.00  0.00    +0.000 F 
ENDBRANCH   4   6
BRANCH   1  14
ATOM     14  C   UNL     1       4.946   4.222  19.447  0.00  0.00    +0.000 C 
ATOM     15  O   UNL     1       5.113   3.008  19.507  0.00  0.00    +0.000 OA
BRANCH  14  16
ATOM     16  S   UNL     1       6.300   5.289  19.113  0.00  0.00    +0.000 S 
BRANCH  16  21
ATOM     17  C   UNL     1       5.914   3.966  13.761  0.00  0.00    +0.000 C 
ATOM     18  C   UNL     1       6.360   4.318  15.134  0.00  0.00    +0.000 A 
ATOM     19  N   UNL     1       7.611   4.484  15.508  0.00  0.00    +0.000 NA
ATOM     20  N   UNL     1       7.717   4.811  16.848  0.00  0.00    +0.000 NA
ATOM     21  C   UNL     1       6.541   4.884  17.436  0.00  0.00    +0.000 A 
ATOM     22  S   UNL     1       5.218   4.538  16.395  0.00  0.00    +0.000 S 
ENDBRANCH  16  21
ENDBRANCH  14  16
ENDBRANCH   1  14
TORSDOF 4
ENDMDL
MODEL 3
REMARK VINA RESULT:      -7.7      3.008      3.902
REMARK  Name = 
REMARK  5 active torsions:
REMARK  status: ('A' for Active; 'I' for Inactive)
REMARK    1  A    between atoms: C_1  and  C_2
REMARK    2  A    between atoms: C_5  and  S_6
REMARK    3  A    between atoms: S_6  and  C_7
REMARK    4  A    between atoms: C_7  and  C_9
REMARK    5  A    between atoms: C_12  and  C_13
REMARK                            x       y       z     vdW  Elec       q    Type
REMARK                         _______ _______ _______ _____ _____    ______ ____
ROOT
ATOM      1  C   UNL     1       4.078   5.155  18.647  0.00  0.00    +0.000 A 
ATOM      2  C   UNL     1       3.073   4.816  17.760  0.00  0.00    +0.000 A 
ATOM      3  C   UNL     1       2.034   5.763  17.933  0.00  0.00    +0.000 A 
ATOM      4  C   UNL     1       2.450   6.637  18.917  0.00  0.00    +0.000 A 
ATOM      5  O   UNL     1       3.694   6.267  19.347  0.00  0.00    +0.000 OA
ENDROOT
BRANCH   4   6
ATOM      6  C   UNL     1       1.869   7.804  19.578  0.00  0.00    +0.000 A 
ATOM      7  C   UNL     1       1.596   7.790  20.958  0.00  0.00    +0.000 A 
ATOM      8  C   UNL     1       1.019   8.897  21.587  0.00  0.00    +0.000 A 
ATOM      9  C   UNL     1       0.709  10.026  20.840  0.00  0.00    +0.000 A 
ATOM     10  F   UNL     1       0.149  11.082  21.444  0.00  0.00    +0.000 F 
ATOM     11  C   UNL     1       0.973  10.075  19.480  0.00  0.00    +0.000 A 
ATOM     12  C   UNL     1       1.549   8.968  18.860  0.00  0.00    +0.000 A 
ATOM     13  F   UNL     1       1.786   9.048  17.543  0.00  0.00    +0.000 F 
ENDBRANCH   4   6
BRANCH   1  14
ATOM     14  C   UNL     1       5.353   4.515  18.905  0.00  0.00    +0.000 C 
ATOM     15  O   UNL     1       5.481   3.425  19.453  0.00  0.00    +0.000 OA
BRANCH  14  16
ATOM     16  S   UNL     1       6.763   5.495  18.537  0.00  0.00    +0.000 S 
BRANCH  16  21
ATOM     17  C   UNL     1       6.249   3.753  13.317  0.00  0.00    +0.000 C 
ATOM     18  C   UNL     1       6.596   4.461  14.576  0.00  0.00    +0.000 A 
ATOM     19  N   UNL     1       7.366   5.524  14.664  0.00  0.00    +0.000 NA
ATOM     20  N   UNL     1       7.504   5.964  15.969  0.00  0.00    +0.000 NA
ATOM     21  C   UNL     1       6.828   5.219  16.818  0.00  0.00    +0.000 A 
ATOM     22  S   UNL     1       5.989   3.911  16.085  0.00  0.00    +0.000 S 
ENDBRANCH  16  21
ENDBRANCH  14  16
ENDBRANCH   1  14
TORSDOF 4
ENDMDL
MODEL 4
REMARK VINA RESULT:      -7.7      3.254      5.214
REMARK  Name = 
REMARK  5 active torsions:
REMARK  status: ('A' for Active; 'I' for Inactive)
REMARK    1  A    between atoms: C_1  and  C_2
REMARK    2  A    between atoms: C_5  and  S_6
REMARK    3  A    between atoms: S_6  and  C_7
REMARK    4  A    between atoms: C_7  and  C_9
REMARK    5  A    between atoms: C_12  and  C_13
REMARK                            x       y       z     vdW  Elec       q    Type
REMARK                         _______ _______ _______ _____ _____    ______ ____
ROOT
ATOM      1  C   UNL     1       3.375   4.369  19.681  0.00  0.00    +0.000 A 
ATOM      2  C   UNL     1       2.470   4.177  20.709  0.00  0.00    +0.000 A 
ATOM      3  C   UNL     1       1.726   5.376  20.832  0.00  0.00    +0.000 A 
ATOM      4  C   UNL     1       2.208   6.246  19.875  0.00  0.00    +0.000 A 
ATOM      5  O   UNL     1       3.209   5.631  19.175  0.00  0.00    +0.000 OA
ENDROOT
BRANCH   4   6
ATOM      6  C   UNL     1       1.908   7.621  19.481  0.00  0.00    +0.000 A 
ATOM      7  C   UNL     1       2.281   8.107  18.215  0.00  0.00    +0.000 A 
ATOM      8  C   UNL     1       2.016   9.428  17.846  0.00  0.00    +0.000 A 
ATOM      9  C   UNL     1       1.373  10.275  18.740  0.00  0.00    +0.000 A 
ATOM     10  F   UNL     1       1.126  11.542  18.387  0.00  0.00    +0.000 F 
ATOM     11  C   UNL     1       0.983   9.824  19.991  0.00  0.00    +0.000 A 
ATOM     12  C   UNL     1       1.252   8.505  20.353  0.00  0.00    +0.000 A 
ATOM     13  F   UNL     1       0.866   8.105  21.573  0.00  0.00    +0.000 F 
ENDBRANCH   4   6
BRANCH   1  14
ATOM     14  C   UNL     1       4.389   3.481  19.151  0.00  0.00    +0.000 C 
ATOM     15  O   UNL     1       4.985   2.636  19.813  0.00  0.00    +0.000 OA
BRANCH  14  16
ATOM     16  S   UNL     1       4.866   3.805  17.491  0.00  0.00    +0.000 S 
BRANCH  16  21
ATOM     17  C   UNL     1       8.049   8.315  17.760  0.00  0.00    +0.000 C 
ATOM     18  C   UNL     1       7.428   6.974  17.911  0.00  0.00    +0.000 A 
ATOM     19  N   UNL     1       7.876   6.012  18.690  0.00  0.00    +0.000 NA
ATOM     20  N   UNL     1       7.087   4.876  18.624  0.00  0.00    +0.000 NA
ATOM     21  C   UNL     1       6.069   5.025  17.802  0.00  0.00    +0.000 A 
ATOM     22  S   UNL     1       6.013   6.561  17.032  0.00  0.00    +0.000 S 
ENDBRANCH  16  21
ENDBRANCH  14  16
ENDBRANCH   1  14
TORSDOF 4
ENDMDL
MODEL 5
REMARK VINA RESULT:      -7.7      2.892      4.358
REMARK  Name = 
REMARK  5 active torsions:
REMARK  status: ('A' for Active; 'I' for Inactive)
REMARK    1  A    between atoms: C_1  and  C_2
REMARK    2  A    between atoms: C_5  and  S_6
REMARK    3  A    between atoms: S_6  and  C_7
REMARK    4  A    between atoms: C_7  and  C_9
REMARK    5  A    between atoms: C_12  and  C_13
REMARK                            x       y       z     vdW  Elec       q    Type
REMARK                         _______ _______ _______ _____ _____    ______ ____
ROOT
ATOM      1  C   UNL     1       3.795   4.882  19.658  0.00  0.00    +0.000 A 
ATOM      2  C   UNL     1       2.686   4.339  20.281  0.00  0.00    +0.000 A 
ATOM      3  C   UNL     1       1.722   5.372  20.380  0.00  0.00    +0.000 A 
ATOM      4  C   UNL     1       2.283   6.498  19.812  0.00  0.00    +0.000 A 
ATOM      5  O   UNL     1       3.542   6.198  19.372  0.00  0.00    +0.000 OA
ENDROOT
BRANCH   4   6
ATOM      6  C   UNL     1       1.849   7.879  19.609  0.00  0.00    +0.000 A 
ATOM      7  C   UNL     1       1.223   8.599  20.642  0.00  0.00    +0.000 A 
ATOM      8  C   UNL     1       0.788   9.912  20.441  0.00  0.00    +0.000 A 
ATOM      9  C   UNL     1       0.975  10.515  19.204  0.00  0.00    +0.000 A 
ATOM     10  F   UNL     1       0.550  11.770  19.012  0.00  0.00    +0.000 F 
ATOM     11  C   UNL     1       1.597   9.836  18.168  0.00  0.00    +0.000 A 
ATOM     12  C   UNL     1       2.029   8.528  18.376  0.00  0.00    +0.000 A 
ATOM     13  F   UNL     1       2.622   7.900  17.350  0.00  0.00    +0.000 F 
ENDBRANCH   4   6
BRANCH   1  14
ATOM     14  C   UNL     1       5.071   4.280  19.327  0.00  0.00    +0.000 C 
ATOM     15  O   UNL     1       5.307   3.078  19.398  0.00  0.00    +0.000 OA
BRANCH  14  16
ATOM     16  S   UNL     1       6.361   5.419  18.976  0.00  0.00    +0.000 S 
BRANCH  16  21
ATOM     17  C   UNL     1       5.872   3.896  13.685  0.00  0.00    +0.000 C 
ATOM     18  C   UNL     1       6.305   4.442  14.997  0.00  0.00    +0.000 A 
ATOM     19  N   UNL     1       7.412   5.122  15.211  0.00  0.00    +0.000 NA
ATOM     20  N   UNL     1       7.544   5.502  16.535  0.00  0.00    +0.000 NA
ATOM     21  C   UNL     1       6.530   5.100  17.272  0.00  0.00    +0.000 A 
ATOM     22  S   UNL     1       5.346   4.208  16.402  0.00  0.00    +0.000 S 
ENDBRANCH  16  21
ENDBRANCH  14  16
ENDBRANCH   1  14
TORSDOF 4
ENDMDL
MODEL 6
REMARK VINA RESULT:      -7.6      1.067      1.176
REMARK  Name = 
REMARK  5 active torsions:
REMARK  status: ('A' for Active; 'I' for Inactive)
REMARK    1  A    between atoms: C_1  and  C_2
REMARK    2  A    between atoms: C_5  and  S_6
REMARK    3  A    between atoms: S_6  and  C_7
REMARK    4  A    between atoms: C_7  and  C_9
REMARK    5  A    between atoms: C_12  and  C_13
REMARK                            x       y       z     vdW  Elec       q    Type
REMARK                         _______ _______ _______ _____ _____    ______ ____
ROOT
ATOM      1  C   UNL     1       5.231   6.550  17.701  0.00  0.00    +0.000 A 
ATOM      2  C   UNL     1       4.085   7.252  17.374  0.00  0.00    +0.000 A 
ATOM      3  C   UNL     1       3.019   6.657  18.092  0.00  0.00    +0.000 A 
ATOM      4  C   UNL     1       3.560   5.620  18.826  0.00  0.00    +0.000 A 
ATOM      5  O   UNL     1       4.905   5.559  18.588  0.00  0.00    +0.000 OA
ENDROOT
BRANCH   4   6
ATOM      6  C   UNL     1       3.029   4.612  19.741  0.00  0.00    +0.000 A 
ATOM      7  C   UNL     1       3.584   3.321  19.793  0.00  0.00    +0.000 A 
ATOM      8  C   UNL     1       3.062   2.349  20.651  0.00  0.00    +0.000 A 
ATOM      9  C   UNL     1       1.980   2.661  21.465  0.00  0.00    +0.000 A 
ATOM     10  F   UNL     1       1.477   1.726  22.280  0.00  0.00    +0.000 F 
ATOM     11  C   UNL     1       1.416   3.927  21.444  0.00  0.00    +0.000 A 
ATOM     12  C   UNL     1       1.942   4.891  20.586  0.00  0.00    +0.000 A 
ATOM     13  F   UNL     1       1.368   6.103  20.588  0.00  0.00    +0.000 F 
ENDBRANCH   4   6
BRANCH   1  14
ATOM     14  C   UNL     1       6.594   6.719  17.238  0.00  0.00    +0.000 C 
ATOM     15  O   UNL     1       7.061   7.779  16.834  0.00  0.00    +0.000 OA
BRANCH  14  16
ATOM     16  S   UNL     1       7.525   5.234  17.115  0.00  0.00    +0.000 S 
BRANCH  16  21
ATOM     17  C   UNL     1       5.548   3.316  12.323  0.00  0.00    +0.000 C 
ATOM     18  C   UNL     1       6.298   4.007  13.404  0.00  0.00    +0.000 A 
ATOM     19  N   UNL     1       7.278   4.867  13.220  0.00  0.00    +0.000 NA
ATOM     20  N   UNL     1       7.782   5.348  14.416  0.00  0.00    +0.000 NA
ATOM     21  C   UNL     1       7.161   4.837  15.459  0.00  0.00    +0.000 A 
ATOM     22  S   UNL     1       5.925   3.713  15.053  0.00  0.00    +0.000 S 
ENDBRANCH  16  21
ENDBRANCH  14  16
ENDBRANCH   1  14
TORSDOF 4
ENDMDL
MODEL 7
REMARK VINA RESULT:      -7.6      5.799      8.165
REMARK  Name = 
REMARK  5 active torsions:
REMARK  status: ('A' for Active; 'I' for Inactive)
REMARK    1  A    between atoms: C_1  and  C_2
REMARK    2  A    between atoms: C_5  and  S_6
REMARK    3  A    between atoms: S_6  and  C_7
REMARK    4  A    between atoms: C_7  and  C_9
REMARK    5  A    between atoms: C_12  and  C_13
REMARK                            x       y       z     vdW  Elec       q    Type
REMARK                         _______ _______ _______ _____ _____    ______ ____
ROOT
ATOM      1  C   UNL     1       8.021   7.265  18.551  0.00  0.00    +0.000 A 
ATOM      2  C   UNL     1       7.505   7.862  17.415  0.00  0.00    +0.000 A 
ATOM      3  C   UNL     1       7.938   9.210  17.426  0.00  0.00    +0.000 A 
ATOM      4  C   UNL     1       8.699   9.376  18.565  0.00  0.00    +0.000 A 
ATOM      5  O   UNL     1       8.750   8.192  19.246  0.00  0.00    +0.000 OA
ENDROOT
BRANCH   4   6
ATOM      6  C   UNL     1       9.412  10.495  19.180  0.00  0.00    +0.000 A 
ATOM      7  C   UNL     1       9.197  10.834  20.528  0.00  0.00    +0.000 A 
ATOM      8  C   UNL     1       9.860  11.917  21.110  0.00  0.00    +0.000 A 
ATOM      9  C   UNL     1      10.743  12.672  20.349  0.00  0.00    +0.000 A 
ATOM     10  F   UNL     1      11.371  13.714  20.907  0.00  0.00    +0.000 F 
ATOM     11  C   UNL     1      10.984  12.358  19.020  0.00  0.00    +0.000 A 
ATOM     12  C   UNL     1      10.319  11.277  18.446  0.00  0.00    +0.000 A 
ATOM     13  F   UNL     1      10.572  11.006  17.158  0.00  0.00    +0.000 F 
ENDBRANCH   4   6
BRANCH   1  14
ATOM     14  C   UNL     1       7.871   5.911  19.045  0.00  0.00    +0.000 C 
ATOM     15  O   UNL     1       8.089   5.569  20.203  0.00  0.00    +0.000 OA
BRANCH  14  16
ATOM     16  S   UNL     1       7.519   4.706  17.816  0.00  0.00    +0.000 S 
BRANCH  16  21
ATOM     17  C   UNL     1       1.992   4.683  17.866  0.00  0.00    +0.000 C 
ATOM     18  C   UNL     1       3.440   4.498  18.142  0.00  0.00    +0.000 A 
ATOM     19  N   UNL     1       3.941   3.802  19.140  0.00  0.00    +0.000 NA
ATOM     20  N   UNL     1       5.325   3.807  19.138  0.00  0.00    +0.000 NA
ATOM     21  C   UNL     1       5.818   4.503  18.134  0.00  0.00    +0.000 A 
ATOM     22  S   UNL     1       4.623   5.220  17.129  0.00  0.00    +0.000 S 
ENDBRANCH  16  21
ENDBRANCH  14  16
ENDBRANCH   1  14
TORSDOF 4
ENDMDL
MODEL 8
REMARK VINA RESULT:      -7.5      5.675      8.209
REMARK  Name = 
REMARK  5 active torsions:
REMARK  status: ('A' for Active; 'I' for Inactive)
REMARK    1  A    between atoms: C_1  and  C_2
REMARK    2  A    between atoms: C_5  and  S_6
REMARK    3  A    between atoms: S_6  and  C_7
REMARK    4  A    between atoms: C_7  and  C_9
REMARK    5  A    between atoms: C_12  and  C_13
REMARK                            x       y       z     vdW  Elec       q    Type
REMARK                         _______ _______ _______ _____ _____    ______ ____
ROOT
ATOM      1  C   UNL     1       7.912   7.294  18.443  0.00  0.00    +0.000 A 
ATOM      2  C   UNL     1       7.136   7.953  17.507  0.00  0.00    +0.000 A 
ATOM      3  C   UNL     1       7.606   9.288  17.449  0.00  0.00    +0.000 A 
ATOM      4  C   UNL     1       8.647   9.385  18.350  0.00  0.00    +0.000 A 
ATOM      5  O   UNL     1       8.833   8.171  18.951  0.00  0.00    +0.000 OA
ENDROOT
BRANCH   4   6
ATOM      6  C   UNL     1       9.537  10.457  18.792  0.00  0.00    +0.000 A 
ATOM      7  C   UNL     1      10.358  11.137  17.874  0.00  0.00    +0.000 A 
ATOM      8  C   UNL     1      11.226  12.147  18.299  0.00  0.00    +0.000 A 
ATOM      9  C   UNL     1      11.280  12.484  19.645  0.00  0.00    +0.000 A 
ATOM     10  F   UNL     1      12.119  13.446  20.050  0.00  0.00    +0.000 F 
ATOM     11  C   UNL     1      10.478  11.839  20.573  0.00  0.00    +0.000 A 
ATOM     12  C   UNL     1       9.615  10.834  20.143  0.00  0.00    +0.000 A 
ATOM     13  F   UNL     1       8.857  10.227  21.068  0.00  0.00    +0.000 F 
ENDBRANCH   4   6
BRANCH   1  14
ATOM     14  C   UNL     1       7.849   5.924  18.912  0.00  0.00    +0.000 C 
ATOM     15  O   UNL     1       8.150   5.567  20.047  0.00  0.00    +0.000 OA
BRANCH  14  16
ATOM     16  S   UNL     1       7.474   4.733  17.677  0.00  0.00    +0.000 S 
BRANCH  16  21
ATOM     17  C   UNL     1       1.953   4.553  17.871  0.00  0.00    +0.000 C 
ATOM     18  C   UNL     1       3.412   4.425  18.119  0.00  0.00    +0.000 A 
ATOM     19  N   UNL     1       3.958   3.797  19.138  0.00  0.00    +0.000 NA
ATOM     20  N   UNL     1       5.341   3.842  19.100  0.00  0.00    +0.000 NA
ATOM     21  C   UNL     1       5.788   4.498  18.049  0.00  0.00    +0.000 A 
ATOM     22  S   UNL     1       4.548   5.126  17.039  0.00  0.00    +0.000 S 
ENDBRANCH  16  21
ENDBRANCH  14  16
ENDBRANCH   1  14
TORSDOF 4
ENDMDL
MODEL 9
REMARK VINA RESULT:      -7.4      2.655      3.998
REMARK  Name = 
REMARK  5 active torsions:
REMARK  status: ('A' for Active; 'I' for Inactive)
REMARK    1  A    between atoms: C_1  and  C_2
REMARK    2  A    between atoms: C_5  and  S_6
REMARK    3  A    between atoms: S_6  and  C_7
REMARK    4  A    between atoms: C_7  and  C_9
REMARK    5  A    between atoms: C_12  and  C_13
REMARK                            x       y       z     vdW  Elec       q    Type
REMARK                         _______ _______ _______ _____ _____    ______ ____
ROOT
ATOM      1  C   UNL     1       4.754   5.266  18.701  0.00  0.00    +0.000 A 
ATOM      2  C   UNL     1       3.870   4.409  19.331  0.00  0.00    +0.000 A 
ATOM      3  C   UNL     1       2.696   5.155  19.600  0.00  0.00    +0.000 A 
ATOM      4  C   UNL     1       2.915   6.431  19.123  0.00  0.00    +0.000 A 
ATOM      5  O   UNL     1       4.166   6.496  18.575  0.00  0.00    +0.000 OA
ENDROOT
BRANCH   4   6
ATOM      6  C   UNL     1       2.144   7.673  19.097  0.00  0.00    +0.000 A 
ATOM      7  C   UNL     1       2.048   8.438  17.921  0.00  0.00    +0.000 A 
ATOM      8  C   UNL     1       1.331   9.637  17.900  0.00  0.00    +0.000 A 
ATOM      9  C   UNL     1       0.701  10.080  19.057  0.00  0.00    +0.000 A 
ATOM     10  F   UNL     1       0.021  11.233  19.036  0.00  0.00    +0.000 F 
ATOM     11  C   UNL     1       0.768   9.344  20.229  0.00  0.00    +0.000 A 
ATOM     12  C   UNL     1       1.486   8.150  20.243  0.00  0.00    +0.000 A 
ATOM     13  F   UNL     1       1.534   7.468  21.396  0.00  0.00    +0.000 F 
ENDBRANCH   4   6
BRANCH   1  14
ATOM     14  C   UNL     1       6.104   5.033  18.228  0.00  0.00    +0.000 C 
ATOM     15  O   UNL     1       6.800   4.080  18.563  0.00  0.00    +0.000 OA
BRANCH  14  16
ATOM     16  S   UNL     1       6.782   6.326  17.251  0.00  0.00    +0.000 S 
BRANCH  16  21
ATOM     17  C   UNL     1       5.749   3.350  12.709  0.00  0.00    +0.000 C 
ATOM     18  C   UNL     1       6.320   4.232  13.760  0.00  0.00    +0.000 A 
ATOM     19  N   UNL     1       7.459   4.884  13.669  0.00  0.00    +0.000 NA
ATOM     20  N   UNL     1       7.728   5.628  14.805  0.00  0.00    +0.000 NA
ATOM     21  C   UNL     1       6.778   5.514  15.710  0.00  0.00    +0.000 A 
ATOM     22  S   UNL     1       5.494   4.470  15.245  0.00  0.00    +0.000 S 
ENDBRANCH  16  21
ENDBRANCH  14  16
ENDBRANCH   1  14
TORSDOF 4
ENDMDL
