MODEL 1
REMARK VINA RESULT:      -8.3      0.000      0.000
REMARK  Name = 
REMARK  4 active torsions:
REMARK  status: ('A' for Active; 'I' for Inactive)
REMARK    1  A    between atoms: C_4  and  C_5
REMARK    2  A    between atoms: C_12  and  C_13
REMARK    3  A    between atoms: C_19  and  C_20
REMARK    4  A    between atoms: C_20  and  C_21
REMARK                            x       y       z     vdW  Elec       q    Type
REMARK                         _______ _______ _______ _____ _____    ______ ____
ROOT
ATOM      1  O   UNL     1       1.489   9.182  17.986  0.00  0.00    +0.000 OA
ATOM      2  C   UNL     1       2.126   8.186  18.343  0.00  0.00    +0.000 C 
ATOM      3  C   UNL     1       2.991   7.452  17.353  0.00  0.00    +0.000 C 
ATOM      4  C   UNL     1       4.256   6.892  17.997  0.00  0.00    +0.000 C 
ATOM      5  N   UNL     1       4.124   6.345  19.349  0.00  0.00    +0.000 NA
ATOM      6  C   UNL     1       2.794   6.358  19.966  0.00  0.00    +0.000 C 
ATOM      7  C   UNL     1       2.044   7.687  19.773  0.00  0.00    +0.000 C 
ATOM      8  H   UNL     1       4.810   6.786  19.960  0.00  0.00    +0.000 HD
ENDROOT
BRANCH   4   9
ATOM      9  C   UNL     1       4.908   5.879  17.057  0.00  0.00    +0.000 A 
ATOM     10  C   UNL     1       5.267   6.245  15.750  0.00  0.00    +0.000 A 
ATOM     11  C   UNL     1       5.817   5.306  14.870  0.00  0.00    +0.000 A 
ATOM     12  C   UNL     1       6.008   3.987  15.276  0.00  0.00    +0.000 A 
ATOM     13  C   UNL     1       5.656   3.606  16.566  0.00  0.00    +0.000 A 
ATOM     14  C   UNL     1       5.115   4.543  17.445  0.00  0.00    +0.000 A 
ENDBRANCH   4   9
BRANCH   6  15
ATOM     15  C   UNL     1       2.056   5.048  19.694  0.00  0.00    +0.000 A 
ATOM     16  C   UNL     1       1.692   4.249  20.796  0.00  0.00    +0.000 A 
ATOM     17  C   UNL     1       1.045   3.027  20.621  0.00  0.00    +0.000 A 
ATOM     18  C   UNL     1       0.774   2.564  19.338  0.00  0.00    +0.000 A 
ATOM     19  C   UNL     1       1.122   3.337  18.235  0.00  0.00    +0.000 A 
ATOM     20  C   UNL     1       1.741   4.576  18.412  0.00  0.00    +0.000 A 
ENDBRANCH   6  15
BRANCH   7  21
ATOM     21  C   UNL     1       0.584   7.675  20.279  0.00  0.00    +0.000 C 
BRANCH  21  22
ATOM     22  C   UNL     1       0.195   8.894  21.089  0.00  0.00    +0.000 A 
ATOM     23  C   UNL     1      -0.039   8.785  22.468  0.00  0.00    +0.000 A 
ATOM     24  C   UNL     1      -0.400   9.905  23.216  0.00  0.00    +0.000 A 
ATOM     25  C   UNL     1      -0.533  11.147  22.599  0.00  0.00    +0.000 A 
ATOM     26  C   UNL     1      -0.303  11.270  21.231  0.00  0.00    +0.000 A 
ATOM     27  C   UNL     1       0.064  10.153  20.481  0.00  0.00    +0.000 A 
ENDBRANCH  21  22
ENDBRANCH   7  21
TORSDOF 4
ENDMDL
MODEL 2
REMARK VINA RESULT:      -8.2      0.625      1.299
REMARK  Name = 
REMARK  4 active torsions:
REMARK  status: ('A' for Active; 'I' for Inactive)
REMARK    1  A    between atoms: C_4  and  C_5
REMARK    2  A    between atoms: C_12  and  C_13
REMARK    3  A    between atoms: C_19  and  C_20
REMARK    4  A    between atoms: C_20  and  C_21
REMARK                            x       y       z     vdW  Elec       q    Type
REMARK                         _______ _______ _______ _____ _____    ______ ____
ROOT
ATOM      1  O   UNL     1       1.831   9.250  17.853  0.00  0.00    +0.000 OA
ATOM      2  C   UNL     1       2.400   8.242  18.282  0.00  0.00    +0.000 C 
ATOM      3  C   UNL     1       3.371   7.495  17.406  0.00  0.00    +0.000 C 
ATOM      4  C   UNL     1       4.535   6.911  18.202  0.00  0.00    +0.000 C 
ATOM      5  N   UNL     1       4.222   6.362  19.523  0.00  0.00    +0.000 NA
ATOM      6  C   UNL     1       2.825   6.397  19.966  0.00  0.00    +0.000 C 
ATOM      7  C   UNL     1       2.128   7.739  19.688  0.00  0.00    +0.000 C 
ATOM      8  H   UNL     1       4.832   6.788  20.219  0.00  0.00    +0.000 HD
ENDROOT
BRANCH   4   9
ATOM      9  C   UNL     1       5.283   5.890  17.346  0.00  0.00    +0.000 A 
ATOM     10  C   UNL     1       6.528   5.389  17.757  0.00  0.00    +0.000 A 
ATOM     11  C   UNL     1       7.239   4.492  16.952  0.00  0.00    +0.000 A 
ATOM     12  C   UNL     1       6.724   4.090  15.720  0.00  0.00    +0.000 A 
ATOM     13  C   UNL     1       5.493   4.577  15.297  0.00  0.00    +0.000 A 
ATOM     14  C   UNL     1       4.781   5.465  16.102  0.00  0.00    +0.000 A 
ENDBRANCH   4   9
BRANCH   6  15
ATOM     15  C   UNL     1       2.105   5.100  19.596  0.00  0.00    +0.000 A 
ATOM     16  C   UNL     1       1.600   4.299  20.638  0.00  0.00    +0.000 A 
ATOM     17  C   UNL     1       0.959   3.089  20.375  0.00  0.00    +0.000 A 
ATOM     18  C   UNL     1       0.837   2.641  19.065  0.00  0.00    +0.000 A 
ATOM     19  C   UNL     1       1.325   3.417  18.019  0.00  0.00    +0.000 A 
ATOM     20  C   UNL     1       1.938   4.644  18.281  0.00  0.00    +0.000 A 
ENDBRANCH   6  15
BRANCH   7  21
ATOM     21  C   UNL     1       0.616   7.752  20.004  0.00  0.00    +0.000 C 
BRANCH  21  22
ATOM     22  C   UNL     1       0.180   8.875  20.921  0.00  0.00    +0.000 A 
ATOM     23  C   UNL     1      -0.203  10.116  20.391  0.00  0.00    +0.000 A 
ATOM     24  C   UNL     1      -0.602  11.154  21.234  0.00  0.00    +0.000 A 
ATOM     25  C   UNL     1      -0.624  10.967  22.615  0.00  0.00    +0.000 A 
ATOM     26  C   UNL     1      -0.247   9.739  23.154  0.00  0.00    +0.000 A 
ATOM     27  C   UNL     1       0.147   8.698  22.313  0.00  0.00    +0.000 A 
ENDBRANCH  21  22
ENDBRANCH   7  21
TORSDOF 4
ENDMDL
MODEL 3
REMARK VINA RESULT:      -7.9      0.581      1.307
REMARK  Name = 
REMARK  4 active torsions:
REMARK  status: ('A' for Active; 'I' for Inactive)
REMARK    1  A    between atoms: C_4  and  C_5
REMARK    2  A    between atoms: C_12  and  C_13
REMARK    3  A    between atoms: C_19  and  C_20
REMARK    4  A    between atoms: C_20  and  C_21
REMARK                            x       y       z     vdW  Elec       q    Type
REMARK                         _______ _______ _______ _____ _____    ______ ____
ROOT
ATOM      1  O   UNL     1       1.714   9.160  17.920  0.00  0.00    +0.000 OA
ATOM      2  C   UNL     1       2.327   8.176  18.342  0.00  0.00    +0.000 C 
ATOM      3  C   UNL     1       3.286   7.443  17.441  0.00  0.00    +0.000 C 
ATOM      4  C   UNL     1       4.495   6.904  18.201  0.00  0.00    +0.000 C 
ATOM      5  N   UNL     1       4.248   6.367  19.542  0.00  0.00    +0.000 NA
ATOM      6  C   UNL     1       2.868   6.370  20.037  0.00  0.00    +0.000 C 
ATOM      7  C   UNL     1       2.123   7.688  19.764  0.00  0.00    +0.000 C 
ATOM      8  H   UNL     1       4.871   6.822  20.208  0.00  0.00    +0.000 HD
ENDROOT
BRANCH   4   9
ATOM      9  C   UNL     1       5.240   5.891  17.334  0.00  0.00    +0.000 A 
ATOM     10  C   UNL     1       6.425   5.294  17.790  0.00  0.00    +0.000 A 
ATOM     11  C   UNL     1       7.136   4.404  16.978  0.00  0.00    +0.000 A 
ATOM     12  C   UNL     1       6.683   4.105  15.694  0.00  0.00    +0.000 A 
ATOM     13  C   UNL     1       5.512   4.688  15.225  0.00  0.00    +0.000 A 
ATOM     14  C   UNL     1       4.799   5.570  16.037  0.00  0.00    +0.000 A 
ENDBRANCH   4   9
BRANCH   6  15
ATOM     15  C   UNL     1       2.172   5.048  19.713  0.00  0.00    +0.000 A 
ATOM     16  C   UNL     1       2.031   4.685  18.359  0.00  0.00    +0.000 A 
ATOM     17  C   UNL     1       1.380   3.509  17.991  0.00  0.00    +0.000 A 
ATOM     18  C   UNL     1       0.831   2.686  18.967  0.00  0.00    +0.000 A 
ATOM     19  C   UNL     1       0.960   3.022  20.310  0.00  0.00    +0.000 A 
ATOM     20  C   UNL     1       1.641   4.184  20.681  0.00  0.00    +0.000 A 
ENDBRANCH   6  15
BRANCH   7  21
ATOM     21  C   UNL     1       0.624   7.663  20.137  0.00  0.00    +0.000 C 
BRANCH  21  22
ATOM     22  C   UNL     1       0.181   8.813  21.016  0.00  0.00    +0.000 A 
ATOM     23  C   UNL     1       0.049   8.638  22.402  0.00  0.00    +0.000 A 
ATOM     24  C   UNL     1      -0.361   9.695  23.214  0.00  0.00    +0.000 A 
ATOM     25  C   UNL     1      -0.646  10.939  22.656  0.00  0.00    +0.000 A 
ATOM     26  C   UNL     1      -0.519  11.127  21.282  0.00  0.00    +0.000 A 
ATOM     27  C   UNL     1      -0.103  10.074  20.468  0.00  0.00    +0.000 A 
ENDBRANCH  21  22
ENDBRANCH   7  21
TORSDOF 4
ENDMDL
MODEL 4
REMARK VINA RESULT:      -7.7      0.673      1.485
REMARK  Name = 
REMARK  4 active torsions:
REMARK  status: ('A' for Active; 'I' for Inactive)
REMARK    1  A    between atoms: C_4  and  C_5
REMARK    2  A    between atoms: C_12  and  C_13
REMARK    3  A    between atoms: C_19  and  C_20
REMARK    4  A    between atoms: C_20  and  C_21
REMARK                            x       y       z     vdW  Elec       q    Type
REMARK                         _______ _______ _______ _____ _____    ______ ____
ROOT
ATOM      1  O   UNL     1       1.833   9.340  17.630  0.00  0.00    +0.000 OA
ATOM      2  C   UNL     1       2.421   8.355  18.085  0.00  0.00    +0.000 C 
ATOM      3  C   UNL     1       3.406   7.605  17.227  0.00  0.00    +0.000 C 
ATOM      4  C   UNL     1       4.581   7.065  18.038  0.00  0.00    +0.000 C 
ATOM      5  N   UNL     1       4.280   6.544  19.373  0.00  0.00    +0.000 NA
ATOM      6  C   UNL     1       2.883   6.563  19.817  0.00  0.00    +0.000 C 
ATOM      7  C   UNL     1       2.159   7.884  19.504  0.00  0.00    +0.000 C 
ATOM      8  H   UNL     1       4.881   7.000  20.057  0.00  0.00    +0.000 HD
ENDROOT
BRANCH   4   9
ATOM      9  C   UNL     1       5.349   6.036  17.209  0.00  0.00    +0.000 A 
ATOM     10  C   UNL     1       4.876   5.637  15.949  0.00  0.00    +0.000 A 
ATOM     11  C   UNL     1       5.549   4.659  15.209  0.00  0.00    +0.000 A 
ATOM     12  C   UNL     1       6.697   4.055  15.719  0.00  0.00    +0.000 A 
ATOM     13  C   UNL     1       7.179   4.437  16.965  0.00  0.00    +0.000 A 
ATOM     14  C   UNL     1       6.513   5.417  17.700  0.00  0.00    +0.000 A 
ENDBRANCH   4   9
BRANCH   6  15
ATOM     15  C   UNL     1       2.188   5.244  19.481  0.00  0.00    +0.000 A 
ATOM     16  C   UNL     1       2.097   4.866  18.127  0.00  0.00    +0.000 A 
ATOM     17  C   UNL     1       1.450   3.692  17.746  0.00  0.00    +0.000 A 
ATOM     18  C   UNL     1       0.855   2.885  18.709  0.00  0.00    +0.000 A 
ATOM     19  C   UNL     1       0.935   3.235  20.052  0.00  0.00    +0.000 A 
ATOM     20  C   UNL     1       1.611   4.396  20.436  0.00  0.00    +0.000 A 
ENDBRANCH   6  15
BRANCH   7  21
ATOM     21  C   UNL     1       0.648   7.875  19.820  0.00  0.00    +0.000 C 
BRANCH  21  22
ATOM     22  C   UNL     1       0.210   8.942  20.803  0.00  0.00    +0.000 A 
ATOM     23  C   UNL     1      -0.162  10.216  20.348  0.00  0.00    +0.000 A 
ATOM     24  C   UNL     1      -0.563  11.201  21.251  0.00  0.00    +0.000 A 
ATOM     25  C   UNL     1      -0.597  10.928  22.617  0.00  0.00    +0.000 A 
ATOM     26  C   UNL     1      -0.231   9.667  23.082  0.00  0.00    +0.000 A 
ATOM     27  C   UNL     1       0.165   8.678  22.181  0.00  0.00    +0.000 A 
ENDBRANCH  21  22
ENDBRANCH   7  21
TORSDOF 4
ENDMDL
MODEL 5
REMARK VINA RESULT:      -7.4      1.119      1.502
REMARK  Name = 
REMARK  4 active torsions:
REMARK  status: ('A' for Active; 'I' for Inactive)
REMARK    1  A    between atoms: C_4  and  C_5
REMARK    2  A    between atoms: C_12  and  C_13
REMARK    3  A    between atoms: C_19  and  C_20
REMARK    4  A    between atoms: C_20  and  C_21
REMARK                            x       y       z     vdW  Elec       q    Type
REMARK                         _______ _______ _______ _____ _____    ______ ____
ROOT
ATOM      1  O   UNL     1       1.981   8.839  18.113  0.00  0.00    +0.000 OA
ATOM      2  C   UNL     1       2.631   7.812  18.332  0.00  0.00    +0.000 C 
ATOM      3  C   UNL     1       3.508   7.233  17.254  0.00  0.00    +0.000 C 
ATOM      4  C   UNL     1       4.781   6.608  17.819  0.00  0.00    +0.000 C 
ATOM      5  N   UNL     1       4.653   5.877  19.083  0.00  0.00    +0.000 NA
ATOM      6  C   UNL     1       3.322   5.787  19.690  0.00  0.00    +0.000 C 
ATOM      7  C   UNL     1       2.553   7.118  19.680  0.00  0.00    +0.000 C 
ATOM      8  H   UNL     1       5.331   6.239  19.752  0.00  0.00    +0.000 HD
ENDROOT
BRANCH   4   9
ATOM      9  C   UNL     1       5.449   5.744  16.751  0.00  0.00    +0.000 A 
ATOM     10  C   UNL     1       6.476   4.851  17.094  0.00  0.00    +0.000 A 
ATOM     11  C   UNL     1       7.124   4.095  16.111  0.00  0.00    +0.000 A 
ATOM     12  C   UNL     1       6.766   4.227  14.770  0.00  0.00    +0.000 A 
ATOM     13  C   UNL     1       5.752   5.107  14.412  0.00  0.00    +0.000 A 
ATOM     14  C   UNL     1       5.101   5.855  15.393  0.00  0.00    +0.000 A 
ENDBRANCH   4   9
BRANCH   6  15
ATOM     15  C   UNL     1       2.603   4.516  19.237  0.00  0.00    +0.000 A 
ATOM     16  C   UNL     1       1.509   4.063  19.999  0.00  0.00    +0.000 A 
ATOM     17  C   UNL     1       0.827   2.895  19.662  0.00  0.00    +0.000 A 
ATOM     18  C   UNL     1       1.243   2.140  18.572  0.00  0.00    +0.000 A 
ATOM     19  C   UNL     1       2.319   2.569  17.802  0.00  0.00    +0.000 A 
ATOM     20  C   UNL     1       2.983   3.756  18.121  0.00  0.00    +0.000 A 
ENDBRANCH   6  15
BRANCH   7  21
ATOM     21  C   UNL     1       1.092   7.017  20.172  0.00  0.00    +0.000 C 
BRANCH  21  22
ATOM     22  C   UNL     1       0.733   8.001  21.266  0.00  0.00    +0.000 A 
ATOM     23  C   UNL     1      -0.611   8.276  21.560  0.00  0.00    +0.000 A 
ATOM     24  C   UNL     1      -0.945   9.184  22.565  0.00  0.00    +0.000 A 
ATOM     25  C   UNL     1       0.056   9.829  23.288  0.00  0.00    +0.000 A 
ATOM     26  C   UNL     1       1.394   9.565  23.007  0.00  0.00    +0.000 A 
ATOM     27  C   UNL     1       1.731   8.653  22.007  0.00  0.00    +0.000 A 
ENDBRANCH  21  22
ENDBRANCH   7  21
TORSDOF 4
ENDMDL
MODEL 6
REMARK VINA RESULT:      -7.4      1.336      1.620
REMARK  Name = 
REMARK  4 active torsions:
REMARK  status: ('A' for Active; 'I' for Inactive)
REMARK    1  A    between atoms: C_4  and  C_5
REMARK    2  A    between atoms: C_12  and  C_13
REMARK    3  A    between atoms: C_19  and  C_20
REMARK    4  A    between atoms: C_20  and  C_21
REMARK                            x       y       z     vdW  Elec       q    Type
REMARK                         _______ _______ _______ _____ _____    ______ ____
ROOT
ATOM      1  O   UNL     1       1.984   8.493  18.212  0.00  0.00    +0.000 OA
ATOM      2  C   UNL     1       2.702   7.505  18.387  0.00  0.00    +0.000 C 
ATOM      3  C   UNL     1       3.528   6.965  17.249  0.00  0.00    +0.000 C 
ATOM      4  C   UNL     1       4.870   6.412  17.723  0.00  0.00    +0.000 C 
ATOM      5  N   UNL     1       4.875   5.686  18.995  0.00  0.00    +0.000 NA
ATOM      6  C   UNL     1       3.598   5.530  19.698  0.00  0.00    +0.000 C 
ATOM      7  C   UNL     1       2.760   6.819  19.739  0.00  0.00    +0.000 C 
ATOM      8  H   UNL     1       5.579   6.089  19.611  0.00  0.00    +0.000 HD
ENDROOT
BRANCH   4   9
ATOM      9  C   UNL     1       5.504   5.576  16.612  0.00  0.00    +0.000 A 
ATOM     10  C   UNL     1       6.859   5.735  16.282  0.00  0.00    +0.000 A 
ATOM     11  C   UNL     1       7.430   5.008  15.232  0.00  0.00    +0.000 A 
ATOM     12  C   UNL     1       6.656   4.119  14.487  0.00  0.00    +0.000 A 
ATOM     13  C   UNL     1       5.311   3.951  14.799  0.00  0.00    +0.000 A 
ATOM     14  C   UNL     1       4.744   4.670  15.850  0.00  0.00    +0.000 A 
ENDBRANCH   4   9
BRANCH   6  15
ATOM     15  C   UNL     1       2.917   4.219  19.304  0.00  0.00    +0.000 A 
ATOM     16  C   UNL     1       3.727   3.085  19.099  0.00  0.00    +0.000 A 
ATOM     17  C   UNL     1       3.177   1.865  18.708  0.00  0.00    +0.000 A 
ATOM     18  C   UNL     1       1.809   1.762  18.487  0.00  0.00    +0.000 A 
ATOM     19  C   UNL     1       0.989   2.867  18.687  0.00  0.00    +0.000 A 
ATOM     20  C   UNL     1       1.536   4.081  19.109  0.00  0.00    +0.000 A 
ENDBRANCH   6  15
BRANCH   7  21
ATOM     21  C   UNL     1       1.347   6.644  20.338  0.00  0.00    +0.000 C 
BRANCH  21  22
ATOM     22  C   UNL     1       0.914   7.770  21.253  0.00  0.00    +0.000 A 
ATOM     23  C   UNL     1      -0.449   8.017  21.478  0.00  0.00    +0.000 A 
ATOM     24  C   UNL     1      -0.851   9.056  22.318  0.00  0.00    +0.000 A 
ATOM     25  C   UNL     1       0.099   9.860  22.944  0.00  0.00    +0.000 A 
ATOM     26  C   UNL     1       1.455   9.624  22.731  0.00  0.00    +0.000 A 
ATOM     27  C   UNL     1       1.861   8.583  21.895  0.00  0.00    +0.000 A 
ENDBRANCH  21  22
ENDBRANCH   7  21
TORSDOF 4
ENDMDL
MODEL 7
REMARK VINA RESULT:      -7.4      2.975      6.342
REMARK  Name = 
REMARK  4 active torsions:
REMARK  status: ('A' for Active; 'I' for Inactive)
REMARK    1  A    between atoms: C_4  and  C_5
REMARK    2  A    between atoms: C_12  and  C_13
REMARK    3  A    between atoms: C_19  and  C_20
REMARK    4  A    between atoms: C_20  and  C_21
REMARK                            x       y       z     vdW  Elec       q    Type
REMARK                         _______ _______ _______ _____ _____    ______ ____
ROOT
ATOM      1  O   UNL     1       0.340   9.661  24.115  0.00  0.00    +0.000 OA
ATOM      2  C   UNL     1       0.205   9.707  22.888  0.00  0.00    +0.000 C 
ATOM      3  C   UNL     1       1.190   8.997  21.997  0.00  0.00    +0.000 C 
ATOM      4  C   UNL     1       0.526   8.420  20.750  0.00  0.00    +0.000 C 
ATOM      5  N   UNL     1      -0.524   9.228  20.125  0.00  0.00    +0.000 NA
ATOM      6  C   UNL     1      -0.840  10.525  20.730  0.00  0.00    +0.000 C 
ATOM      7  C   UNL     1      -0.943  10.477  22.263  0.00  0.00    +0.000 C 
ATOM      8  H   UNL     1      -1.367   8.664  20.021  0.00  0.00    +0.000 HD
ENDROOT
BRANCH   4   9
ATOM      9  C   UNL     1       1.596   8.030  19.731  0.00  0.00    +0.000 A 
ATOM     10  C   UNL     1       1.830   8.827  18.600  0.00  0.00    +0.000 A 
ATOM     11  C   UNL     1       2.774   8.446  17.639  0.00  0.00    +0.000 A 
ATOM     12  C   UNL     1       3.490   7.260  17.786  0.00  0.00    +0.000 A 
ATOM     13  C   UNL     1       3.270   6.457  18.899  0.00  0.00    +0.000 A 
ATOM     14  C   UNL     1       2.335   6.839  19.860  0.00  0.00    +0.000 A 
ENDBRANCH   4   9
BRANCH   6  15
ATOM     15  C   UNL     1      -0.022  11.641  20.079  0.00  0.00    +0.000 A 
ATOM     16  C   UNL     1      -0.616  12.380  19.037  0.00  0.00    +0.000 A 
ATOM     17  C   UNL     1       0.082  13.391  18.379  0.00  0.00    +0.000 A 
ATOM     18  C   UNL     1       1.400  13.664  18.729  0.00  0.00    +0.000 A 
ATOM     19  C   UNL     1       2.005  12.950  19.757  0.00  0.00    +0.000 A 
ATOM     20  C   UNL     1       1.295  11.959  20.438  0.00  0.00    +0.000 A 
ENDBRANCH   6  15
BRANCH   7  21
ATOM     21  C   UNL     1      -1.122  11.857  22.935  0.00  0.00    +0.000 C 
BRANCH  21  22
ATOM     22  C   UNL     1      -2.546  12.373  22.929  0.00  0.00    +0.000 A 
ATOM     23  C   UNL     1      -3.107  12.895  21.754  0.00  0.00    +0.000 A 
ATOM     24  C   UNL     1      -4.417  13.373  21.747  0.00  0.00    +0.000 A 
ATOM     25  C   UNL     1      -5.183  13.339  22.909  0.00  0.00    +0.000 A 
ATOM     26  C   UNL     1      -4.639  12.822  24.083  0.00  0.00    +0.000 A 
ATOM     27  C   UNL     1      -3.331  12.337  24.092  0.00  0.00    +0.000 A 
ENDBRANCH  21  22
ENDBRANCH   7  21
TORSDOF 4
ENDMDL
MODEL 8
REMARK VINA RESULT:      -7.3      2.574      8.300
REMARK  Name = 
REMARK  4 active torsions:
REMARK  status: ('A' for Active; 'I' for Inactive)
REMARK    1  A    between atoms: C_4  and  C_5
REMARK    2  A    between atoms: C_12  and  C_13
REMARK    3  A    between atoms: C_19  and  C_20
REMARK    4  A    between atoms: C_20  and  C_21
REMARK                            x       y       z     vdW  Elec       q    Type
REMARK                         _______ _______ _______ _____ _____    ______ ____
ROOT
ATOM      1  O   UNL     1       1.460   7.554  20.942  0.00  0.00    +0.000 OA
ATOM      2  C   UNL     1       1.098   8.687  20.614  0.00  0.00    +0.000 C 
ATOM      3  C   UNL     1       0.290   9.525  21.570  0.00  0.00    +0.000 C 
ATOM      4  C   UNL     1       0.631  11.009  21.466  0.00  0.00    +0.000 C 
ATOM      5  N   UNL     1       0.892  11.536  20.124  0.00  0.00    +0.000 NA
ATOM      6  C   UNL     1       0.785  10.610  18.993  0.00  0.00    +0.000 C 
ATOM      7  C   UNL     1       1.454   9.249  19.250  0.00  0.00    +0.000 C 
ATOM      8  H   UNL     1       1.793  12.012  20.117  0.00  0.00    +0.000 HD
ENDROOT
BRANCH   4   9
ATOM      9  C   UNL     1      -0.437  11.834  22.182  0.00  0.00    +0.000 A 
ATOM     10  C   UNL     1      -1.500  11.204  22.846  0.00  0.00    +0.000 A 
ATOM     11  C   UNL     1      -2.508  11.958  23.459  0.00  0.00    +0.000 A 
ATOM     12  C   UNL     1      -2.475  13.350  23.410  0.00  0.00    +0.000 A 
ATOM     13  C   UNL     1      -1.430  13.991  22.754  0.00  0.00    +0.000 A 
ATOM     14  C   UNL     1      -0.423  13.241  22.149  0.00  0.00    +0.000 A 
ENDBRANCH   4   9
BRANCH   6  15
ATOM     15  C   UNL     1      -0.623  10.640  18.398  0.00  0.00    +0.000 A 
ATOM     16  C   UNL     1      -1.533  11.594  18.891  0.00  0.00    +0.000 A 
ATOM     17  C   UNL     1      -2.842  11.658  18.415  0.00  0.00    +0.000 A 
ATOM     18  C   UNL     1      -3.277  10.749  17.458  0.00  0.00    +0.000 A 
ATOM     19  C   UNL     1      -2.395   9.799  16.954  0.00  0.00    +0.000 A 
ATOM     20  C   UNL     1      -1.074   9.756  17.407  0.00  0.00    +0.000 A 
ENDBRANCH   6  15
BRANCH   7  21
ATOM     21  C   UNL     1       1.224   8.204  18.137  0.00  0.00    +0.000 C 
BRANCH  21  22
ATOM     22  C   UNL     1       2.387   7.258  17.919  0.00  0.00    +0.000 A 
ATOM     23  C   UNL     1       3.632   7.750  17.499  0.00  0.00    +0.000 A 
ATOM     24  C   UNL     1       4.705   6.881  17.296  0.00  0.00    +0.000 A 
ATOM     25  C   UNL     1       4.549   5.513  17.508  0.00  0.00    +0.000 A 
ATOM     26  C   UNL     1       3.319   5.012  17.926  0.00  0.00    +0.000 A 
ATOM     27  C   UNL     1       2.246   5.879  18.136  0.00  0.00    +0.000 A 
ENDBRANCH  21  22
ENDBRANCH   7  21
TORSDOF 4
ENDMDL
MODEL 9
REMARK VINA RESULT:      -7.2      2.598      8.224
REMARK  Name = 
REMARK  4 active torsions:
REMARK  status: ('A' for Active; 'I' for Inactive)
REMARK    1  A    between atoms: C_4  and  C_5
REMARK    2  A    between atoms: C_12  and  C_13
REMARK    3  A    between atoms: C_19  and  C_20
REMARK    4  A    between atoms: C_20  and  C_21
REMARK                            x       y       z     vdW  Elec       q    Type
REMARK                         _______ _______ _______ _____ _____    ______ ____
ROOT
ATOM      1  O   UNL     1       1.456   7.596  20.923  0.00  0.00    +0.000 OA
ATOM      2  C   UNL     1       1.090   8.721  20.573  0.00  0.00    +0.000 C 
ATOM      3  C   UNL     1       0.290   9.579  21.518  0.00  0.00    +0.000 C 
ATOM      4  C   UNL     1       0.629  11.061  21.378  0.00  0.00    +0.000 C 
ATOM      5  N   UNL     1       0.876  11.558  20.023  0.00  0.00    +0.000 NA
ATOM      6  C   UNL     1       0.759  10.607  18.913  0.00  0.00    +0.000 C 
ATOM      7  C   UNL     1       1.432   9.253  19.194  0.00  0.00    +0.000 C 
ATOM      8  H   UNL     1       1.776  12.034  19.996  0.00  0.00    +0.000 HD
ENDROOT
BRANCH   4   9
ATOM      9  C   UNL     1      -0.433  11.901  22.086  0.00  0.00    +0.000 A 
ATOM     10  C   UNL     1      -0.329  13.301  22.122  0.00  0.00    +0.000 A 
ATOM     11  C   UNL     1      -1.273  14.070  22.812  0.00  0.00    +0.000 A 
ATOM     12  C   UNL     1      -2.327  13.455  23.486  0.00  0.00    +0.000 A 
ATOM     13  C   UNL     1      -2.444  12.070  23.462  0.00  0.00    +0.000 A 
ATOM     14  C   UNL     1      -1.508  11.304  22.769  0.00  0.00    +0.000 A 
ENDBRANCH   4   9
BRANCH   6  15
ATOM     15  C   UNL     1      -0.654  10.622  18.331  0.00  0.00    +0.000 A 
ATOM     16  C   UNL     1      -1.568  11.573  18.828  0.00  0.00    +0.000 A 
ATOM     17  C   UNL     1      -2.881  11.623  18.365  0.00  0.00    +0.000 A 
ATOM     18  C   UNL     1      -3.318  10.705  17.417  0.00  0.00    +0.000 A 
ATOM     19  C   UNL     1      -2.433   9.759  16.910  0.00  0.00    +0.000 A 
ATOM     20  C   UNL     1      -1.108   9.729  17.350  0.00  0.00    +0.000 A 
ENDBRANCH   6  15
BRANCH   7  21
ATOM     21  C   UNL     1       1.192   8.183  18.107  0.00  0.00    +0.000 C 
BRANCH  21  22
ATOM     22  C   UNL     1       2.362   7.246  17.885  0.00  0.00    +0.000 A 
ATOM     23  C   UNL     1       2.206   5.863  18.062  0.00  0.00    +0.000 A 
ATOM     24  C   UNL     1       3.282   4.998  17.861  0.00  0.00    +0.000 A 
ATOM     25  C   UNL     1       4.525   5.500  17.483  0.00  0.00    +0.000 A 
ATOM     26  C   UNL     1       4.693   6.871  17.303  0.00  0.00    +0.000 A 
ATOM     27  C   UNL     1       3.617   7.738  17.498  0.00  0.00    +0.000 A 
ENDBRANCH  21  22
ENDBRANCH   7  21
TORSDOF 4
ENDMDL
