MODEL 1
REMARK VINA RESULT:      -7.9      0.000      0.000
REMARK  Name = 
REMARK  3 active torsions:
REMARK  status: ('A' for Active; 'I' for Inactive)
REMARK    1  A    between atoms: C_1  and  C_2
REMARK    2  A    between atoms: C_2  and  N_3
REMARK    3  A    between atoms: C_11  and  C_12
REMARK                            x       y       z     vdW  Elec       q    Type
REMARK                         _______ _______ _______ _____ _____    ______ ____
ROOT
ATOM      1  N   UNL     1       1.788   4.129  20.482  0.00  0.00    +0.000 N 
ATOM      2  C   UNL     1       1.786   5.482  20.680  0.00  0.00    +0.000 A 
ATOM      3  C   UNL     1       2.562   6.052  19.698  0.00  0.00    +0.000 A 
ATOM      4  C   UNL     1       3.066   5.008  18.866  0.00  0.00    +0.000 A 
ATOM      5  C   UNL     1       3.871   4.949  17.705  0.00  0.00    +0.000 A 
ATOM      6  C   UNL     1       4.398   6.179  17.051  0.00  0.00    +0.000 A 
ATOM      7  O   UNL     1       4.197   7.306  17.484  0.00  0.00    +0.000 OA
ATOM      8  C   UNL     1       5.201   6.012  15.809  0.00  0.00    +0.000 A 
ATOM      9  C   UNL     1       5.417   4.776  15.341  0.00  0.00    +0.000 A 
ATOM     10  N   UNL     1       4.943   3.643  15.948  0.00  0.00    +0.000 N 
ATOM     11  C   UNL     1       4.184   3.699  17.124  0.00  0.00    +0.000 A 
ATOM     12  C   UNL     1       3.715   2.524  17.710  0.00  0.00    +0.000 A 
ATOM     13  C   UNL     1       2.920   2.556  18.857  0.00  0.00    +0.000 A 
ATOM     14  C   UNL     1       2.591   3.805  19.406  0.00  0.00    +0.000 A 
ATOM     15  H   UNL     1       5.193   2.746  15.552  0.00  0.00    +0.000 HD
ENDROOT
BRANCH   9  16
ATOM     16  C   UNL     1       6.200   4.581  14.114  0.00  0.00    +0.000 A 
ATOM     17  C   UNL     1       5.797   3.634  13.163  0.00  0.00    +0.000 A 
ATOM     18  C   UNL     1       6.513   3.485  11.975  0.00  0.00    +0.000 A 
ATOM     19  C   UNL     1       7.635   4.277  11.731  0.00  0.00    +0.000 A 
ATOM     20  C   UNL     1       8.047   5.215  12.676  0.00  0.00    +0.000 A 
ATOM     21  C   UNL     1       7.331   5.369  13.865  0.00  0.00    +0.000 A 
ENDBRANCH   9  16
BRANCH   1  23
ATOM     22  C   UNL     1       1.843   2.278  22.120  0.00  0.00    +0.000 C 
ATOM     23  C   UNL     1       0.992   3.187  21.254  0.00  0.00    +0.000 C 
ENDBRANCH   1  23
TORSDOF 2
ENDMDL
MODEL 2
REMARK VINA RESULT:      -7.8      4.483      6.966
REMARK  Name = 
REMARK  3 active torsions:
REMARK  status: ('A' for Active; 'I' for Inactive)
REMARK    1  A    between atoms: C_1  and  C_2
REMARK    2  A    between atoms: C_2  and  N_3
REMARK    3  A    between atoms: C_11  and  C_12
REMARK                            x       y       z     vdW  Elec       q    Type
REMARK                         _______ _______ _______ _____ _____    ______ ____
ROOT
ATOM      1  N   UNL     1      -0.227  12.028  21.491  0.00  0.00    +0.000 N 
ATOM      2  C   UNL     1      -0.086  12.700  20.308  0.00  0.00    +0.000 A 
ATOM      3  C   UNL     1       0.536  11.857  19.417  0.00  0.00    +0.000 A 
ATOM      4  C   UNL     1       0.794  10.620  20.080  0.00  0.00    +0.000 A 
ATOM      5  C   UNL     1       1.364   9.381  19.707  0.00  0.00    +0.000 A 
ATOM      6  C   UNL     1       1.854   9.125  18.323  0.00  0.00    +0.000 A 
ATOM      7  O   UNL     1       1.825   9.969  17.437  0.00  0.00    +0.000 OA
ATOM      8  C   UNL     1       2.398   7.774  18.020  0.00  0.00    +0.000 A 
ATOM      9  C   UNL     1       2.426   6.855  18.995  0.00  0.00    +0.000 A 
ATOM     10  N   UNL     1       1.986   7.092  20.271  0.00  0.00    +0.000 N 
ATOM     11  C   UNL     1       1.464   8.335  20.653  0.00  0.00    +0.000 A 
ATOM     12  C   UNL     1       1.023   8.536  21.959  0.00  0.00    +0.000 A 
ATOM     13  C   UNL     1       0.459   9.751  22.353  0.00  0.00    +0.000 A 
ATOM     14  C   UNL     1       0.336  10.770  21.396  0.00  0.00    +0.000 A 
ATOM     15  H   UNL     1       2.088   6.356  20.958  0.00  0.00    +0.000 HD
ENDROOT
BRANCH   9  16
ATOM     16  C   UNL     1       2.950   5.511  18.723  0.00  0.00    +0.000 A 
ATOM     17  C   UNL     1       4.086   5.048  19.399  0.00  0.00    +0.000 A 
ATOM     18  C   UNL     1       4.556   3.753  19.178  0.00  0.00    +0.000 A 
ATOM     19  C   UNL     1       3.896   2.915  18.279  0.00  0.00    +0.000 A 
ATOM     20  C   UNL     1       2.769   3.372  17.595  0.00  0.00    +0.000 A 
ATOM     21  C   UNL     1       2.296   4.667  17.817  0.00  0.00    +0.000 A 
ENDBRANCH   9  16
BRANCH   1  23
ATOM     22  C   UNL     1      -2.396  12.133  22.672  0.00  0.00    +0.000 C 
ATOM     23  C   UNL     1      -0.937  12.549  22.649  0.00  0.00    +0.000 C 
ENDBRANCH   1  23
TORSDOF 2
ENDMDL
MODEL 3
REMARK VINA RESULT:      -7.8      3.337      8.141
REMARK  Name = 
REMARK  3 active torsions:
REMARK  status: ('A' for Active; 'I' for Inactive)
REMARK    1  A    between atoms: C_1  and  C_2
REMARK    2  A    between atoms: C_2  and  N_3
REMARK    3  A    between atoms: C_11  and  C_12
REMARK                            x       y       z     vdW  Elec       q    Type
REMARK                         _______ _______ _______ _____ _____    ______ ____
ROOT
ATOM      1  N   UNL     1       4.570   4.267  16.860  0.00  0.00    +0.000 N 
ATOM      2  C   UNL     1       4.290   3.190  17.655  0.00  0.00    +0.000 A 
ATOM      3  C   UNL     1       3.528   3.635  18.711  0.00  0.00    +0.000 A 
ATOM      4  C   UNL     1       3.337   5.041  18.562  0.00  0.00    +0.000 A 
ATOM      5  C   UNL     1       2.641   6.041  19.279  0.00  0.00    +0.000 A 
ATOM      6  C   UNL     1       1.852   5.726  20.503  0.00  0.00    +0.000 A 
ATOM      7  O   UNL     1       1.780   4.601  20.981  0.00  0.00    +0.000 OA
ATOM      8  C   UNL     1       1.121   6.842  21.162  0.00  0.00    +0.000 A 
ATOM      9  C   UNL     1       1.205   8.070  20.633  0.00  0.00    +0.000 A 
ATOM     10  N   UNL     1       1.940   8.364  19.514  0.00  0.00    +0.000 N 
ATOM     11  C   UNL     1       2.667   7.381  18.830  0.00  0.00    +0.000 A 
ATOM     12  C   UNL     1       3.397   7.718  17.692  0.00  0.00    +0.000 A 
ATOM     13  C   UNL     1       4.095   6.749  16.968  0.00  0.00    +0.000 A 
ATOM     14  C   UNL     1       4.036   5.417  17.407  0.00  0.00    +0.000 A 
ATOM     15  H   UNL     1       1.985   9.328  19.209  0.00  0.00    +0.000 HD
ENDROOT
BRANCH   9  16
ATOM     16  C   UNL     1       0.489   9.189  21.257  0.00  0.00    +0.000 A 
ATOM     17  C   UNL     1      -0.056   9.050  22.540  0.00  0.00    +0.000 A 
ATOM     18  C   UNL     1      -0.693  10.129  23.153  0.00  0.00    +0.000 A 
ATOM     19  C   UNL     1      -0.792  11.351  22.489  0.00  0.00    +0.000 A 
ATOM     20  C   UNL     1      -0.260  11.496  21.208  0.00  0.00    +0.000 A 
ATOM     21  C   UNL     1       0.380  10.418  20.593  0.00  0.00    +0.000 A 
ENDBRANCH   9  16
BRANCH   1  23
ATOM     22  C   UNL     1       6.756   4.435  15.717  0.00  0.00    +0.000 C 
ATOM     23  C   UNL     1       5.266   4.184  15.584  0.00  0.00    +0.000 C 
ENDBRANCH   1  23
TORSDOF 2
ENDMDL
MODEL 4
REMARK VINA RESULT:      -7.8      3.390      8.197
REMARK  Name = 
REMARK  3 active torsions:
REMARK  status: ('A' for Active; 'I' for Inactive)
REMARK    1  A    between atoms: C_1  and  C_2
REMARK    2  A    between atoms: C_2  and  N_3
REMARK    3  A    between atoms: C_11  and  C_12
REMARK                            x       y       z     vdW  Elec       q    Type
REMARK                         _______ _______ _______ _____ _____    ______ ____
ROOT
ATOM      1  N   UNL     1       4.577   4.366  16.893  0.00  0.00    +0.000 N 
ATOM      2  C   UNL     1       4.315   3.292  17.699  0.00  0.00    +0.000 A 
ATOM      3  C   UNL     1       3.546   3.734  18.751  0.00  0.00    +0.000 A 
ATOM      4  C   UNL     1       3.332   5.135  18.589  0.00  0.00    +0.000 A 
ATOM      5  C   UNL     1       2.620   6.131  19.297  0.00  0.00    +0.000 A 
ATOM      6  C   UNL     1       1.837   5.815  20.524  0.00  0.00    +0.000 A 
ATOM      7  O   UNL     1       1.784   4.694  21.013  0.00  0.00    +0.000 OA
ATOM      8  C   UNL     1       1.089   6.925  21.173  0.00  0.00    +0.000 A 
ATOM      9  C   UNL     1       1.153   8.150  20.632  0.00  0.00    +0.000 A 
ATOM     10  N   UNL     1       1.882   8.444  19.510  0.00  0.00    +0.000 N 
ATOM     11  C   UNL     1       2.624   7.467  18.835  0.00  0.00    +0.000 A 
ATOM     12  C   UNL     1       3.349   7.805  17.693  0.00  0.00    +0.000 A 
ATOM     13  C   UNL     1       4.062   6.841  16.978  0.00  0.00    +0.000 A 
ATOM     14  C   UNL     1       4.024   5.512  17.430  0.00  0.00    +0.000 A 
ATOM     15  H   UNL     1       1.912   9.406  19.196  0.00  0.00    +0.000 HD
ENDROOT
BRANCH   9  16
ATOM     16  C   UNL     1       0.418   9.263  21.246  0.00  0.00    +0.000 A 
ATOM     17  C   UNL     1       0.126  10.412  20.499  0.00  0.00    +0.000 A 
ATOM     18  C   UNL     1      -0.615  11.448  21.067  0.00  0.00    +0.000 A 
ATOM     19  C   UNL     1      -1.065  11.345  22.384  0.00  0.00    +0.000 A 
ATOM     20  C   UNL     1      -0.770  10.209  23.137  0.00  0.00    +0.000 A 
ATOM     21  C   UNL     1      -0.031   9.169  22.570  0.00  0.00    +0.000 A 
ENDBRANCH   9  16
BRANCH   1  23
ATOM     22  C   UNL     1       6.767   4.506  15.755  0.00  0.00    +0.000 C 
ATOM     23  C   UNL     1       5.273   4.282  15.618  0.00  0.00    +0.000 C 
ENDBRANCH   1  23
TORSDOF 2
ENDMDL
MODEL 5
REMARK VINA RESULT:      -7.8      4.512      6.889
REMARK  Name = 
REMARK  3 active torsions:
REMARK  status: ('A' for Active; 'I' for Inactive)
REMARK    1  A    between atoms: C_1  and  C_2
REMARK    2  A    between atoms: C_2  and  N_3
REMARK    3  A    between atoms: C_11  and  C_12
REMARK                            x       y       z     vdW  Elec       q    Type
REMARK                         _______ _______ _______ _____ _____    ______ ____
ROOT
ATOM      1  N   UNL     1      -0.384  11.957  21.509  0.00  0.00    +0.000 N 
ATOM      2  C   UNL     1      -0.246  12.645  20.334  0.00  0.00    +0.000 A 
ATOM      3  C   UNL     1       0.415  11.830  19.445  0.00  0.00    +0.000 A 
ATOM      4  C   UNL     1       0.700  10.595  20.099  0.00  0.00    +0.000 A 
ATOM      5  C   UNL     1       1.312   9.377  19.723  0.00  0.00    +0.000 A 
ATOM      6  C   UNL     1       1.830   9.150  18.345  0.00  0.00    +0.000 A 
ATOM      7  O   UNL     1       1.789  10.002  17.467  0.00  0.00    +0.000 OA
ATOM      8  C   UNL     1       2.419   7.819  18.037  0.00  0.00    +0.000 A 
ATOM      9  C   UNL     1       2.460   6.892  19.003  0.00  0.00    +0.000 A 
ATOM     10  N   UNL     1       1.995   7.103  20.275  0.00  0.00    +0.000 N 
ATOM     11  C   UNL     1       1.430   8.325  20.660  0.00  0.00    +0.000 A 
ATOM     12  C   UNL     1       0.963   8.499  21.962  0.00  0.00    +0.000 A 
ATOM     13  C   UNL     1       0.357   9.693  22.358  0.00  0.00    +0.000 A 
ATOM     14  C   UNL     1       0.218  10.718  21.410  0.00  0.00    +0.000 A 
ATOM     15  H   UNL     1       2.108   6.362  20.955  0.00  0.00    +0.000 HD
ENDROOT
BRANCH   9  16
ATOM     16  C   UNL     1       3.029   5.567  18.726  0.00  0.00    +0.000 A 
ATOM     17  C   UNL     1       2.393   4.700  17.828  0.00  0.00    +0.000 A 
ATOM     18  C   UNL     1       2.959   3.462  17.526  0.00  0.00    +0.000 A 
ATOM     19  C   UNL     1       4.162   3.081  18.122  0.00  0.00    +0.000 A 
ATOM     20  C   UNL     1       4.797   3.934  19.024  0.00  0.00    +0.000 A 
ATOM     21  C   UNL     1       4.233   5.175  19.325  0.00  0.00    +0.000 A 
ENDBRANCH   9  16
BRANCH   1  23
ATOM     22  C   UNL     1      -2.624  12.465  22.421  0.00  0.00    +0.000 C 
ATOM     23  C   UNL     1      -1.127  12.444  22.661  0.00  0.00    +0.000 C 
ENDBRANCH   1  23
TORSDOF 2
ENDMDL
MODEL 6
REMARK VINA RESULT:      -7.8      4.567      7.259
REMARK  Name = 
REMARK  3 active torsions:
REMARK  status: ('A' for Active; 'I' for Inactive)
REMARK    1  A    between atoms: C_1  and  C_2
REMARK    2  A    between atoms: C_2  and  N_3
REMARK    3  A    between atoms: C_11  and  C_12
REMARK                            x       y       z     vdW  Elec       q    Type
REMARK                         _______ _______ _______ _____ _____    ______ ____
ROOT
ATOM      1  N   UNL     1      -0.979  11.917  20.857  0.00  0.00    +0.000 N 
ATOM      2  C   UNL     1      -0.727  12.421  19.610  0.00  0.00    +0.000 A 
ATOM      3  C   UNL     1       0.099  11.535  18.957  0.00  0.00    +0.000 A 
ATOM      4  C   UNL     1       0.370  10.447  19.839  0.00  0.00    +0.000 A 
ATOM      5  C   UNL     1       1.104   9.241  19.749  0.00  0.00    +0.000 A 
ATOM      6  C   UNL     1       1.818   8.846  18.503  0.00  0.00    +0.000 A 
ATOM      7  O   UNL     1       1.843   9.543  17.497  0.00  0.00    +0.000 OA
ATOM      8  C   UNL     1       2.526   7.537  18.496  0.00  0.00    +0.000 A 
ATOM      9  C   UNL     1       2.495   6.780  19.601  0.00  0.00    +0.000 A 
ATOM     10  N   UNL     1       1.848   7.148  20.752  0.00  0.00    +0.000 N 
ATOM     11  C   UNL     1       1.160   8.363  20.855  0.00  0.00    +0.000 A 
ATOM     12  C   UNL     1       0.511   8.699  22.042  0.00  0.00    +0.000 A 
ATOM     13  C   UNL     1      -0.218   9.885  22.156  0.00  0.00    +0.000 A 
ATOM     14  C   UNL     1      -0.292  10.732  21.040  0.00  0.00    +0.000 A 
ATOM     15  H   UNL     1       1.915   6.536  21.555  0.00  0.00    +0.000 HD
ENDROOT
BRANCH   9  16
ATOM     16  C   UNL     1       3.179   5.481  19.621  0.00  0.00    +0.000 A 
ATOM     17  C   UNL     1       2.541   4.357  20.160  0.00  0.00    +0.000 A 
ATOM     18  C   UNL     1       3.171   3.112  20.134  0.00  0.00    +0.000 A 
ATOM     19  C   UNL     1       4.441   2.984  19.572  0.00  0.00    +0.000 A 
ATOM     20  C   UNL     1       5.087   4.101  19.041  0.00  0.00    +0.000 A 
ATOM     21  C   UNL     1       4.457   5.347  19.064  0.00  0.00    +0.000 A 
ENDBRANCH   9  16
BRANCH   1  23
ATOM     22  C   UNL     1      -1.197  13.388  22.830  0.00  0.00    +0.000 C 
ATOM     23  C   UNL     1      -1.901  12.513  21.811  0.00  0.00    +0.000 C 
ENDBRANCH   1  23
TORSDOF 2
ENDMDL
MODEL 7
REMARK VINA RESULT:      -7.7      4.505      7.451
REMARK  Name = 
REMARK  3 active torsions:
REMARK  status: ('A' for Active; 'I' for Inactive)
REMARK    1  A    between atoms: C_1  and  C_2
REMARK    2  A    between atoms: C_2  and  N_3
REMARK    3  A    between atoms: C_11  and  C_12
REMARK                            x       y       z     vdW  Elec       q    Type
REMARK                         _______ _______ _______ _____ _____    ______ ____
ROOT
ATOM      1  N   UNL     1      -0.406  12.125  20.601  0.00  0.00    +0.000 N 
ATOM      2  C   UNL     1      -0.096  12.503  19.323  0.00  0.00    +0.000 A 
ATOM      3  C   UNL     1       0.610  11.476  18.740  0.00  0.00    +0.000 A 
ATOM      4  C   UNL     1       0.743  10.427  19.698  0.00  0.00    +0.000 A 
ATOM      5  C   UNL     1       1.317   9.135  19.699  0.00  0.00    +0.000 A 
ATOM      6  C   UNL     1       1.972   8.565  18.489  0.00  0.00    +0.000 A 
ATOM      7  O   UNL     1       2.083   9.180  17.436  0.00  0.00    +0.000 OA
ATOM      8  C   UNL     1       2.509   7.180  18.579  0.00  0.00    +0.000 A 
ATOM      9  C   UNL     1       2.384   6.513  19.735  0.00  0.00    +0.000 A 
ATOM     10  N   UNL     1       1.792   7.041  20.853  0.00  0.00    +0.000 N 
ATOM     11  C   UNL     1       1.264   8.338  20.866  0.00  0.00    +0.000 A 
ATOM     12  C   UNL     1       0.665   8.837  22.021  0.00  0.00    +0.000 A 
ATOM     13  C   UNL     1       0.094  10.110  22.046  0.00  0.00    +0.000 A 
ATOM     14  C   UNL     1       0.125  10.879  20.872  0.00  0.00    +0.000 A 
ATOM     15  H   UNL     1       1.783   6.484  21.698  0.00  0.00    +0.000 HD
ENDROOT
BRANCH   9  16
ATOM     16  C   UNL     1       2.898   5.143  19.851  0.00  0.00    +0.000 A 
ATOM     17  C   UNL     1       4.051   4.760  19.154  0.00  0.00    +0.000 A 
ATOM     18  C   UNL     1       4.567   3.473  19.304  0.00  0.00    +0.000 A 
ATOM     19  C   UNL     1       3.935   2.561  20.147  0.00  0.00    +0.000 A 
ATOM     20  C   UNL     1       2.781   2.931  20.838  0.00  0.00    +0.000 A 
ATOM     21  C   UNL     1       2.263   4.219  20.692  0.00  0.00    +0.000 A 
ENDBRANCH   9  16
BRANCH   1  23
ATOM     22  C   UNL     1      -0.434  13.806  22.413  0.00  0.00    +0.000 C 
ATOM     23  C   UNL     1      -1.243  12.900  21.504  0.00  0.00    +0.000 C 
ENDBRANCH   1  23
TORSDOF 2
ENDMDL
MODEL 8
REMARK VINA RESULT:      -7.7      3.740      5.468
REMARK  Name = 
REMARK  3 active torsions:
REMARK  status: ('A' for Active; 'I' for Inactive)
REMARK    1  A    between atoms: C_1  and  C_2
REMARK    2  A    between atoms: C_2  and  N_3
REMARK    3  A    between atoms: C_11  and  C_12
REMARK                            x       y       z     vdW  Elec       q    Type
REMARK                         _______ _______ _______ _____ _____    ______ ____
ROOT
ATOM      1  N   UNL     1       0.001  10.581  20.830  0.00  0.00    +0.000 N 
ATOM      2  C   UNL     1      -0.226   9.710  21.861  0.00  0.00    +0.000 A 
ATOM      3  C   UNL     1       0.420   8.532  21.565  0.00  0.00    +0.000 A 
ATOM      4  C   UNL     1       1.063   8.681  20.300  0.00  0.00    +0.000 A 
ATOM      5  C   UNL     1       1.885   7.865  19.489  0.00  0.00    +0.000 A 
ATOM      6  C   UNL     1       2.287   6.493  19.907  0.00  0.00    +0.000 A 
ATOM      7  O   UNL     1       1.912   5.975  20.951  0.00  0.00    +0.000 OA
ATOM      8  C   UNL     1       3.188   5.729  19.002  0.00  0.00    +0.000 A 
ATOM      9  C   UNL     1       3.593   6.303  17.861  0.00  0.00    +0.000 A 
ATOM     10  N   UNL     1       3.215   7.560  17.469  0.00  0.00    +0.000 N 
ATOM     11  C   UNL     1       2.364   8.351  18.252  0.00  0.00    +0.000 A 
ATOM     12  C   UNL     1       2.006   9.628  17.822  0.00  0.00    +0.000 A 
ATOM     13  C   UNL     1       1.194  10.452  18.604  0.00  0.00    +0.000 A 
ATOM     14  C   UNL     1       0.751   9.969  19.845  0.00  0.00    +0.000 A 
ATOM     15  H   UNL     1       3.531   7.898  16.569  0.00  0.00    +0.000 HD
ENDROOT
BRANCH   9  16
ATOM     16  C   UNL     1       4.489   5.577  16.951  0.00  0.00    +0.000 A 
ATOM     17  C   UNL     1       4.627   4.187  17.059  0.00  0.00    +0.000 A 
ATOM     18  C   UNL     1       5.439   3.490  16.164  0.00  0.00    +0.000 A 
ATOM     19  C   UNL     1       6.119   4.177  15.158  0.00  0.00    +0.000 A 
ATOM     20  C   UNL     1       5.993   5.562  15.049  0.00  0.00    +0.000 A 
ATOM     21  C   UNL     1       5.179   6.261  15.943  0.00  0.00    +0.000 A 
ENDBRANCH   9  16
BRANCH   1  23
ATOM     22  C   UNL     1      -1.837  12.142  20.288  0.00  0.00    +0.000 C 
ATOM     23  C   UNL     1      -0.428  11.971  20.823  0.00  0.00    +0.000 C 
ENDBRANCH   1  23
TORSDOF 2
ENDMDL
MODEL 9
REMARK VINA RESULT:      -7.7      0.082      1.034
REMARK  Name = 
REMARK  3 active torsions:
REMARK  status: ('A' for Active; 'I' for Inactive)
REMARK    1  A    between atoms: C_1  and  C_2
REMARK    2  A    between atoms: C_2  and  N_3
REMARK    3  A    between atoms: C_11  and  C_12
REMARK                            x       y       z     vdW  Elec       q    Type
REMARK                         _______ _______ _______ _____ _____    ______ ____
ROOT
ATOM      1  N   UNL     1       1.860   4.172  20.546  0.00  0.00    +0.000 N 
ATOM      2  C   UNL     1       1.871   5.525  20.747  0.00  0.00    +0.000 A 
ATOM      3  C   UNL     1       2.625   6.092  19.746  0.00  0.00    +0.000 A 
ATOM      4  C   UNL     1       3.101   5.047  18.900  0.00  0.00    +0.000 A 
ATOM      5  C   UNL     1       3.876   4.986  17.718  0.00  0.00    +0.000 A 
ATOM      6  C   UNL     1       4.392   6.214  17.053  0.00  0.00    +0.000 A 
ATOM      7  O   UNL     1       4.210   7.341  17.494  0.00  0.00    +0.000 OA
ATOM      8  C   UNL     1       5.163   6.046  15.791  0.00  0.00    +0.000 A 
ATOM      9  C   UNL     1       5.359   4.809  15.314  0.00  0.00    +0.000 A 
ATOM     10  N   UNL     1       4.894   3.678  15.932  0.00  0.00    +0.000 N 
ATOM     11  C   UNL     1       4.166   3.736  17.126  0.00  0.00    +0.000 A 
ATOM     12  C   UNL     1       3.706   2.562  17.721  0.00  0.00    +0.000 A 
ATOM     13  C   UNL     1       2.941   2.596  18.889  0.00  0.00    +0.000 A 
ATOM     14  C   UNL     1       2.633   3.845  19.449  0.00  0.00    +0.000 A 
ATOM     15  H   UNL     1       5.129   2.780  15.527  0.00  0.00    +0.000 HD
ENDROOT
BRANCH   9  16
ATOM     16  C   UNL     1       6.109   4.613  14.067  0.00  0.00    +0.000 A 
ATOM     17  C   UNL     1       7.251   5.381  13.803  0.00  0.00    +0.000 A 
ATOM     18  C   UNL     1       7.992   5.161  12.642  0.00  0.00    +0.000 A 
ATOM     19  C   UNL     1       7.596   4.175  11.738  0.00  0.00    +0.000 A 
ATOM     20  C   UNL     1       6.456   3.412  11.989  0.00  0.00    +0.000 A 
ATOM     21  C   UNL     1       5.714   3.630  13.152  0.00  0.00    +0.000 A 
ENDBRANCH   9  16
BRANCH   1  23
ATOM     22  C   UNL     1       1.946   2.248  22.096  0.00  0.00    +0.000 C 
ATOM     23  C   UNL     1       1.078   3.233  21.336  0.00  0.00    +0.000 C 
ENDBRANCH   1  23
TORSDOF 2
ENDMDL
