MODEL 1
REMARK VINA RESULT:      -5.5      0.000      0.000
REMARK  Name = 
REMARK  7 active torsions:
REMARK  status: ('A' for Active; 'I' for Inactive)
REMARK    1  A    between atoms: C_1  and  O_2
REMARK    2  A    between atoms: O_2  and  C_3
REMARK    3  A    between atoms: C_7  and  C_8
REMARK    4  A    between atoms: C_8  and  S_9
REMARK    5  A    between atoms: S_9  and  C_10
REMARK    6  A    between atoms: C_10  and  C_11
REMARK    7  A    between atoms: C_11  and  O_13
REMARK                            x       y       z     vdW  Elec       q    Type
REMARK                         _______ _______ _______ _____ _____    ______ ____
ROOT
ATOM      1  C   UNL     1       2.338   3.699  18.749  0.00  0.00    +0.000 A 
ATOM      2  C   UNL     1       1.741   4.080  19.952  0.00  0.00    +0.000 A 
ATOM      3  C   UNL     1       1.826   5.398  20.401  0.00  0.00    +0.000 A 
ATOM      4  C   UNL     1       2.497   6.353  19.637  0.00  0.00    +0.000 A 
ATOM      5  C   UNL     1       3.096   5.993  18.424  0.00  0.00    +0.000 A 
ATOM      6  C   UNL     1       3.025   4.654  18.000  0.00  0.00    +0.000 A 
ENDROOT
BRANCH   1   8
ATOM      7  C   UNL     1       3.359   1.599  18.324  0.00  0.00    +0.000 C 
ATOM      8  O   UNL     1       2.175   2.384  18.411  0.00  0.00    +0.000 OA
ENDBRANCH   1   8
BRANCH   5   9
ATOM      9  C   UNL     1       3.829   7.017  17.597  0.00  0.00    +0.000 C 
BRANCH   9  10
ATOM     10  S   UNL     1       5.060   6.298  16.446  0.00  0.00    +0.000 S 
BRANCH  10  11
ATOM     11  C   UNL     1       6.519   6.205  17.552  0.00  0.00    +0.000 C 
BRANCH  11  12
ATOM     12  C   UNL     1       7.072   4.799  17.637  0.00  0.00    +0.000 C 
ATOM     13  O   UNL     1       7.955   4.369  16.908  0.00  0.00    +0.000 OA
BRANCH  12  14
ATOM     14  O   UNL     1       6.461   4.017  18.561  0.00  0.00    +0.000 OA
ATOM     15  H   UNL     1       6.940   4.053  19.417  0.00  0.00    +0.000 HD
ENDBRANCH  12  14
ENDBRANCH  11  12
ENDBRANCH  10  11
ENDBRANCH   9  10
ENDBRANCH   5   9
TORSDOF 6
ENDMDL
MODEL 2
REMARK VINA RESULT:      -5.4      2.674      5.160
REMARK  Name = 
REMARK  7 active torsions:
REMARK  status: ('A' for Active; 'I' for Inactive)
REMARK    1  A    between atoms: C_1  and  O_2
REMARK    2  A    between atoms: O_2  and  C_3
REMARK    3  A    between atoms: C_7  and  C_8
REMARK    4  A    between atoms: C_8  and  S_9
REMARK    5  A    between atoms: S_9  and  C_10
REMARK    6  A    between atoms: C_10  and  C_11
REMARK    7  A    between atoms: C_11  and  O_13
REMARK                            x       y       z     vdW  Elec       q    Type
REMARK                         _______ _______ _______ _____ _____    ______ ____
ROOT
ATOM      1  C   UNL     1       5.719   4.505  15.865  0.00  0.00    +0.000 A 
ATOM      2  C   UNL     1       5.547   5.890  15.883  0.00  0.00    +0.000 A 
ATOM      3  C   UNL     1       4.626   6.478  16.751  0.00  0.00    +0.000 A 
ATOM      4  C   UNL     1       3.881   5.683  17.622  0.00  0.00    +0.000 A 
ATOM      5  C   UNL     1       4.045   4.292  17.624  0.00  0.00    +0.000 A 
ATOM      6  C   UNL     1       4.958   3.713  16.724  0.00  0.00    +0.000 A 
ENDROOT
BRANCH   1   8
ATOM      7  C   UNL     1       6.254   3.944  13.620  0.00  0.00    +0.000 C 
ATOM      8  O   UNL     1       6.659   4.049  14.981  0.00  0.00    +0.000 OA
ENDBRANCH   1   8
BRANCH   5   9
ATOM      9  C   UNL     1       3.240   3.427  18.557  0.00  0.00    +0.000 C 
BRANCH   9  10
ATOM     10  S   UNL     1       1.469   3.890  18.654  0.00  0.00    +0.000 S 
BRANCH  10  11
ATOM     11  C   UNL     1       1.054   3.227  20.312  0.00  0.00    +0.000 C 
BRANCH  11  12
ATOM     12  C   UNL     1       2.091   3.607  21.346  0.00  0.00    +0.000 C 
ATOM     13  O   UNL     1       2.604   2.812  22.120  0.00  0.00    +0.000 OA
BRANCH  12  14
ATOM     14  O   UNL     1       2.369   4.934  21.391  0.00  0.00    +0.000 OA
ATOM     15  H   UNL     1       3.339   5.085  21.382  0.00  0.00    +0.000 HD
ENDBRANCH  12  14
ENDBRANCH  11  12
ENDBRANCH  10  11
ENDBRANCH   9  10
ENDBRANCH   5   9
TORSDOF 6
ENDMDL
MODEL 3
REMARK VINA RESULT:      -5.4      2.357      5.334
REMARK  Name = 
REMARK  7 active torsions:
REMARK  status: ('A' for Active; 'I' for Inactive)
REMARK    1  A    between atoms: C_1  and  O_2
REMARK    2  A    between atoms: O_2  and  C_3
REMARK    3  A    between atoms: C_7  and  C_8
REMARK    4  A    between atoms: C_8  and  S_9
REMARK    5  A    between atoms: S_9  and  C_10
REMARK    6  A    between atoms: C_10  and  C_11
REMARK    7  A    between atoms: C_11  and  O_13
REMARK                            x       y       z     vdW  Elec       q    Type
REMARK                         _______ _______ _______ _____ _____    ______ ____
ROOT
ATOM      1  C   UNL     1       6.631   4.804  16.641  0.00  0.00    +0.000 A 
ATOM      2  C   UNL     1       7.234   5.226  17.827  0.00  0.00    +0.000 A 
ATOM      3  C   UNL     1       6.489   5.331  19.003  0.00  0.00    +0.000 A 
ATOM      4  C   UNL     1       5.135   4.996  19.004  0.00  0.00    +0.000 A 
ATOM      5  C   UNL     1       4.515   4.562  17.825  0.00  0.00    +0.000 A 
ATOM      6  C   UNL     1       5.273   4.489  16.643  0.00  0.00    +0.000 A 
ENDROOT
BRANCH   1   8
ATOM      7  C   UNL     1       6.847   4.584  14.287  0.00  0.00    +0.000 C 
ATOM      8  O   UNL     1       7.466   4.730  15.561  0.00  0.00    +0.000 OA
ENDBRANCH   1   8
BRANCH   5   9
ATOM      9  C   UNL     1       3.051   4.205  17.817  0.00  0.00    +0.000 C 
BRANCH   9  10
ATOM     10  S   UNL     1       2.729   2.401  17.824  0.00  0.00    +0.000 S 
BRANCH  10  11
ATOM     11  C   UNL     1       1.135   2.362  18.727  0.00  0.00    +0.000 C 
BRANCH  11  12
ATOM     12  C   UNL     1       1.273   2.899  20.135  0.00  0.00    +0.000 C 
ATOM     13  O   UNL     1       2.027   2.426  20.974  0.00  0.00    +0.000 OA
BRANCH  12  14
ATOM     14  O   UNL     1       0.438   3.928  20.422  0.00  0.00    +0.000 OA
ATOM     15  H   UNL     1       0.612   4.691  19.829  0.00  0.00    +0.000 HD
ENDBRANCH  12  14
ENDBRANCH  11  12
ENDBRANCH  10  11
ENDBRANCH   9  10
ENDBRANCH   5   9
TORSDOF 6
ENDMDL
MODEL 4
REMARK VINA RESULT:      -5.4      2.244      4.955
REMARK  Name = 
REMARK  7 active torsions:
REMARK  status: ('A' for Active; 'I' for Inactive)
REMARK    1  A    between atoms: C_1  and  O_2
REMARK    2  A    between atoms: O_2  and  C_3
REMARK    3  A    between atoms: C_7  and  C_8
REMARK    4  A    between atoms: C_8  and  S_9
REMARK    5  A    between atoms: S_9  and  C_10
REMARK    6  A    between atoms: C_10  and  C_11
REMARK    7  A    between atoms: C_11  and  O_13
REMARK                            x       y       z     vdW  Elec       q    Type
REMARK                         _______ _______ _______ _____ _____    ______ ____
ROOT
ATOM      1  C   UNL     1       5.035   4.536  16.152  0.00  0.00    +0.000 A 
ATOM      2  C   UNL     1       5.449   5.852  15.941  0.00  0.00    +0.000 A 
ATOM      3  C   UNL     1       4.853   6.904  16.638  0.00  0.00    +0.000 A 
ATOM      4  C   UNL     1       3.845   6.644  17.566  0.00  0.00    +0.000 A 
ATOM      5  C   UNL     1       3.420   5.329  17.797  0.00  0.00    +0.000 A 
ATOM      6  C   UNL     1       4.013   4.283  17.066  0.00  0.00    +0.000 A 
ENDROOT
BRANCH   1   8
ATOM      7  C   UNL     1       6.391   4.055  14.263  0.00  0.00    +0.000 C 
ATOM      8  O   UNL     1       5.702   3.593  15.420  0.00  0.00    +0.000 OA
ENDBRANCH   1   8
BRANCH   5   9
ATOM      9  C   UNL     1       2.328   5.041  18.793  0.00  0.00    +0.000 C 
BRANCH   9  10
ATOM     10  S   UNL     1       2.891   4.093  20.257  0.00  0.00    +0.000 S 
BRANCH  10  11
ATOM     11  C   UNL     1       1.564   2.832  20.353  0.00  0.00    +0.000 C 
BRANCH  11  12
ATOM     12  C   UNL     1       1.324   2.165  19.016  0.00  0.00    +0.000 C 
ATOM     13  O   UNL     1       0.258   2.206  18.417  0.00  0.00    +0.000 OA
BRANCH  12  14
ATOM     14  O   UNL     1       2.381   1.455  18.552  0.00  0.00    +0.000 OA
ATOM     15  H   UNL     1       2.117   0.531  18.350  0.00  0.00    +0.000 HD
ENDBRANCH  12  14
ENDBRANCH  11  12
ENDBRANCH  10  11
ENDBRANCH   9  10
ENDBRANCH   5   9
TORSDOF 6
ENDMDL
MODEL 5
REMARK VINA RESULT:      -5.3      1.753      2.306
REMARK  Name = 
REMARK  7 active torsions:
REMARK  status: ('A' for Active; 'I' for Inactive)
REMARK    1  A    between atoms: C_1  and  O_2
REMARK    2  A    between atoms: O_2  and  C_3
REMARK    3  A    between atoms: C_7  and  C_8
REMARK    4  A    between atoms: C_8  and  S_9
REMARK    5  A    between atoms: S_9  and  C_10
REMARK    6  A    between atoms: C_10  and  C_11
REMARK    7  A    between atoms: C_11  and  O_13
REMARK                            x       y       z     vdW  Elec       q    Type
REMARK                         _______ _______ _______ _____ _____    ______ ____
ROOT
ATOM      1  C   UNL     1       3.189   3.743  19.843  0.00  0.00    +0.000 A 
ATOM      2  C   UNL     1       2.515   4.940  20.090  0.00  0.00    +0.000 A 
ATOM      3  C   UNL     1       2.616   6.009  19.198  0.00  0.00    +0.000 A 
ATOM      4  C   UNL     1       3.381   5.880  18.039  0.00  0.00    +0.000 A 
ATOM      5  C   UNL     1       4.058   4.684  17.769  0.00  0.00    +0.000 A 
ATOM      6  C   UNL     1       3.968   3.627  18.692  0.00  0.00    +0.000 A 
ENDROOT
BRANCH   1   8
ATOM      7  C   UNL     1       1.764   2.789  21.485  0.00  0.00    +0.000 C 
ATOM      8  O   UNL     1       3.002   2.767  20.783  0.00  0.00    +0.000 OA
ENDBRANCH   1   8
BRANCH   5   9
ATOM      9  C   UNL     1       4.891   4.540  16.522  0.00  0.00    +0.000 C 
BRANCH   9  10
ATOM     10  S   UNL     1       6.374   5.617  16.493  0.00  0.00    +0.000 S 
BRANCH  10  11
ATOM     11  C   UNL     1       7.393   4.797  17.777  0.00  0.00    +0.000 C 
BRANCH  11  12
ATOM     12  C   UNL     1       7.664   5.714  18.950  0.00  0.00    +0.000 C 
ATOM     13  O   UNL     1       7.438   5.415  20.114  0.00  0.00    +0.000 OA
BRANCH  12  14
ATOM     14  O   UNL     1       8.131   6.938  18.601  0.00  0.00    +0.000 OA
ATOM     15  H   UNL     1       7.769   7.212  17.731  0.00  0.00    +0.000 HD
ENDBRANCH  12  14
ENDBRANCH  11  12
ENDBRANCH  10  11
ENDBRANCH   9  10
ENDBRANCH   5   9
TORSDOF 6
ENDMDL
MODEL 6
REMARK VINA RESULT:      -5.3      2.251      5.220
REMARK  Name = 
REMARK  7 active torsions:
REMARK  status: ('A' for Active; 'I' for Inactive)
REMARK    1  A    between atoms: C_1  and  O_2
REMARK    2  A    between atoms: O_2  and  C_3
REMARK    3  A    between atoms: C_7  and  C_8
REMARK    4  A    between atoms: C_8  and  S_9
REMARK    5  A    between atoms: S_9  and  C_10
REMARK    6  A    between atoms: C_10  and  C_11
REMARK    7  A    between atoms: C_11  and  O_13
REMARK                            x       y       z     vdW  Elec       q    Type
REMARK                         _______ _______ _______ _____ _____    ______ ____
ROOT
ATOM      1  C   UNL     1       6.737   5.167  16.650  0.00  0.00    +0.000 A 
ATOM      2  C   UNL     1       7.534   5.131  17.795  0.00  0.00    +0.000 A 
ATOM      3  C   UNL     1       6.966   5.287  19.060  0.00  0.00    +0.000 A 
ATOM      4  C   UNL     1       5.589   5.464  19.190  0.00  0.00    +0.000 A 
ATOM      5  C   UNL     1       4.771   5.495  18.053  0.00  0.00    +0.000 A 
ATOM      6  C   UNL     1       5.363   5.364  16.784  0.00  0.00    +0.000 A 
ENDROOT
BRANCH   1   8
ATOM      7  C   UNL     1       6.661   4.434  14.393  0.00  0.00    +0.000 C 
ATOM      8  O   UNL     1       7.406   4.990  15.470  0.00  0.00    +0.000 OA
ENDBRANCH   1   8
BRANCH   5   9
ATOM      9  C   UNL     1       3.283   5.693  18.185  0.00  0.00    +0.000 C 
BRANCH   9  10
ATOM     10  S   UNL     1       2.381   4.191  18.724  0.00  0.00    +0.000 S 
BRANCH  10  11
ATOM     11  C   UNL     1       2.190   4.555  20.510  0.00  0.00    +0.000 C 
BRANCH  11  12
ATOM     12  C   UNL     1       1.905   3.303  21.311  0.00  0.00    +0.000 C 
ATOM     13  O   UNL     1       2.735   2.737  22.009  0.00  0.00    +0.000 OA
BRANCH  12  14
ATOM     14  O   UNL     1       0.651   2.813  21.148  0.00  0.00    +0.000 OA
ATOM     15  H   UNL     1       0.532   2.462  20.239  0.00  0.00    +0.000 HD
ENDBRANCH  12  14
ENDBRANCH  11  12
ENDBRANCH  10  11
ENDBRANCH   9  10
ENDBRANCH   5   9
TORSDOF 6
ENDMDL
MODEL 7
REMARK VINA RESULT:      -5.3      2.393      5.009
REMARK  Name = 
REMARK  7 active torsions:
REMARK  status: ('A' for Active; 'I' for Inactive)
REMARK    1  A    between atoms: C_1  and  O_2
REMARK    2  A    between atoms: O_2  and  C_3
REMARK    3  A    between atoms: C_7  and  C_8
REMARK    4  A    between atoms: C_8  and  S_9
REMARK    5  A    between atoms: S_9  and  C_10
REMARK    6  A    between atoms: C_10  and  C_11
REMARK    7  A    between atoms: C_11  and  O_13
REMARK                            x       y       z     vdW  Elec       q    Type
REMARK                         _______ _______ _______ _____ _____    ______ ____
ROOT
ATOM      1  C   UNL     1       5.184   5.935  16.863  0.00  0.00    +0.000 A 
ATOM      2  C   UNL     1       4.524   7.031  17.420  0.00  0.00    +0.000 A 
ATOM      3  C   UNL     1       3.244   6.891  17.958  0.00  0.00    +0.000 A 
ATOM      4  C   UNL     1       2.621   5.643  17.959  0.00  0.00    +0.000 A 
ATOM      5  C   UNL     1       3.270   4.529  17.412  0.00  0.00    +0.000 A 
ATOM      6  C   UNL     1       4.548   4.694  16.849  0.00  0.00    +0.000 A 
ENDROOT
BRANCH   1   8
ATOM      7  C   UNL     1       7.323   6.890  17.251  0.00  0.00    +0.000 C 
ATOM      8  O   UNL     1       6.437   6.196  16.380  0.00  0.00    +0.000 OA
ENDBRANCH   1   8
BRANCH   5   9
ATOM      9  C   UNL     1       2.600   3.180  17.403  0.00  0.00    +0.000 C 
BRANCH   9  10
ATOM     10  S   UNL     1       2.892   2.197  18.922  0.00  0.00    +0.000 S 
BRANCH  10  11
ATOM     11  C   UNL     1       1.613   2.916  20.021  0.00  0.00    +0.000 C 
BRANCH  11  12
ATOM     12  C   UNL     1       2.213   3.468  21.296  0.00  0.00    +0.000 C 
ATOM     13  O   UNL     1       2.524   2.779  22.257  0.00  0.00    +0.000 OA
BRANCH  12  14
ATOM     14  O   UNL     1       2.326   4.820  21.316  0.00  0.00    +0.000 OA
ATOM     15  H   UNL     1       3.070   5.097  21.893  0.00  0.00    +0.000 HD
ENDBRANCH  12  14
ENDBRANCH  11  12
ENDBRANCH  10  11
ENDBRANCH   9  10
ENDBRANCH   5   9
TORSDOF 6
ENDMDL
MODEL 8
REMARK VINA RESULT:      -5.3      1.389      2.055
REMARK  Name = 
REMARK  7 active torsions:
REMARK  status: ('A' for Active; 'I' for Inactive)
REMARK    1  A    between atoms: C_1  and  O_2
REMARK    2  A    between atoms: O_2  and  C_3
REMARK    3  A    between atoms: C_7  and  C_8
REMARK    4  A    between atoms: C_8  and  S_9
REMARK    5  A    between atoms: S_9  and  C_10
REMARK    6  A    between atoms: C_10  and  C_11
REMARK    7  A    between atoms: C_11  and  O_13
REMARK                            x       y       z     vdW  Elec       q    Type
REMARK                         _______ _______ _______ _____ _____    ______ ____
ROOT
ATOM      1  C   UNL     1       2.510   3.950  20.237  0.00  0.00    +0.000 A 
ATOM      2  C   UNL     1       1.995   3.018  19.335  0.00  0.00    +0.000 A 
ATOM      3  C   UNL     1       2.026   3.266  17.963  0.00  0.00    +0.000 A 
ATOM      4  C   UNL     1       2.591   4.447  17.480  0.00  0.00    +0.000 A 
ATOM      5  C   UNL     1       3.121   5.391  18.369  0.00  0.00    +0.000 A 
ATOM      6  C   UNL     1       3.056   5.137  19.751  0.00  0.00    +0.000 A 
ENDROOT
BRANCH   1   8
ATOM      7  C   UNL     1       1.503   2.558  21.877  0.00  0.00    +0.000 C 
ATOM      8  O   UNL     1       2.432   3.587  21.554  0.00  0.00    +0.000 OA
ENDBRANCH   1   8
BRANCH   5   9
ATOM      9  C   UNL     1       3.727   6.671  17.856  0.00  0.00    +0.000 C 
BRANCH   9  10
ATOM     10  S   UNL     1       5.019   6.420  16.581  0.00  0.00    +0.000 S 
BRANCH  10  11
ATOM     11  C   UNL     1       6.417   5.886  17.640  0.00  0.00    +0.000 C 
BRANCH  11  12
ATOM     12  C   UNL     1       6.952   4.533  17.225  0.00  0.00    +0.000 C 
ATOM     13  O   UNL     1       8.138   4.234  17.247  0.00  0.00    +0.000 OA
BRANCH  12  14
ATOM     14  O   UNL     1       6.006   3.680  16.760  0.00  0.00    +0.000 OA
ATOM     15  H   UNL     1       6.255   3.334  15.876  0.00  0.00    +0.000 HD
ENDBRANCH  12  14
ENDBRANCH  11  12
ENDBRANCH  10  11
ENDBRANCH   9  10
ENDBRANCH   5   9
TORSDOF 6
ENDMDL
MODEL 9
REMARK VINA RESULT:      -5.3      2.304      4.903
REMARK  Name = 
REMARK  7 active torsions:
REMARK  status: ('A' for Active; 'I' for Inactive)
REMARK    1  A    between atoms: C_1  and  O_2
REMARK    2  A    between atoms: O_2  and  C_3
REMARK    3  A    between atoms: C_7  and  C_8
REMARK    4  A    between atoms: C_8  and  S_9
REMARK    5  A    between atoms: S_9  and  C_10
REMARK    6  A    between atoms: C_10  and  C_11
REMARK    7  A    between atoms: C_11  and  O_13
REMARK                            x       y       z     vdW  Elec       q    Type
REMARK                         _______ _______ _______ _____ _____    ______ ____
ROOT
ATOM      1  C   UNL     1       5.515   4.396  15.980  0.00  0.00    +0.000 A 
ATOM      2  C   UNL     1       5.433   5.711  15.519  0.00  0.00    +0.000 A 
ATOM      3  C   UNL     1       4.874   6.709  16.317  0.00  0.00    +0.000 A 
ATOM      4  C   UNL     1       4.406   6.402  17.594  0.00  0.00    +0.000 A 
ATOM      5  C   UNL     1       4.487   5.090  18.079  0.00  0.00    +0.000 A 
ATOM      6  C   UNL     1       5.029   4.090  17.251  0.00  0.00    +0.000 A 
ENDROOT
BRANCH   1   8
ATOM      7  C   UNL     1       6.323   3.978  13.787  0.00  0.00    +0.000 C 
ATOM      8  O   UNL     1       6.094   3.511  15.113  0.00  0.00    +0.000 OA
ENDBRANCH   1   8
BRANCH   5   9
ATOM      9  C   UNL     1       3.979   4.749  19.455  0.00  0.00    +0.000 C 
BRANCH   9  10
ATOM     10  S   UNL     1       2.359   5.505  19.855  0.00  0.00    +0.000 S 
BRANCH  10  11
ATOM     11  C   UNL     1       1.288   4.018  19.806  0.00  0.00    +0.000 C 
BRANCH  11  12
ATOM     12  C   UNL     1       1.383   3.301  18.477  0.00  0.00    +0.000 C 
ATOM     13  O   UNL     1       1.721   2.131  18.357  0.00  0.00    +0.000 OA
BRANCH  12  14
ATOM     14  O   UNL     1       1.119   4.084  17.403  0.00  0.00    +0.000 OA
ATOM     15  H   UNL     1       0.523   4.824  17.652  0.00  0.00    +0.000 HD
ENDBRANCH  12  14
ENDBRANCH  11  12
ENDBRANCH  10  11
ENDBRANCH   9  10
ENDBRANCH   5   9
TORSDOF 6
ENDMDL
