MODEL 1
REMARK VINA RESULT:      -6.3      0.000      0.000
REMARK  Name = 
REMARK  5 active torsions:
REMARK  status: ('A' for Active; 'I' for Inactive)
REMARK    1  A    between atoms: C_1  and  C_2
REMARK    2  A    between atoms: C_2  and  O_3
REMARK    3  A    between atoms: O_3  and  C_4
REMARK    4  A    between atoms: C_4  and  C_6
REMARK    5  A    between atoms: C_11  and  S_12
REMARK                            x       y       z     vdW  Elec       q    Type
REMARK                         _______ _______ _______ _____ _____    ______ ____
ROOT
ATOM      1  C   UNL     1       5.998   5.302  15.701  0.00  0.00    +0.000 C 
ATOM      2  C   UNL     1       5.041   6.511  15.862  0.00  0.00    +0.000 C 
ATOM      3  C   UNL     1       4.384   6.580  17.256  0.00  0.00    +0.000 C 
ATOM      4  C   UNL     1       3.913   5.237  17.693  0.00  0.00    +0.000 A 
ATOM      5  N   UNL     1       3.053   5.088  18.759  0.00  0.00    +0.000 NA
ATOM      6  C   UNL     1       2.832   3.804  18.951  0.00  0.00    +0.000 A 
ATOM      7  S   UNL     1       3.611   2.727  17.869  0.00  0.00    +0.000 S 
ATOM      8  C   UNL     1       4.330   4.064  17.097  0.00  0.00    +0.000 A 
ATOM      9  C   UNL     1       5.261   3.963  15.934  0.00  0.00    +0.000 C 
ENDROOT
BRANCH   1  10
ATOM     10  C   UNL     1       7.205   5.446  16.624  0.00  0.00    +0.000 C 
ATOM     11  O   UNL     1       7.733   4.535  17.239  0.00  0.00    +0.000 OA
BRANCH  10  12
ATOM     12  O   UNL     1       7.589   6.753  16.674  0.00  0.00    +0.000 OA
BRANCH  12  14
ATOM     13  C   UNL     1       8.109   8.779  17.913  0.00  0.00    +0.000 C 
ATOM     14  C   UNL     1       7.875   7.283  17.978  0.00  0.00    +0.000 C 
ENDBRANCH  12  14
ENDBRANCH  10  12
ENDBRANCH   1  10
BRANCH   6  15
ATOM     15  S   UNL     1       1.795   3.270  20.248  0.00  0.00    +0.000 S 
ATOM     16  H   UNL     1       1.595   4.488  20.768  0.00  0.00    +0.000 HD
ENDBRANCH   6  15
TORSDOF 4
ENDMDL
MODEL 2
REMARK VINA RESULT:      -5.9      3.502      5.605
REMARK  Name = 
REMARK  5 active torsions:
REMARK  status: ('A' for Active; 'I' for Inactive)
REMARK    1  A    between atoms: C_1  and  C_2
REMARK    2  A    between atoms: C_2  and  O_3
REMARK    3  A    between atoms: O_3  and  C_4
REMARK    4  A    between atoms: C_4  and  C_6
REMARK    5  A    between atoms: C_11  and  S_12
REMARK                            x       y       z     vdW  Elec       q    Type
REMARK                         _______ _______ _______ _____ _____    ______ ____
ROOT
ATOM      1  C   UNL     1       2.756   2.747  17.577  0.00  0.00    +0.000 C 
ATOM      2  C   UNL     1       3.562   1.981  18.658  0.00  0.00    +0.000 C 
ATOM      3  C   UNL     1       4.435   2.906  19.530  0.00  0.00    +0.000 C 
ATOM      4  C   UNL     1       5.144   3.916  18.698  0.00  0.00    +0.000 A 
ATOM      5  N   UNL     1       6.186   4.663  19.204  0.00  0.00    +0.000 NA
ATOM      6  C   UNL     1       6.601   5.498  18.275  0.00  0.00    +0.000 A 
ATOM      7  S   UNL     1       5.794   5.420  16.765  0.00  0.00    +0.000 S 
ATOM      8  C   UNL     1       4.786   4.201  17.396  0.00  0.00    +0.000 A 
ATOM      9  C   UNL     1       3.689   3.536  16.630  0.00  0.00    +0.000 C 
ENDROOT
BRANCH   1  10
ATOM     10  C   UNL     1       1.718   3.657  18.227  0.00  0.00    +0.000 C 
ATOM     11  O   UNL     1       1.535   4.829  17.947  0.00  0.00    +0.000 OA
BRANCH  10  12
ATOM     12  O   UNL     1       1.040   2.966  19.187  0.00  0.00    +0.000 OA
BRANCH  12  14
ATOM     13  C   UNL     1       1.395   2.770  21.584  0.00  0.00    +0.000 C 
ATOM     14  C   UNL     1       0.871   3.628  20.449  0.00  0.00    +0.000 C 
ENDBRANCH  12  14
ENDBRANCH  10  12
ENDBRANCH   1  10
BRANCH   6  15
ATOM     15  S   UNL     1       7.905   6.609  18.604  0.00  0.00    +0.000 S 
ATOM     16  H   UNL     1       7.905   7.176  17.391  0.00  0.00    +0.000 HD
ENDBRANCH   6  15
TORSDOF 4
ENDMDL
MODEL 3
REMARK VINA RESULT:      -5.8      1.773      3.009
REMARK  Name = 
REMARK  5 active torsions:
REMARK  status: ('A' for Active; 'I' for Inactive)
REMARK    1  A    between atoms: C_1  and  C_2
REMARK    2  A    between atoms: C_2  and  O_3
REMARK    3  A    between atoms: O_3  and  C_4
REMARK    4  A    between atoms: C_4  and  C_6
REMARK    5  A    between atoms: C_11  and  S_12
REMARK                            x       y       z     vdW  Elec       q    Type
REMARK                         _______ _______ _______ _____ _____    ______ ____
ROOT
ATOM      1  C   UNL     1       6.386   6.384  16.628  0.00  0.00    +0.000 C 
ATOM      2  C   UNL     1       6.960   6.436  18.067  0.00  0.00    +0.000 C 
ATOM      3  C   UNL     1       6.574   5.208  18.916  0.00  0.00    +0.000 C 
ATOM      4  C   UNL     1       5.137   4.862  18.736  0.00  0.00    +0.000 A 
ATOM      5  N   UNL     1       4.493   3.993  19.590  0.00  0.00    +0.000 NA
ATOM      6  C   UNL     1       3.252   3.837  19.181  0.00  0.00    +0.000 A 
ATOM      7  S   UNL     1       2.791   4.724  17.789  0.00  0.00    +0.000 S 
ATOM      8  C   UNL     1       4.373   5.347  17.694  0.00  0.00    +0.000 A 
ATOM      9  C   UNL     1       4.843   6.293  16.638  0.00  0.00    +0.000 C 
ENDROOT
BRANCH   1  10
ATOM     10  C   UNL     1       7.010   5.235  15.842  0.00  0.00    +0.000 C 
ATOM     11  O   UNL     1       7.869   4.478  16.262  0.00  0.00    +0.000 OA
BRANCH  10  12
ATOM     12  O   UNL     1       6.477   5.196  14.587  0.00  0.00    +0.000 OA
BRANCH  12  14
ATOM     13  C   UNL     1       6.346   3.729  12.654  0.00  0.00    +0.000 C 
ATOM     14  C   UNL     1       6.029   3.913  14.124  0.00  0.00    +0.000 C 
ENDBRANCH  12  14
ENDBRANCH  10  12
ENDBRANCH   1  10
BRANCH   6  15
ATOM     15  S   UNL     1       2.166   2.774  20.038  0.00  0.00    +0.000 S 
ATOM     16  H   UNL     1       2.161   1.811  19.108  0.00  0.00    +0.000 HD
ENDBRANCH   6  15
TORSDOF 4
ENDMDL
MODEL 4
REMARK VINA RESULT:      -5.7      3.604      5.328
REMARK  Name = 
REMARK  5 active torsions:
REMARK  status: ('A' for Active; 'I' for Inactive)
REMARK    1  A    between atoms: C_1  and  C_2
REMARK    2  A    between atoms: C_2  and  O_3
REMARK    3  A    between atoms: O_3  and  C_4
REMARK    4  A    between atoms: C_4  and  C_6
REMARK    5  A    between atoms: C_11  and  S_12
REMARK                            x       y       z     vdW  Elec       q    Type
REMARK                         _______ _______ _______ _____ _____    ______ ____
ROOT
ATOM      1  C   UNL     1       2.019   2.668  18.439  0.00  0.00    +0.000 C 
ATOM      2  C   UNL     1       3.130   1.689  18.900  0.00  0.00    +0.000 C 
ATOM      3  C   UNL     1       4.337   2.403  19.540  0.00  0.00    +0.000 C 
ATOM      4  C   UNL     1       4.731   3.603  18.752  0.00  0.00    +0.000 A 
ATOM      5  N   UNL     1       5.937   4.235  18.958  0.00  0.00    +0.000 NA
ATOM      6  C   UNL     1       6.011   5.280  18.161  0.00  0.00    +0.000 A 
ATOM      7  S   UNL     1       4.672   5.543  17.124  0.00  0.00    +0.000 S 
ATOM      8  C   UNL     1       3.911   4.180  17.804  0.00  0.00    +0.000 A 
ATOM      9  C   UNL     1       2.558   3.687  17.408  0.00  0.00    +0.000 C 
ENDROOT
BRANCH   1  10
ATOM     10  C   UNL     1       1.387   3.366  19.639  0.00  0.00    +0.000 C 
ATOM     11  O   UNL     1       0.973   2.809  20.641  0.00  0.00    +0.000 OA
BRANCH  10  12
ATOM     12  O   UNL     1       1.333   4.709  19.410  0.00  0.00    +0.000 OA
BRANCH  12  14
ATOM     13  C   UNL     1       2.299   6.884  19.904  0.00  0.00    +0.000 C 
ATOM     14  C   UNL     1       1.828   5.555  20.459  0.00  0.00    +0.000 C 
ENDBRANCH  12  14
ENDBRANCH  10  12
ENDBRANCH   1  10
BRANCH   6  15
ATOM     15  S   UNL     1       7.414   6.317  18.190  0.00  0.00    +0.000 S 
ATOM     16  H   UNL     1       8.015   5.698  19.214  0.00  0.00    +0.000 HD
ENDBRANCH   6  15
TORSDOF 4
ENDMDL
MODEL 5
REMARK VINA RESULT:      -5.7      1.279      1.547
REMARK  Name = 
REMARK  5 active torsions:
REMARK  status: ('A' for Active; 'I' for Inactive)
REMARK    1  A    between atoms: C_1  and  C_2
REMARK    2  A    between atoms: C_2  and  O_3
REMARK    3  A    between atoms: O_3  and  C_4
REMARK    4  A    between atoms: C_4  and  C_6
REMARK    5  A    between atoms: C_11  and  S_12
REMARK                            x       y       z     vdW  Elec       q    Type
REMARK                         _______ _______ _______ _____ _____    ______ ____
ROOT
ATOM      1  C   UNL     1       5.620   5.458  15.684  0.00  0.00    +0.000 C 
ATOM      2  C   UNL     1       4.747   6.729  15.842  0.00  0.00    +0.000 C 
ATOM      3  C   UNL     1       4.319   6.990  17.301  0.00  0.00    +0.000 C 
ATOM      4  C   UNL     1       3.870   5.733  17.961  0.00  0.00    +0.000 A 
ATOM      5  N   UNL     1       3.182   5.753  19.154  0.00  0.00    +0.000 NA
ATOM      6  C   UNL     1       2.945   4.514  19.529  0.00  0.00    +0.000 A 
ATOM      7  S   UNL     1       3.503   3.280  18.478  0.00  0.00    +0.000 S 
ATOM      8  C   UNL     1       4.144   4.480  17.453  0.00  0.00    +0.000 A 
ATOM      9  C   UNL     1       4.878   4.197  16.183  0.00  0.00    +0.000 C 
ENDROOT
BRANCH   1  10
ATOM     10  C   UNL     1       6.961   5.635  16.391  0.00  0.00    +0.000 C 
ATOM     11  O   UNL     1       7.681   6.614  16.300  0.00  0.00    +0.000 OA
BRANCH  10  12
ATOM     12  O   UNL     1       7.242   4.520  17.124  0.00  0.00    +0.000 OA
BRANCH  12  14
ATOM     13  C   UNL     1       7.152   5.532  19.332  0.00  0.00    +0.000 C 
ATOM     14  C   UNL     1       7.971   4.726  18.343  0.00  0.00    +0.000 C 
ENDBRANCH  12  14
ENDBRANCH  10  12
ENDBRANCH   1  10
BRANCH   6  15
ATOM     15  S   UNL     1       2.103   4.187  21.022  0.00  0.00    +0.000 S 
ATOM     16  H   UNL     1       1.709   5.450  21.230  0.00  0.00    +0.000 HD
ENDBRANCH   6  15
TORSDOF 4
ENDMDL
MODEL 6
REMARK VINA RESULT:      -5.6      0.755      1.035
REMARK  Name = 
REMARK  5 active torsions:
REMARK  status: ('A' for Active; 'I' for Inactive)
REMARK    1  A    between atoms: C_1  and  C_2
REMARK    2  A    between atoms: C_2  and  O_3
REMARK    3  A    between atoms: O_3  and  C_4
REMARK    4  A    between atoms: C_4  and  C_6
REMARK    5  A    between atoms: C_11  and  S_12
REMARK                            x       y       z     vdW  Elec       q    Type
REMARK                         _______ _______ _______ _____ _____    ______ ____
ROOT
ATOM      1  C   UNL     1       5.751   5.373  15.850  0.00  0.00    +0.000 C 
ATOM      2  C   UNL     1       4.833   6.552  16.263  0.00  0.00    +0.000 C 
ATOM      3  C   UNL     1       4.351   6.459  17.725  0.00  0.00    +0.000 C 
ATOM      4  C   UNL     1       3.923   5.073  18.061  0.00  0.00    +0.000 A 
ATOM      5  N   UNL     1       3.197   4.800  19.201  0.00  0.00    +0.000 NA
ATOM      6  C   UNL     1       2.988   3.503  19.271  0.00  0.00    +0.000 A 
ATOM      7  S   UNL     1       3.618   2.559  17.986  0.00  0.00    +0.000 S 
ATOM      8  C   UNL     1       4.252   3.977  17.289  0.00  0.00    +0.000 A 
ATOM      9  C   UNL     1       5.034   4.013  16.017  0.00  0.00    +0.000 C 
ENDROOT
BRANCH   1  10
ATOM     10  C   UNL     1       7.062   5.414  16.630  0.00  0.00    +0.000 C 
ATOM     11  O   UNL     1       7.876   4.508  16.688  0.00  0.00    +0.000 OA
BRANCH  10  12
ATOM     12  O   UNL     1       7.175   6.612  17.271  0.00  0.00    +0.000 OA
BRANCH  12  14
ATOM     13  C   UNL     1       7.373   5.678  19.506  0.00  0.00    +0.000 C 
ATOM     14  C   UNL     1       7.960   6.619  18.473  0.00  0.00    +0.000 C 
ENDBRANCH  12  14
ENDBRANCH  10  12
ENDBRANCH   1  10
BRANCH   6  15
ATOM     15  S   UNL     1       2.111   2.820  20.616  0.00  0.00    +0.000 S 
ATOM     16  H   UNL     1       1.816   1.664  20.009  0.00  0.00    +0.000 HD
ENDBRANCH   6  15
TORSDOF 4
ENDMDL
MODEL 7
REMARK VINA RESULT:      -5.6      3.652      5.813
REMARK  Name = 
REMARK  5 active torsions:
REMARK  status: ('A' for Active; 'I' for Inactive)
REMARK    1  A    between atoms: C_1  and  C_2
REMARK    2  A    between atoms: C_2  and  O_3
REMARK    3  A    between atoms: O_3  and  C_4
REMARK    4  A    between atoms: C_4  and  C_6
REMARK    5  A    between atoms: C_11  and  S_12
REMARK                            x       y       z     vdW  Elec       q    Type
REMARK                         _______ _______ _______ _____ _____    ______ ____
ROOT
ATOM      1  C   UNL     1       1.385   3.917  18.251  0.00  0.00    +0.000 C 
ATOM      2  C   UNL     1       2.259   2.688  17.891  0.00  0.00    +0.000 C 
ATOM      3  C   UNL     1       3.726   2.836  18.343  0.00  0.00    +0.000 C 
ATOM      4  C   UNL     1       4.248   4.195  18.032  0.00  0.00    +0.000 A 
ATOM      5  N   UNL     1       5.596   4.476  18.080  0.00  0.00    +0.000 NA
ATOM      6  C   UNL     1       5.775   5.750  17.801  0.00  0.00    +0.000 A 
ATOM      7  S   UNL     1       4.364   6.658  17.450  0.00  0.00    +0.000 S 
ATOM      8  C   UNL     1       3.429   5.261  17.720  0.00  0.00    +0.000 A 
ATOM      9  C   UNL     1       1.940   5.211  17.612  0.00  0.00    +0.000 C 
ENDROOT
BRANCH   1  10
ATOM     10  C   UNL     1       1.248   4.053  19.765  0.00  0.00    +0.000 C 
ATOM     11  O   UNL     1       1.432   5.077  20.399  0.00  0.00    +0.000 OA
BRANCH  10  12
ATOM     12  O   UNL     1       0.909   2.847  20.303  0.00  0.00    +0.000 OA
BRANCH  12  14
ATOM     13  C   UNL     1       2.854   2.353  21.676  0.00  0.00    +0.000 C 
ATOM     14  C   UNL     1       1.359   2.600  21.644  0.00  0.00    +0.000 C 
ENDBRANCH  12  14
ENDBRANCH  10  12
ENDBRANCH   1  10
BRANCH   6  15
ATOM     15  S   UNL     1       7.378   6.438  17.798  0.00  0.00    +0.000 S 
ATOM     16  H   UNL     1       7.734   5.940  16.608  0.00  0.00    +0.000 HD
ENDBRANCH   6  15
TORSDOF 4
ENDMDL
MODEL 8
REMARK VINA RESULT:      -5.5      1.822      2.665
REMARK  Name = 
REMARK  5 active torsions:
REMARK  status: ('A' for Active; 'I' for Inactive)
REMARK    1  A    between atoms: C_1  and  C_2
REMARK    2  A    between atoms: C_2  and  O_3
REMARK    3  A    between atoms: O_3  and  C_4
REMARK    4  A    between atoms: C_4  and  C_6
REMARK    5  A    between atoms: C_11  and  S_12
REMARK                            x       y       z     vdW  Elec       q    Type
REMARK                         _______ _______ _______ _____ _____    ______ ____
ROOT
ATOM      1  C   UNL     1       7.804   5.617  18.491  0.00  0.00    +0.000 C 
ATOM      2  C   UNL     1       7.794   4.423  17.501  0.00  0.00    +0.000 C 
ATOM      3  C   UNL     1       6.496   4.335  16.674  0.00  0.00    +0.000 C 
ATOM      4  C   UNL     1       5.298   4.557  17.530  0.00  0.00    +0.000 A 
ATOM      5  N   UNL     1       4.030   4.252  17.087  0.00  0.00    +0.000 NA
ATOM      6  C   UNL     1       3.162   4.581  18.020  0.00  0.00    +0.000 A 
ATOM      7  S   UNL     1       3.811   5.241  19.464  0.00  0.00    +0.000 S 
ATOM      8  C   UNL     1       5.370   5.114  18.791  0.00  0.00    +0.000 A 
ATOM      9  C   UNL     1       6.623   5.534  19.486  0.00  0.00    +0.000 C 
ENDROOT
BRANCH   1  10
ATOM     10  C   UNL     1       7.808   6.942  17.735  0.00  0.00    +0.000 C 
ATOM     11  O   UNL     1       7.593   7.073  16.543  0.00  0.00    +0.000 OA
BRANCH  10  12
ATOM     12  O   UNL     1       8.111   7.957  18.594  0.00  0.00    +0.000 OA
BRANCH  12  14
ATOM     13  C   UNL     1       9.137  10.141  18.890  0.00  0.00    +0.000 C 
ATOM     14  C   UNL     1       8.276   9.258  18.009  0.00  0.00    +0.000 C 
ENDBRANCH  12  14
ENDBRANCH  10  12
ENDBRANCH   1  10
BRANCH   6  15
ATOM     15  S   UNL     1       1.454   4.342  17.763  0.00  0.00    +0.000 S 
ATOM     16  H   UNL     1       1.592   3.474  16.753  0.00  0.00    +0.000 HD
ENDBRANCH   6  15
TORSDOF 4
ENDMDL
MODEL 9
REMARK VINA RESULT:      -5.5      2.143      3.402
REMARK  Name = 
REMARK  5 active torsions:
REMARK  status: ('A' for Active; 'I' for Inactive)
REMARK    1  A    between atoms: C_1  and  C_2
REMARK    2  A    between atoms: C_2  and  O_3
REMARK    3  A    between atoms: O_3  and  C_4
REMARK    4  A    between atoms: C_4  and  C_6
REMARK    5  A    between atoms: C_11  and  S_12
REMARK                            x       y       z     vdW  Elec       q    Type
REMARK                         _______ _______ _______ _____ _____    ______ ____
ROOT
ATOM      1  C   UNL     1       6.089   6.384  15.939  0.00  0.00    +0.000 C 
ATOM      2  C   UNL     1       7.032   6.644  17.141  0.00  0.00    +0.000 C 
ATOM      3  C   UNL     1       7.179   5.421  18.069  0.00  0.00    +0.000 C 
ATOM      4  C   UNL     1       5.860   4.781  18.326  0.00  0.00    +0.000 A 
ATOM      5  N   UNL     1       5.692   3.857  19.335  0.00  0.00    +0.000 NA
ATOM      6  C   UNL     1       4.448   3.427  19.315  0.00  0.00    +0.000 A 
ATOM      7  S   UNL     1       3.425   4.111  18.122  0.00  0.00    +0.000 S 
ATOM      8  C   UNL     1       4.741   5.033  17.559  0.00  0.00    +0.000 A 
ATOM      9  C   UNL     1       4.671   5.983  16.409  0.00  0.00    +0.000 C 
ENDROOT
BRANCH   1  10
ATOM     10  C   UNL     1       6.686   5.336  15.004  0.00  0.00    +0.000 C 
ATOM     11  O   UNL     1       7.870   5.219  14.742  0.00  0.00    +0.000 OA
BRANCH  10  12
ATOM     12  O   UNL     1       5.688   4.562  14.488  0.00  0.00    +0.000 OA
BRANCH  12  14
ATOM     13  C   UNL     1       4.979   3.600  12.371  0.00  0.00    +0.000 C 
ATOM     14  C   UNL     1       6.061   3.665  13.431  0.00  0.00    +0.000 C 
ENDBRANCH  12  14
ENDBRANCH  10  12
ENDBRANCH   1  10
BRANCH   6  15
ATOM     15  S   UNL     1       3.911   2.225  20.460  0.00  0.00    +0.000 S 
ATOM     16  H   UNL     1       5.064   2.163  21.137  0.00  0.00    +0.000 HD
ENDBRANCH   6  15
TORSDOF 4
ENDMDL
