MODEL 1
REMARK VINA RESULT:      -7.4      0.000      0.000
REMARK  Name = 
REMARK  6 active torsions:
REMARK  status: ('A' for Active; 'I' for Inactive)
REMARK    1  A    between atoms: N_2  and  C_4
REMARK    2  A    between atoms: C_7  and  N_8
REMARK    3  A    between atoms: N_8  and  N_9
REMARK    4  A    between atoms: C_10  and  C_11
REMARK    5  A    between atoms: C_13  and  N_14
REMARK    6  A    between atoms: C_19  and  O_20
REMARK                            x       y       z     vdW  Elec       q    Type
REMARK                         _______ _______ _______ _____ _____    ______ ____
ROOT
ATOM      1  N   UNL     1       2.226   6.245  18.800  0.00  0.00    +0.000 NA
ATOM      2  C   UNL     1       2.434   6.969  19.854  0.00  0.00    +0.000 C 
ENDROOT
BRANCH   2   3
ATOM      3  C   UNL     1       1.673   8.222  20.055  0.00  0.00    +0.000 A 
ATOM      4  C   UNL     1       1.156   8.516  21.325  0.00  0.00    +0.000 A 
ATOM      5  C   UNL     1       0.414   9.687  21.513  0.00  0.00    +0.000 A 
ATOM      6  C   UNL     1       0.193  10.567  20.444  0.00  0.00    +0.000 A 
ATOM      7  C   UNL     1       0.714  10.271  19.181  0.00  0.00    +0.000 A 
ATOM      8  C   UNL     1       1.452   9.099  18.989  0.00  0.00    +0.000 A 
BRANCH   5   9
ATOM      9  N   UNL     1      -0.146   9.989  22.837  0.00  0.00    +0.000 N 
ATOM     10  O   UNL     1      -1.214  10.614  22.885  0.00  0.00    +0.000 OA
ATOM     11  O   UNL     1       0.487   9.599  23.829  0.00  0.00    +0.000 OA
ENDBRANCH   5   9
BRANCH   8  12
ATOM     12  O   UNL     1       1.955   8.812  17.752  0.00  0.00    +0.000 OA
ATOM     13  H   UNL     1       1.373   9.185  17.068  0.00  0.00    +0.000 HD
ENDBRANCH   8  12
ENDBRANCH   2   3
BRANCH   1  14
ATOM     14  N   UNL     1       2.983   5.127  18.678  0.00  0.00    +0.000 N 
ATOM     15  H   UNL     1       2.609   4.227  18.971  0.00  0.00    +0.000 HD
BRANCH  14  19
ATOM     16  C   UNL     1       5.772   4.914  15.512  0.00  0.00    +0.000 A 
ATOM     17  C   UNL     1       5.357   6.164  15.978  0.00  0.00    +0.000 A 
ATOM     18  C   UNL     1       4.425   6.230  17.018  0.00  0.00    +0.000 A 
ATOM     19  C   UNL     1       3.875   5.068  17.586  0.00  0.00    +0.000 A 
ATOM     20  C   UNL     1       4.330   3.825  17.125  0.00  0.00    +0.000 A 
ATOM     21  C   UNL     1       5.267   3.740  16.086  0.00  0.00    +0.000 A 
BRANCH  16  23
ATOM     22  O   UNL     1       6.488   4.099  13.460  0.00  0.00    +0.000 OA
ATOM     23  N   UNL     1       6.750   4.836  14.422  0.00  0.00    +0.000 N 
ATOM     24  O   UNL     1       7.785   5.510  14.528  0.00  0.00    +0.000 OA
ENDBRANCH  16  23
ENDBRANCH  14  19
ENDBRANCH   1  14
TORSDOF 6
ENDMDL
MODEL 2
REMARK VINA RESULT:      -7.2      4.589      9.106
REMARK  Name = 
REMARK  6 active torsions:
REMARK  status: ('A' for Active; 'I' for Inactive)
REMARK    1  A    between atoms: N_2  and  C_4
REMARK    2  A    between atoms: C_7  and  N_8
REMARK    3  A    between atoms: N_8  and  N_9
REMARK    4  A    between atoms: C_10  and  C_11
REMARK    5  A    between atoms: C_13  and  N_14
REMARK    6  A    between atoms: C_19  and  O_20
REMARK                            x       y       z     vdW  Elec       q    Type
REMARK                         _______ _______ _______ _____ _____    ______ ____
ROOT
ATOM      1  N   UNL     1       5.573   5.718  16.308  0.00  0.00    +0.000 NA
ATOM      2  C   UNL     1       6.192   4.663  15.883  0.00  0.00    +0.000 C 
ENDROOT
BRANCH   2   3
ATOM      3  C   UNL     1       6.459   4.491  14.438  0.00  0.00    +0.000 A 
ATOM      4  C   UNL     1       5.648   3.628  13.687  0.00  0.00    +0.000 A 
ATOM      5  C   UNL     1       5.913   3.443  12.326  0.00  0.00    +0.000 A 
ATOM      6  C   UNL     1       6.977   4.119  11.711  0.00  0.00    +0.000 A 
ATOM      7  C   UNL     1       7.779   4.982  12.463  0.00  0.00    +0.000 A 
ATOM      8  C   UNL     1       7.520   5.165  13.824  0.00  0.00    +0.000 A 
BRANCH   5   9
ATOM      9  N   UNL     1       5.079   2.524  11.541  0.00  0.00    +0.000 N 
ATOM     10  O   UNL     1       5.530   1.397  11.295  0.00  0.00    +0.000 OA
ATOM     11  O   UNL     1       3.970   2.935  11.169  0.00  0.00    +0.000 OA
ENDBRANCH   5   9
BRANCH   8  12
ATOM     12  O   UNL     1       8.310   6.005  14.556  0.00  0.00    +0.000 OA
ATOM     13  H   UNL     1       8.892   5.484  15.136  0.00  0.00    +0.000 HD
ENDBRANCH   8  12
ENDBRANCH   2   3
BRANCH   1  14
ATOM     14  N   UNL     1       5.344   5.787  17.642  0.00  0.00    +0.000 N 
ATOM     15  H   UNL     1       5.507   6.660  18.140  0.00  0.00    +0.000 HD
BRANCH  14  19
ATOM     16  C   UNL     1       2.155   3.554  19.280  0.00  0.00    +0.000 A 
ATOM     17  C   UNL     1       3.457   3.320  19.727  0.00  0.00    +0.000 A 
ATOM     18  C   UNL     1       4.511   4.053  19.175  0.00  0.00    +0.000 A 
ATOM     19  C   UNL     1       4.293   5.000  18.159  0.00  0.00    +0.000 A 
ATOM     20  C   UNL     1       2.975   5.241  17.748  0.00  0.00    +0.000 A 
ATOM     21  C   UNL     1       1.906   4.518  18.295  0.00  0.00    +0.000 A 
BRANCH  16  23
ATOM     22  O   UNL     1       0.199   2.318  19.078  0.00  0.00    +0.000 OA
ATOM     23  N   UNL     1       1.042   2.790  19.855  0.00  0.00    +0.000 N 
ATOM     24  O   UNL     1       1.008   2.664  21.088  0.00  0.00    +0.000 OA
ENDBRANCH  16  23
ENDBRANCH  14  19
ENDBRANCH   1  14
TORSDOF 6
ENDMDL
MODEL 3
REMARK VINA RESULT:      -7.2      0.291      1.421
REMARK  Name = 
REMARK  6 active torsions:
REMARK  status: ('A' for Active; 'I' for Inactive)
REMARK    1  A    between atoms: N_2  and  C_4
REMARK    2  A    between atoms: C_7  and  N_8
REMARK    3  A    between atoms: N_8  and  N_9
REMARK    4  A    between atoms: C_10  and  C_11
REMARK    5  A    between atoms: C_13  and  N_14
REMARK    6  A    between atoms: C_19  and  O_20
REMARK                            x       y       z     vdW  Elec       q    Type
REMARK                         _______ _______ _______ _____ _____    ______ ____
ROOT
ATOM      1  N   UNL     1       2.366   6.507  18.535  0.00  0.00    +0.000 NA
ATOM      2  C   UNL     1       2.316   7.067  19.701  0.00  0.00    +0.000 C 
ENDROOT
BRANCH   2   3
ATOM      3  C   UNL     1       1.636   8.370  19.870  0.00  0.00    +0.000 A 
ATOM      4  C   UNL     1       1.091   8.704  21.118  0.00  0.00    +0.000 A 
ATOM      5  C   UNL     1       0.424   9.924  21.274  0.00  0.00    +0.000 A 
ATOM      6  C   UNL     1       0.305  10.812  20.195  0.00  0.00    +0.000 A 
ATOM      7  C   UNL     1       0.855  10.476  18.955  0.00  0.00    +0.000 A 
ATOM      8  C   UNL     1       1.517   9.256  18.794  0.00  0.00    +0.000 A 
BRANCH   5   9
ATOM      9  N   UNL     1      -0.166  10.269  22.574  0.00  0.00    +0.000 N 
ATOM     10  O   UNL     1       0.349   9.786  23.591  0.00  0.00    +0.000 OA
ATOM     11  O   UNL     1      -1.149  11.024  22.573  0.00  0.00    +0.000 OA
ENDBRANCH   5   9
BRANCH   8  12
ATOM     12  O   UNL     1       2.048   8.929  17.578  0.00  0.00    +0.000 OA
ATOM     13  H   UNL     1       2.475   8.056  17.632  0.00  0.00    +0.000 HD
ENDBRANCH   8  12
ENDBRANCH   2   3
BRANCH   1  14
ATOM     14  N   UNL     1       3.031   5.328  18.460  0.00  0.00    +0.000 N 
ATOM     15  H   UNL     1       2.554   4.460  18.696  0.00  0.00    +0.000 HD
BRANCH  14  19
ATOM     16  C   UNL     1       5.869   4.992  15.349  0.00  0.00    +0.000 A 
ATOM     17  C   UNL     1       5.346   3.834  15.928  0.00  0.00    +0.000 A 
ATOM     18  C   UNL     1       4.415   3.950  16.964  0.00  0.00    +0.000 A 
ATOM     19  C   UNL     1       4.016   5.204  17.457  0.00  0.00    +0.000 A 
ATOM     20  C   UNL     1       4.529   6.353  16.839  0.00  0.00    +0.000 A 
ATOM     21  C   UNL     1       5.460   6.256  15.795  0.00  0.00    +0.000 A 
BRANCH  16  23
ATOM     22  O   UNL     1       7.857   5.594  14.312  0.00  0.00    +0.000 OA
ATOM     23  N   UNL     1       6.844   4.881  14.258  0.00  0.00    +0.000 N 
ATOM     24  O   UNL     1       6.597   4.080  13.345  0.00  0.00    +0.000 OA
ENDBRANCH  16  23
ENDBRANCH  14  19
ENDBRANCH   1  14
TORSDOF 6
ENDMDL
MODEL 4
REMARK VINA RESULT:      -7.2      4.598      9.027
REMARK  Name = 
REMARK  6 active torsions:
REMARK  status: ('A' for Active; 'I' for Inactive)
REMARK    1  A    between atoms: N_2  and  C_4
REMARK    2  A    between atoms: C_7  and  N_8
REMARK    3  A    between atoms: N_8  and  N_9
REMARK    4  A    between atoms: C_10  and  C_11
REMARK    5  A    between atoms: C_13  and  N_14
REMARK    6  A    between atoms: C_19  and  O_20
REMARK                            x       y       z     vdW  Elec       q    Type
REMARK                         _______ _______ _______ _____ _____    ______ ____
ROOT
ATOM      1  N   UNL     1       6.117   5.388  16.641  0.00  0.00    +0.000 NA
ATOM      2  C   UNL     1       6.184   4.264  16.001  0.00  0.00    +0.000 C 
ENDROOT
BRANCH   2   3
ATOM      3  C   UNL     1       6.432   4.256  14.543  0.00  0.00    +0.000 A 
ATOM      4  C   UNL     1       5.675   3.408  13.721  0.00  0.00    +0.000 A 
ATOM      5  C   UNL     1       5.925   3.378  12.346  0.00  0.00    +0.000 A 
ATOM      6  C   UNL     1       6.919   4.194  11.785  0.00  0.00    +0.000 A 
ATOM      7  C   UNL     1       7.667   5.041  12.608  0.00  0.00    +0.000 A 
ATOM      8  C   UNL     1       7.424   5.069  13.984  0.00  0.00    +0.000 A 
BRANCH   5   9
ATOM      9  N   UNL     1       5.149   2.476  11.485  0.00  0.00    +0.000 N 
ATOM     10  O   UNL     1       4.046   2.868  11.079  0.00  0.00    +0.000 OA
ATOM     11  O   UNL     1       5.646   1.373  11.216  0.00  0.00    +0.000 OA
ENDBRANCH   5   9
BRANCH   8  12
ATOM     12  O   UNL     1       8.160   5.895  14.785  0.00  0.00    +0.000 OA
ATOM     13  H   UNL     1       9.020   6.074  14.366  0.00  0.00    +0.000 HD
ENDBRANCH   8  12
ENDBRANCH   2   3
BRANCH   1  14
ATOM     14  N   UNL     1       5.860   5.310  17.970  0.00  0.00    +0.000 N 
ATOM     15  H   UNL     1       6.215   6.028  18.599  0.00  0.00    +0.000 HD
BRANCH  14  19
ATOM     16  C   UNL     1       2.188   3.507  19.024  0.00  0.00    +0.000 A 
ATOM     17  C   UNL     1       2.187   4.633  18.199  0.00  0.00    +0.000 A 
ATOM     18  C   UNL     1       3.403   5.234  17.862  0.00  0.00    +0.000 A 
ATOM     19  C   UNL     1       4.625   4.747  18.357  0.00  0.00    +0.000 A 
ATOM     20  C   UNL     1       4.605   3.596  19.158  0.00  0.00    +0.000 A 
ATOM     21  C   UNL     1       3.395   2.979  19.502  0.00  0.00    +0.000 A 
BRANCH  16  23
ATOM     22  O   UNL     1       0.309   2.250  18.495  0.00  0.00    +0.000 OA
ATOM     23  N   UNL     1       0.916   2.869  19.382  0.00  0.00    +0.000 N 
ATOM     24  O   UNL     1       0.522   2.988  20.551  0.00  0.00    +0.000 OA
ENDBRANCH  16  23
ENDBRANCH  14  19
ENDBRANCH   1  14
TORSDOF 6
ENDMDL
MODEL 5
REMARK VINA RESULT:      -7.2      4.603      9.092
REMARK  Name = 
REMARK  6 active torsions:
REMARK  status: ('A' for Active; 'I' for Inactive)
REMARK    1  A    between atoms: N_2  and  C_4
REMARK    2  A    between atoms: C_7  and  N_8
REMARK    3  A    between atoms: N_8  and  N_9
REMARK    4  A    between atoms: C_10  and  C_11
REMARK    5  A    between atoms: C_13  and  N_14
REMARK    6  A    between atoms: C_19  and  O_20
REMARK                            x       y       z     vdW  Elec       q    Type
REMARK                         _______ _______ _______ _____ _____    ______ ____
ROOT
ATOM      1  N   UNL     1       6.720   4.255  17.007  0.00  0.00    +0.000 NA
ATOM      2  C   UNL     1       5.814   4.279  16.081  0.00  0.00    +0.000 C 
ENDROOT
BRANCH   2   3
ATOM      3  C   UNL     1       6.210   4.256  14.656  0.00  0.00    +0.000 A 
ATOM      4  C   UNL     1       5.525   3.417  13.765  0.00  0.00    +0.000 A 
ATOM      5  C   UNL     1       5.914   3.373  12.423  0.00  0.00    +0.000 A 
ATOM      6  C   UNL     1       6.975   4.167  11.963  0.00  0.00    +0.000 A 
ATOM      7  C   UNL     1       7.651   5.006  12.854  0.00  0.00    +0.000 A 
ATOM      8  C   UNL     1       7.269   5.048  14.198  0.00  0.00    +0.000 A 
BRANCH   5   9
ATOM      9  N   UNL     1       5.213   2.480  11.491  0.00  0.00    +0.000 N 
ATOM     10  O   UNL     1       4.106   2.838  11.067  0.00  0.00    +0.000 OA
ATOM     11  O   UNL     1       5.774   1.418  11.185  0.00  0.00    +0.000 OA
ENDBRANCH   5   9
BRANCH   8  12
ATOM     12  O   UNL     1       7.935   5.865  15.066  0.00  0.00    +0.000 OA
ATOM     13  H   UNL     1       7.401   6.659  15.243  0.00  0.00    +0.000 HD
ENDBRANCH   8  12
ENDBRANCH   2   3
BRANCH   1  14
ATOM     14  N   UNL     1       6.275   4.306  18.286  0.00  0.00    +0.000 N 
ATOM     15  H   UNL     1       6.631   5.020  18.919  0.00  0.00    +0.000 HD
BRANCH  14  19
ATOM     16  C   UNL     1       2.271   3.251  19.121  0.00  0.00    +0.000 A 
ATOM     17  C   UNL     1       3.294   2.344  19.409  0.00  0.00    +0.000 A 
ATOM     18  C   UNL     1       4.616   2.693  19.121  0.00  0.00    +0.000 A 
ATOM     19  C   UNL     1       4.938   3.923  18.521  0.00  0.00    +0.000 A 
ATOM     20  C   UNL     1       3.899   4.830  18.271  0.00  0.00    +0.000 A 
ATOM     21  C   UNL     1       2.568   4.499  18.558  0.00  0.00    +0.000 A 
BRANCH  16  23
ATOM     22  O   UNL     1       0.428   3.211  20.532  0.00  0.00    +0.000 OA
ATOM     23  N   UNL     1       0.880   2.894  19.422  0.00  0.00    +0.000 N 
ATOM     24  O   UNL     1       0.238   2.294  18.547  0.00  0.00    +0.000 OA
ENDBRANCH  16  23
ENDBRANCH  14  19
ENDBRANCH   1  14
TORSDOF 6
ENDMDL
MODEL 6
REMARK VINA RESULT:      -7.1      1.384      1.680
REMARK  Name = 
REMARK  6 active torsions:
REMARK  status: ('A' for Active; 'I' for Inactive)
REMARK    1  A    between atoms: N_2  and  C_4
REMARK    2  A    between atoms: C_7  and  N_8
REMARK    3  A    between atoms: N_8  and  N_9
REMARK    4  A    between atoms: C_10  and  C_11
REMARK    5  A    between atoms: C_13  and  N_14
REMARK    6  A    between atoms: C_19  and  O_20
REMARK                            x       y       z     vdW  Elec       q    Type
REMARK                         _______ _______ _______ _____ _____    ______ ____
ROOT
ATOM      1  N   UNL     1       2.024   6.414  19.985  0.00  0.00    +0.000 NA
ATOM      2  C   UNL     1       1.858   7.354  19.110  0.00  0.00    +0.000 C 
ENDROOT
BRANCH   2   3
ATOM      3  C   UNL     1       1.476   8.715  19.547  0.00  0.00    +0.000 A 
ATOM      4  C   UNL     1       1.061   8.921  20.871  0.00  0.00    +0.000 A 
ATOM      5  C   UNL     1       0.674  10.202  21.280  0.00  0.00    +0.000 A 
ATOM      6  C   UNL     1       0.708  11.277  20.380  0.00  0.00    +0.000 A 
ATOM      7  C   UNL     1       1.128  11.067  19.063  0.00  0.00    +0.000 A 
ATOM      8  C   UNL     1       1.509   9.787  18.649  0.00  0.00    +0.000 A 
BRANCH   5   9
ATOM      9  N   UNL     1       0.219  10.418  22.659  0.00  0.00    +0.000 N 
ATOM     10  O   UNL     1      -0.472  11.419  22.892  0.00  0.00    +0.000 OA
ATOM     11  O   UNL     1       0.556   9.582  23.511  0.00  0.00    +0.000 OA
ENDBRANCH   5   9
BRANCH   8  12
ATOM     12  O   UNL     1       1.914   9.585  17.360  0.00  0.00    +0.000 OA
ATOM     13  H   UNL     1       2.378   8.733  17.293  0.00  0.00    +0.000 HD
ENDBRANCH   8  12
ENDBRANCH   2   3
BRANCH   1  14
ATOM     14  N   UNL     1       2.346   5.190  19.501  0.00  0.00    +0.000 N 
ATOM     15  H   UNL     1       1.612   4.561  19.180  0.00  0.00    +0.000 HD
BRANCH  14  19
ATOM     16  C   UNL     1       6.015   4.993  17.416  0.00  0.00    +0.000 A 
ATOM     17  C   UNL     1       4.823   4.742  16.732  0.00  0.00    +0.000 A 
ATOM     18  C   UNL     1       3.612   4.797  17.429  0.00  0.00    +0.000 A 
ATOM     19  C   UNL     1       3.569   5.071  18.807  0.00  0.00    +0.000 A 
ATOM     20  C   UNL     1       4.774   5.351  19.466  0.00  0.00    +0.000 A 
ATOM     21  C   UNL     1       5.997   5.305  18.782  0.00  0.00    +0.000 A 
BRANCH  16  23
ATOM     22  O   UNL     1       8.179   4.199  17.139  0.00  0.00    +0.000 OA
ATOM     23  N   UNL     1       7.290   4.940  16.693  0.00  0.00    +0.000 N 
ATOM     24  O   UNL     1       7.406   5.642  15.677  0.00  0.00    +0.000 OA
ENDBRANCH  16  23
ENDBRANCH  14  19
ENDBRANCH   1  14
TORSDOF 6
ENDMDL
MODEL 7
REMARK VINA RESULT:      -7.1      1.376      8.759
REMARK  Name = 
REMARK  6 active torsions:
REMARK  status: ('A' for Active; 'I' for Inactive)
REMARK    1  A    between atoms: N_2  and  C_4
REMARK    2  A    between atoms: C_7  and  N_8
REMARK    3  A    between atoms: N_8  and  N_9
REMARK    4  A    between atoms: C_10  and  C_11
REMARK    5  A    between atoms: C_13  and  N_14
REMARK    6  A    between atoms: C_19  and  O_20
REMARK                            x       y       z     vdW  Elec       q    Type
REMARK                         _______ _______ _______ _____ _____    ______ ____
ROOT
ATOM      1  N   UNL     1       2.405   7.600  17.788  0.00  0.00    +0.000 NA
ATOM      2  C   UNL     1       3.685   7.694  17.620  0.00  0.00    +0.000 C 
ENDROOT
BRANCH   2   3
ATOM      3  C   UNL     1       4.513   6.471  17.532  0.00  0.00    +0.000 A 
ATOM      4  C   UNL     1       5.224   6.205  16.353  0.00  0.00    +0.000 A 
ATOM      5  C   UNL     1       5.986   5.036  16.257  0.00  0.00    +0.000 A 
ATOM      6  C   UNL     1       6.050   4.138  17.332  0.00  0.00    +0.000 A 
ATOM      7  C   UNL     1       5.344   4.411  18.508  0.00  0.00    +0.000 A 
ATOM      8  C   UNL     1       4.576   5.575  18.605  0.00  0.00    +0.000 A 
BRANCH   5   9
ATOM      9  N   UNL     1       6.716   4.743  15.016  0.00  0.00    +0.000 N 
ATOM     10  O   UNL     1       7.690   5.454  14.735  0.00  0.00    +0.000 OA
ATOM     11  O   UNL     1       6.309   3.800  14.323  0.00  0.00    +0.000 OA
ENDBRANCH   5   9
BRANCH   8  12
ATOM     12  O   UNL     1       3.883   5.835  19.753  0.00  0.00    +0.000 OA
ATOM     13  H   UNL     1       4.508   5.999  20.481  0.00  0.00    +0.000 HD
ENDBRANCH   8  12
ENDBRANCH   2   3
BRANCH   1  14
ATOM     14  N   UNL     1       1.722   8.768  17.885  0.00  0.00    +0.000 N 
ATOM     15  H   UNL     1       1.152   9.089  17.105  0.00  0.00    +0.000 HD
BRANCH  14  19
ATOM     16  C   UNL     1       0.376   9.945  21.712  0.00  0.00    +0.000 A 
ATOM     17  C   UNL     1       1.082   8.748  21.571  0.00  0.00    +0.000 A 
ATOM     18  C   UNL     1       1.516   8.357  20.302  0.00  0.00    +0.000 A 
ATOM     19  C   UNL     1       1.233   9.125  19.159  0.00  0.00    +0.000 A 
ATOM     20  C   UNL     1       0.551  10.338  19.328  0.00  0.00    +0.000 A 
ATOM     21  C   UNL     1       0.112  10.748  20.595  0.00  0.00    +0.000 A 
BRANCH  16  23
ATOM     22  O   UNL     1      -0.683  11.445  23.133  0.00  0.00    +0.000 OA
ATOM     23  N   UNL     1      -0.082  10.364  23.041  0.00  0.00    +0.000 N 
ATOM     24  O   UNL     1       0.161   9.613  23.997  0.00  0.00    +0.000 OA
ENDBRANCH  16  23
ENDBRANCH  14  19
ENDBRANCH   1  14
TORSDOF 6
ENDMDL
MODEL 8
REMARK VINA RESULT:      -7.1      4.197      9.093
REMARK  Name = 
REMARK  6 active torsions:
REMARK  status: ('A' for Active; 'I' for Inactive)
REMARK    1  A    between atoms: N_2  and  C_4
REMARK    2  A    between atoms: C_7  and  N_8
REMARK    3  A    between atoms: N_8  and  N_9
REMARK    4  A    between atoms: C_10  and  C_11
REMARK    5  A    between atoms: C_13  and  N_14
REMARK    6  A    between atoms: C_19  and  O_20
REMARK                            x       y       z     vdW  Elec       q    Type
REMARK                         _______ _______ _______ _____ _____    ______ ____
ROOT
ATOM      1  N   UNL     1       6.882   4.178  16.886  0.00  0.00    +0.000 NA
ATOM      2  C   UNL     1       6.019   4.534  15.988  0.00  0.00    +0.000 C 
ENDROOT
BRANCH   2   3
ATOM      3  C   UNL     1       6.352   4.418  14.552  0.00  0.00    +0.000 A 
ATOM      4  C   UNL     1       5.606   3.551  13.741  0.00  0.00    +0.000 A 
ATOM      5  C   UNL     1       5.935   3.419  12.388  0.00  0.00    +0.000 A 
ATOM      6  C   UNL     1       6.997   4.153  11.839  0.00  0.00    +0.000 A 
ATOM      7  C   UNL     1       7.734   5.020  12.651  0.00  0.00    +0.000 A 
ATOM      8  C   UNL     1       7.411   5.149  14.005  0.00  0.00    +0.000 A 
BRANCH   5   9
ATOM      9  N   UNL     1       5.169   2.496  11.539  0.00  0.00    +0.000 N 
ATOM     10  O   UNL     1       5.669   1.392  11.286  0.00  0.00    +0.000 OA
ATOM     11  O   UNL     1       4.066   2.881  11.125  0.00  0.00    +0.000 OA
ENDBRANCH   5   9
BRANCH   8  12
ATOM     12  O   UNL     1       8.138   5.994  14.796  0.00  0.00    +0.000 OA
ATOM     13  H   UNL     1       8.759   5.479  15.340  0.00  0.00    +0.000 HD
ENDBRANCH   8  12
ENDBRANCH   2   3
BRANCH   1  14
ATOM     14  N   UNL     1       6.510   4.341  18.179  0.00  0.00    +0.000 N 
ATOM     15  H   UNL     1       6.982   5.031  18.760  0.00  0.00    +0.000 HD
BRANCH  14  19
ATOM     16  C   UNL     1       2.474   3.718  19.258  0.00  0.00    +0.000 A 
ATOM     17  C   UNL     1       3.167   2.710  18.583  0.00  0.00    +0.000 A 
ATOM     18  C   UNL     1       4.499   2.925  18.218  0.00  0.00    +0.000 A 
ATOM     19  C   UNL     1       5.148   4.142  18.489  0.00  0.00    +0.000 A 
ATOM     20  C   UNL     1       4.443   5.127  19.195  0.00  0.00    +0.000 A 
ATOM     21  C   UNL     1       3.108   4.926  19.573  0.00  0.00    +0.000 A 
BRANCH  16  23
ATOM     22  O   UNL     1       0.461   2.569  19.105  0.00  0.00    +0.000 OA
ATOM     23  N   UNL     1       1.076   3.500  19.647  0.00  0.00    +0.000 N 
ATOM     24  O   UNL     1       0.589   4.263  20.494  0.00  0.00    +0.000 OA
ENDBRANCH  16  23
ENDBRANCH  14  19
ENDBRANCH   1  14
TORSDOF 6
ENDMDL
MODEL 9
REMARK VINA RESULT:      -7.0      1.372      8.673
REMARK  Name = 
REMARK  6 active torsions:
REMARK  status: ('A' for Active; 'I' for Inactive)
REMARK    1  A    between atoms: N_2  and  C_4
REMARK    2  A    between atoms: C_7  and  N_8
REMARK    3  A    between atoms: N_8  and  N_9
REMARK    4  A    between atoms: C_10  and  C_11
REMARK    5  A    between atoms: C_13  and  N_14
REMARK    6  A    between atoms: C_19  and  O_20
REMARK                            x       y       z     vdW  Elec       q    Type
REMARK                         _______ _______ _______ _____ _____    ______ ____
ROOT
ATOM      1  N   UNL     1       2.225   8.202  17.456  0.00  0.00    +0.000 NA
ATOM      2  C   UNL     1       3.445   7.841  17.698  0.00  0.00    +0.000 C 
ENDROOT
BRANCH   2   3
ATOM      3  C   UNL     1       3.900   6.479  17.343  0.00  0.00    +0.000 A 
ATOM      4  C   UNL     1       5.034   6.322  16.533  0.00  0.00    +0.000 A 
ATOM      5  C   UNL     1       5.451   5.036  16.174  0.00  0.00    +0.000 A 
ATOM      6  C   UNL     1       4.749   3.909  16.625  0.00  0.00    +0.000 A 
ATOM      7  C   UNL     1       3.622   4.071  17.437  0.00  0.00    +0.000 A 
ATOM      8  C   UNL     1       3.199   5.355  17.792  0.00  0.00    +0.000 A 
BRANCH   5   9
ATOM      9  N   UNL     1       6.626   4.867  15.310  0.00  0.00    +0.000 N 
ATOM     10  O   UNL     1       6.436   4.728  14.094  0.00  0.00    +0.000 OA
ATOM     11  O   UNL     1       7.741   4.874  15.851  0.00  0.00    +0.000 OA
ENDBRANCH   5   9
BRANCH   8  12
ATOM     12  O   UNL     1       2.095   5.509  18.581  0.00  0.00    +0.000 OA
ATOM     13  H   UNL     1       2.183   4.958  19.378  0.00  0.00    +0.000 HD
ENDBRANCH   8  12
ENDBRANCH   2   3
BRANCH   1  14
ATOM     14  N   UNL     1       1.881   9.457  17.836  0.00  0.00    +0.000 N 
ATOM     15  H   UNL     1       1.570  10.131  17.139  0.00  0.00    +0.000 HD
BRANCH  14  19
ATOM     16  C   UNL     1       0.226   9.992  21.686  0.00  0.00    +0.000 A 
ATOM     17  C   UNL     1       0.825   8.773  21.360  0.00  0.00    +0.000 A 
ATOM     18  C   UNL     1       1.361   8.596  20.081  0.00  0.00    +0.000 A 
ATOM     19  C   UNL     1       1.286   9.607  19.107  0.00  0.00    +0.000 A 
ATOM     20  C   UNL     1       0.710  10.833  19.466  0.00  0.00    +0.000 A 
ATOM     21  C   UNL     1       0.171  11.029  20.745  0.00  0.00    +0.000 A 
BRANCH  16  23
ATOM     22  O   UNL     1      -1.369  10.868  23.128  0.00  0.00    +0.000 OA
ATOM     23  N   UNL     1      -0.337  10.188  23.026  0.00  0.00    +0.000 N 
ATOM     24  O   UNL     1       0.253   9.662  23.981  0.00  0.00    +0.000 OA
ENDBRANCH  16  23
ENDBRANCH  14  19
ENDBRANCH   1  14
TORSDOF 6
ENDMDL
