MODEL 1
REMARK VINA RESULT:      -8.1      0.000      0.000
REMARK  Name = 
REMARK  1 active torsions:
REMARK  status: ('A' for Active; 'I' for Inactive)
REMARK    1  A    between atoms: C_8  and  C_9
REMARK                            x       y       z     vdW  Elec       q    Type
REMARK                         _______ _______ _______ _____ _____    ______ ____
ROOT
ATOM      1  C   UNL     1       5.638   4.711  16.688  0.00  0.00    +0.000 A 
ATOM      2  C   UNL     1       6.808   5.454  16.587  0.00  0.00    +0.000 A 
ATOM      3  N   UNL     1       7.525   5.603  15.451  0.00  0.00    +0.000 NA
ATOM      4  C   UNL     1       7.096   4.966  14.350  0.00  0.00    +0.000 A 
ATOM      5  C   UNL     1       7.801   5.114  13.167  0.00  0.00    +0.000 A 
ATOM      6  C   UNL     1       7.426   4.443  12.001  0.00  0.00    +0.000 A 
ATOM      7  C   UNL     1       6.311   3.612  12.011  0.00  0.00    +0.000 A 
ATOM      8  C   UNL     1       5.565   3.468  13.180  0.00  0.00    +0.000 A 
ATOM      9  C   UNL     1       5.946   4.142  14.356  0.00  0.00    +0.000 A 
ATOM     10  C   UNL     1       5.215   4.034  15.548  0.00  0.00    +0.000 A 
ENDROOT
BRANCH   1  18
ATOM     11  O   UNL     1       3.354   4.651  20.271  0.00  0.00    +0.000 OA
ATOM     12  C   UNL     1       3.249   5.616  19.521  0.00  0.00    +0.000 C 
ATOM     13  C   UNL     1       2.365   6.739  19.902  0.00  0.00    +0.000 C 
ATOM     14  C   UNL     1       2.171   7.810  19.127  0.00  0.00    +0.000 C 
ATOM     15  C   UNL     1       2.807   8.013  17.796  0.00  0.00    +0.000 C 
ATOM     16  C   UNL     1       3.759   6.914  17.329  0.00  0.00    +0.000 C 
ATOM     17  C   UNL     1       3.987   5.722  18.225  0.00  0.00    +0.000 C 
ATOM     18  C   UNL     1       4.834   4.720  17.916  0.00  0.00    +0.000 C 
ENDBRANCH   1  18
TORSDOF 1
ENDMDL
MODEL 2
REMARK VINA RESULT:      -7.8      2.819      6.526
REMARK  Name = 
REMARK  1 active torsions:
REMARK  status: ('A' for Active; 'I' for Inactive)
REMARK    1  A    between atoms: C_8  and  C_9
REMARK                            x       y       z     vdW  Elec       q    Type
REMARK                         _______ _______ _______ _____ _____    ______ ____
ROOT
ATOM      1  C   UNL     1       4.795   4.998  16.497  0.00  0.00    +0.000 A 
ATOM      2  C   UNL     1       4.173   6.049  17.160  0.00  0.00    +0.000 A 
ATOM      3  N   UNL     1       3.174   5.903  18.060  0.00  0.00    +0.000 NA
ATOM      4  C   UNL     1       2.730   4.660  18.308  0.00  0.00    +0.000 A 
ATOM      5  C   UNL     1       1.719   4.479  19.238  0.00  0.00    +0.000 A 
ATOM      6  C   UNL     1       1.189   3.215  19.508  0.00  0.00    +0.000 A 
ATOM      7  C   UNL     1       1.690   2.101  18.842  0.00  0.00    +0.000 A 
ATOM      8  C   UNL     1       2.727   2.251  17.924  0.00  0.00    +0.000 A 
ATOM      9  C   UNL     1       3.258   3.526  17.650  0.00  0.00    +0.000 A 
ATOM     10  C   UNL     1       4.311   3.716  16.743  0.00  0.00    +0.000 A 
ENDROOT
BRANCH   1  18
ATOM     11  O   UNL     1       8.247   5.700  14.121  0.00  0.00    +0.000 OA
ATOM     12  C   UNL     1       7.356   4.988  13.670  0.00  0.00    +0.000 C 
ATOM     13  C   UNL     1       7.525   4.369  12.338  0.00  0.00    +0.000 C 
ATOM     14  C   UNL     1       6.589   3.608  11.763  0.00  0.00    +0.000 C 
ATOM     15  C   UNL     1       5.271   3.287  12.375  0.00  0.00    +0.000 C 
ATOM     16  C   UNL     1       5.016   3.863  13.766  0.00  0.00    +0.000 C 
ATOM     17  C   UNL     1       6.091   4.700  14.413  0.00  0.00    +0.000 C 
ATOM     18  C   UNL     1       5.973   5.222  15.651  0.00  0.00    +0.000 C 
ENDBRANCH   1  18
TORSDOF 1
ENDMDL
MODEL 3
REMARK VINA RESULT:      -7.8      2.910      6.432
REMARK  Name = 
REMARK  1 active torsions:
REMARK  status: ('A' for Active; 'I' for Inactive)
REMARK    1  A    between atoms: C_8  and  C_9
REMARK                            x       y       z     vdW  Elec       q    Type
REMARK                         _______ _______ _______ _____ _____    ______ ____
ROOT
ATOM      1  C   UNL     1       5.875   4.841  16.813  0.00  0.00    +0.000 A 
ATOM      2  C   UNL     1       6.346   4.542  18.086  0.00  0.00    +0.000 A 
ATOM      3  N   UNL     1       5.576   4.092  19.102  0.00  0.00    +0.000 NA
ATOM      4  C   UNL     1       4.259   3.954  18.877  0.00  0.00    +0.000 A 
ATOM      5  C   UNL     1       3.448   3.480  19.895  0.00  0.00    +0.000 A 
ATOM      6  C   UNL     1       2.066   3.354  19.733  0.00  0.00    +0.000 A 
ATOM      7  C   UNL     1       1.480   3.699  18.520  0.00  0.00    +0.000 A 
ATOM      8  C   UNL     1       2.276   4.150  17.469  0.00  0.00    +0.000 A 
ATOM      9  C   UNL     1       3.668   4.280  17.635  0.00  0.00    +0.000 A 
ATOM     10  C   UNL     1       4.505   4.718  16.597  0.00  0.00    +0.000 A 
ENDROOT
BRANCH   1  18
ATOM     11  O   UNL     1       8.593   5.868  13.713  0.00  0.00    +0.000 OA
ATOM     12  C   UNL     1       7.668   5.106  13.456  0.00  0.00    +0.000 C 
ATOM     13  C   UNL     1       7.548   4.541  12.095  0.00  0.00    +0.000 C 
ATOM     14  C   UNL     1       6.552   3.730  11.727  0.00  0.00    +0.000 C 
ATOM     15  C   UNL     1       5.445   3.294  12.621  0.00  0.00    +0.000 C 
ATOM     16  C   UNL     1       5.499   3.808  14.059  0.00  0.00    +0.000 C 
ATOM     17  C   UNL     1       6.642   4.703  14.467  0.00  0.00    +0.000 C 
ATOM     18  C   UNL     1       6.794   5.178  15.720  0.00  0.00    +0.000 C 
ENDBRANCH   1  18
TORSDOF 1
ENDMDL
MODEL 4
REMARK VINA RESULT:      -7.7      1.535      2.201
REMARK  Name = 
REMARK  1 active torsions:
REMARK  status: ('A' for Active; 'I' for Inactive)
REMARK    1  A    between atoms: C_8  and  C_9
REMARK                            x       y       z     vdW  Elec       q    Type
REMARK                         _______ _______ _______ _____ _____    ______ ____
ROOT
ATOM      1  C   UNL     1       5.214   5.226  16.566  0.00  0.00    +0.000 A 
ATOM      2  C   UNL     1       6.492   5.771  16.513  0.00  0.00    +0.000 A 
ATOM      3  N   UNL     1       7.320   5.679  15.449  0.00  0.00    +0.000 NA
ATOM      4  C   UNL     1       6.893   4.988  14.380  0.00  0.00    +0.000 A 
ATOM      5  C   UNL     1       7.714   4.892  13.268  0.00  0.00    +0.000 A 
ATOM      6  C   UNL     1       7.341   4.153  12.142  0.00  0.00    +0.000 A 
ATOM      7  C   UNL     1       6.111   3.504  12.120  0.00  0.00    +0.000 A 
ATOM      8  C   UNL     1       5.253   3.609  13.214  0.00  0.00    +0.000 A 
ATOM      9  C   UNL     1       5.632   4.351  14.348  0.00  0.00    +0.000 A 
ATOM     10  C   UNL     1       4.790   4.491  15.462  0.00  0.00    +0.000 A 
ENDROOT
BRANCH   1  18
ATOM     11  O   UNL     1       2.657   6.101  19.845  0.00  0.00    +0.000 OA
ATOM     12  C   UNL     1       2.528   5.028  19.268  0.00  0.00    +0.000 C 
ATOM     13  C   UNL     1       1.470   4.091  19.703  0.00  0.00    +0.000 C 
ATOM     14  C   UNL     1       1.285   2.890  19.148  0.00  0.00    +0.000 C 
ATOM     15  C   UNL     1       2.108   2.339  18.037  0.00  0.00    +0.000 C 
ATOM     16  C   UNL     1       3.213   3.248  17.502  0.00  0.00    +0.000 C 
ATOM     17  C   UNL     1       3.394   4.611  18.121  0.00  0.00    +0.000 C 
ATOM     18  C   UNL     1       4.317   5.497  17.696  0.00  0.00    +0.000 C 
ENDBRANCH   1  18
TORSDOF 1
ENDMDL
MODEL 5
REMARK VINA RESULT:      -7.7      2.418      6.584
REMARK  Name = 
REMARK  1 active torsions:
REMARK  status: ('A' for Active; 'I' for Inactive)
REMARK    1  A    between atoms: C_8  and  C_9
REMARK                            x       y       z     vdW  Elec       q    Type
REMARK                         _______ _______ _______ _____ _____    ______ ____
ROOT
ATOM      1  C   UNL     1       6.159   5.468  16.776  0.00  0.00    +0.000 A 
ATOM      2  C   UNL     1       6.362   4.466  17.718  0.00  0.00    +0.000 A 
ATOM      3  N   UNL     1       5.535   4.213  18.757  0.00  0.00    +0.000 NA
ATOM      4  C   UNL     1       4.459   5.001  18.909  0.00  0.00    +0.000 A 
ATOM      5  C   UNL     1       3.585   4.755  19.955  0.00  0.00    +0.000 A 
ATOM      6  C   UNL     1       2.471   5.566  20.187  0.00  0.00    +0.000 A 
ATOM      7  C   UNL     1       2.216   6.644  19.346  0.00  0.00    +0.000 A 
ATOM      8  C   UNL     1       3.063   6.897  18.268  0.00  0.00    +0.000 A 
ATOM      9  C   UNL     1       4.186   6.081  18.037  0.00  0.00    +0.000 A 
ATOM     10  C   UNL     1       5.054   6.295  16.956  0.00  0.00    +0.000 A 
ENDROOT
BRANCH   1  18
ATOM     11  O   UNL     1       8.707   5.862  13.398  0.00  0.00    +0.000 OA
ATOM     12  C   UNL     1       7.727   5.130  13.315  0.00  0.00    +0.000 C 
ATOM     13  C   UNL     1       7.484   4.383  12.062  0.00  0.00    +0.000 C 
ATOM     14  C   UNL     1       6.423   3.591  11.880  0.00  0.00    +0.000 C 
ATOM     15  C   UNL     1       5.359   3.359  12.895  0.00  0.00    +0.000 C 
ATOM     16  C   UNL     1       5.539   4.072  14.234  0.00  0.00    +0.000 C 
ATOM     17  C   UNL     1       6.754   4.943  14.435  0.00  0.00    +0.000 C 
ATOM     18  C   UNL     1       7.017   5.584  15.591  0.00  0.00    +0.000 C 
ENDBRANCH   1  18
TORSDOF 1
ENDMDL
MODEL 6
REMARK VINA RESULT:      -7.5      3.864      7.648
REMARK  Name = 
REMARK  1 active torsions:
REMARK  status: ('A' for Active; 'I' for Inactive)
REMARK    1  A    between atoms: C_8  and  C_9
REMARK                            x       y       z     vdW  Elec       q    Type
REMARK                         _______ _______ _______ _____ _____    ______ ____
ROOT
ATOM      1  C   UNL     1       2.513   7.390  18.645  0.00  0.00    +0.000 A 
ATOM      2  C   UNL     1       2.087   8.398  17.787  0.00  0.00    +0.000 A 
ATOM      3  N   UNL     1       1.344   9.463  18.165  0.00  0.00    +0.000 NA
ATOM      4  C   UNL     1       0.966   9.538  19.451  0.00  0.00    +0.000 A 
ATOM      5  C   UNL     1       0.219  10.627  19.870  0.00  0.00    +0.000 A 
ATOM      6  C   UNL     1      -0.238  10.740  21.186  0.00  0.00    +0.000 A 
ATOM      7  C   UNL     1       0.068   9.747  22.110  0.00  0.00    +0.000 A 
ATOM      8  C   UNL     1       0.843   8.655  21.722  0.00  0.00    +0.000 A 
ATOM      9  C   UNL     1       1.301   8.541  20.396  0.00  0.00    +0.000 A 
ATOM     10  C   UNL     1       2.094   7.465  19.971  0.00  0.00    +0.000 A 
ENDROOT
BRANCH   1  18
ATOM     11  O   UNL     1       5.276   4.441  17.333  0.00  0.00    +0.000 OA
ATOM     12  C   UNL     1       4.139   4.093  17.628  0.00  0.00    +0.000 C 
ATOM     13  C   UNL     1       3.775   2.661  17.553  0.00  0.00    +0.000 C 
ATOM     14  C   UNL     1       2.549   2.205  17.826  0.00  0.00    +0.000 C 
ATOM     15  C   UNL     1       1.402   3.061  18.232  0.00  0.00    +0.000 C 
ATOM     16  C   UNL     1       1.689   4.556  18.361  0.00  0.00    +0.000 C 
ATOM     17  C   UNL     1       3.083   5.054  18.074  0.00  0.00    +0.000 C 
ATOM     18  C   UNL     1       3.442   6.348  18.194  0.00  0.00    +0.000 C 
ENDBRANCH   1  18
TORSDOF 1
ENDMDL
MODEL 7
REMARK VINA RESULT:      -7.2      2.858      6.777
REMARK  Name = 
REMARK  1 active torsions:
REMARK  status: ('A' for Active; 'I' for Inactive)
REMARK    1  A    between atoms: C_8  and  C_9
REMARK                            x       y       z     vdW  Elec       q    Type
REMARK                         _______ _______ _______ _____ _____    ______ ____
ROOT
ATOM      1  C   UNL     1       4.359   4.915  18.048  0.00  0.00    +0.000 A 
ATOM      2  C   UNL     1       3.104   5.476  17.845  0.00  0.00    +0.000 A 
ATOM      3  N   UNL     1       2.006   5.183  18.577  0.00  0.00    +0.000 NA
ATOM      4  C   UNL     1       2.127   4.265  19.548  0.00  0.00    +0.000 A 
ATOM      5  C   UNL     1       1.022   3.957  20.326  0.00  0.00    +0.000 A 
ATOM      6  C   UNL     1       1.077   2.981  21.324  0.00  0.00    +0.000 A 
ATOM      7  C   UNL     1       2.268   2.303  21.561  0.00  0.00    +0.000 A 
ATOM      8  C   UNL     1       3.403   2.614  20.813  0.00  0.00    +0.000 A 
ATOM      9  C   UNL     1       3.345   3.595  19.806  0.00  0.00    +0.000 A 
ATOM     10  C   UNL     1       4.468   3.946  19.042  0.00  0.00    +0.000 A 
ENDROOT
BRANCH   1  18
ATOM     11  O   UNL     1       7.794   6.354  16.002  0.00  0.00    +0.000 OA
ATOM     12  C   UNL     1       7.064   5.551  15.434  0.00  0.00    +0.000 C 
ATOM     13  C   UNL     1       7.417   5.081  14.077  0.00  0.00    +0.000 C 
ATOM     14  C   UNL     1       6.658   4.232  13.378  0.00  0.00    +0.000 C 
ATOM     15  C   UNL     1       5.373   3.656  13.861  0.00  0.00    +0.000 C 
ATOM     16  C   UNL     1       4.938   4.065  15.267  0.00  0.00    +0.000 C 
ATOM     17  C   UNL     1       5.817   5.004  16.054  0.00  0.00    +0.000 C 
ATOM     18  C   UNL     1       5.536   5.394  17.314  0.00  0.00    +0.000 C 
ENDBRANCH   1  18
TORSDOF 1
ENDMDL
MODEL 8
REMARK VINA RESULT:      -7.1      5.027      8.395
REMARK  Name = 
REMARK  1 active torsions:
REMARK  status: ('A' for Active; 'I' for Inactive)
REMARK    1  A    between atoms: C_8  and  C_9
REMARK                            x       y       z     vdW  Elec       q    Type
REMARK                         _______ _______ _______ _____ _____    ______ ____
ROOT
ATOM      1  C   UNL     1       1.991   7.649  19.876  0.00  0.00    +0.000 A 
ATOM      2  C   UNL     1       1.676   8.596  18.908  0.00  0.00    +0.000 A 
ATOM      3  N   UNL     1       0.939   9.707  19.135  0.00  0.00    +0.000 NA
ATOM      4  C   UNL     1       0.451   9.894  20.371  0.00  0.00    +0.000 A 
ATOM      5  C   UNL     1      -0.294  11.032  20.637  0.00  0.00    +0.000 A 
ATOM      6  C   UNL     1      -0.860  11.261  21.893  0.00  0.00    +0.000 A 
ATOM      7  C   UNL     1      -0.669  10.337  22.915  0.00  0.00    +0.000 A 
ATOM      8  C   UNL     1       0.101   9.198  22.683  0.00  0.00    +0.000 A 
ATOM      9  C   UNL     1       0.669   8.967  21.416  0.00  0.00    +0.000 A 
ATOM     10  C   UNL     1       1.460   7.840  21.149  0.00  0.00    +0.000 A 
ENDROOT
BRANCH   1  18
ATOM     11  O   UNL     1       4.753   4.535  19.021  0.00  0.00    +0.000 OA
ATOM     12  C   UNL     1       3.679   4.245  19.536  0.00  0.00    +0.000 C 
ATOM     13  C   UNL     1       3.395   2.835  19.877  0.00  0.00    +0.000 C 
ATOM     14  C   UNL     1       2.238   2.432  20.410  0.00  0.00    +0.000 C 
ATOM     15  C   UNL     1       1.096   3.334  20.726  0.00  0.00    +0.000 C 
ATOM     16  C   UNL     1       1.308   4.818  20.431  0.00  0.00    +0.000 C 
ATOM     17  C   UNL     1       2.628   5.261  19.852  0.00  0.00    +0.000 C 
ATOM     18  C   UNL     1       2.922   6.551  19.591  0.00  0.00    +0.000 C 
ENDBRANCH   1  18
TORSDOF 1
ENDMDL
MODEL 9
REMARK VINA RESULT:      -7.0      2.146      3.575
REMARK  Name = 
REMARK  1 active torsions:
REMARK  status: ('A' for Active; 'I' for Inactive)
REMARK    1  A    between atoms: C_8  and  C_9
REMARK                            x       y       z     vdW  Elec       q    Type
REMARK                         _______ _______ _______ _____ _____    ______ ____
ROOT
ATOM      1  C   UNL     1       3.260   5.931  18.454  0.00  0.00    +0.000 A 
ATOM      2  C   UNL     1       2.760   4.734  17.958  0.00  0.00    +0.000 A 
ATOM      3  N   UNL     1       3.406   3.940  17.074  0.00  0.00    +0.000 NA
ATOM      4  C   UNL     1       4.601   4.351  16.621  0.00  0.00    +0.000 A 
ATOM      5  C   UNL     1       5.295   3.550  15.728  0.00  0.00    +0.000 A 
ATOM      6  C   UNL     1       6.523   3.944  15.191  0.00  0.00    +0.000 A 
ATOM      7  C   UNL     1       7.080   5.162  15.563  0.00  0.00    +0.000 A 
ATOM      8  C   UNL     1       6.418   5.974  16.483  0.00  0.00    +0.000 A 
ATOM      9  C   UNL     1       5.179   5.578  17.021  0.00  0.00    +0.000 A 
ATOM     10  C   UNL     1       4.489   6.360  17.959  0.00  0.00    +0.000 A 
ENDROOT
BRANCH   1  18
ATOM     11  O   UNL     1       1.286   7.970  21.616  0.00  0.00    +0.000 OA
ATOM     12  C   UNL     1       1.336   8.503  20.513  0.00  0.00    +0.000 C 
ATOM     13  C   UNL     1       0.745   9.845  20.327  0.00  0.00    +0.000 C 
ATOM     14  C   UNL     1       0.730  10.479  19.150  0.00  0.00    +0.000 C 
ATOM     15  C   UNL     1       1.294   9.927  17.888  0.00  0.00    +0.000 C 
ATOM     16  C   UNL     1       1.951   8.551  17.989  0.00  0.00    +0.000 C 
ATOM     17  C   UNL     1       1.983   7.859  19.328  0.00  0.00    +0.000 C 
ATOM     18  C   UNL     1       2.570   6.661  19.524  0.00  0.00    +0.000 C 
ENDBRANCH   1  18
TORSDOF 1
ENDMDL
