MODEL 1
REMARK VINA RESULT:      -8.7      0.000      0.000
REMARK  Name = 
REMARK  4 active torsions:
REMARK  status: ('A' for Active; 'I' for Inactive)
REMARK    1  A    between atoms: C_1  and  C_2
REMARK    2  A    between atoms: C_11  and  C_13
REMARK    3  A    between atoms: C_16  and  S_17
REMARK    4  A    between atoms: S_17  and  N_20
REMARK                            x       y       z     vdW  Elec       q    Type
REMARK                         _______ _______ _______ _____ _____    ______ ____
ROOT
ATOM      1  C   UNL     1      -3.100  17.843  21.783  0.00  0.00    +0.000 C 
ATOM      2  C   UNL     1      -2.717  16.418  21.980  0.00  0.00    +0.000 A 
ATOM      3  N   UNL     1      -3.341  15.622  22.819  0.00  0.00    +0.000 NA
ATOM      4  C   UNL     1      -2.777  14.366  22.780  0.00  0.00    +0.000 A 
ATOM      5  C   UNL     1      -3.190  13.253  23.531  0.00  0.00    +0.000 A 
ATOM      6  C   UNL     1      -2.538  12.021  23.389  0.00  0.00    +0.000 A 
ATOM      7  C   UNL     1      -1.464  11.879  22.490  0.00  0.00    +0.000 A 
ATOM      8  N   UNL     1      -0.771  10.721  22.246  0.00  0.00    +0.000 NA
ATOM      9  C   UNL     1       0.125  10.920  21.316  0.00  0.00    +0.000 A 
ATOM     10  N   UNL     1       0.940   9.963  20.745  0.00  0.00    +0.000 N 
ATOM     11  C   UNL     1       0.648   8.619  20.944  0.00  0.00    +0.000 C 
ATOM     12  O   UNL     1      -0.305   8.163  21.568  0.00  0.00    +0.000 OA
ATOM     13  S   UNL     1       0.269  12.537  20.757  0.00  0.00    +0.000 S 
ATOM     14  C   UNL     1      -1.049  12.983  21.756  0.00  0.00    +0.000 A 
ATOM     15  C   UNL     1      -1.709  14.218  21.902  0.00  0.00    +0.000 A 
ATOM     16  S   UNL     1      -1.408  15.698  21.109  0.00  0.00    +0.000 S 
ATOM     17  H   UNL     1       1.629  10.266  20.077  0.00  0.00    +0.000 HD
ENDROOT
BRANCH  11  18
ATOM     18  C   UNL     1       1.530   7.617  20.283  0.00  0.00    +0.000 A 
ATOM     19  C   UNL     1       1.692   6.318  20.770  0.00  0.00    +0.000 A 
ATOM     20  C   UNL     1       2.471   5.396  20.048  0.00  0.00    +0.000 A 
ATOM     21  C   UNL     1       3.089   5.777  18.845  0.00  0.00    +0.000 A 
ATOM     22  C   UNL     1       2.927   7.072  18.354  0.00  0.00    +0.000 A 
ATOM     23  C   UNL     1       2.139   7.982  19.068  0.00  0.00    +0.000 A 
BRANCH  21  24
ATOM     24  S   UNL     1       4.174   4.640  17.997  0.00  0.00    +0.000 S 
ATOM     25  O   UNL     1       4.924   3.960  19.023  0.00  0.00    +0.000 OA
ATOM     26  O   UNL     1       3.365   3.889  17.061  0.00  0.00    +0.000 OA
BRANCH  24  27
ATOM     27  N   UNL     1       5.253   5.599  17.098  0.00  0.00    +0.000 NA
ATOM     28  C   UNL     1       5.568   5.179  15.697  0.00  0.00    +0.000 C 
ATOM     29  C   UNL     1       6.624   4.066  15.648  0.00  0.00    +0.000 C 
ATOM     30  O   UNL     1       7.823   4.450  16.333  0.00  0.00    +0.000 OA
ATOM     31  C   UNL     1       7.558   4.780  17.704  0.00  0.00    +0.000 C 
ATOM     32  C   UNL     1       6.537   5.921  17.815  0.00  0.00    +0.000 C 
ENDBRANCH  24  27
ENDBRANCH  21  24
ENDBRANCH  11  18
TORSDOF 3
ENDMDL
MODEL 2
REMARK VINA RESULT:      -8.2      3.151     11.641
REMARK  Name = 
REMARK  4 active torsions:
REMARK  status: ('A' for Active; 'I' for Inactive)
REMARK    1  A    between atoms: C_1  and  C_2
REMARK    2  A    between atoms: C_11  and  C_13
REMARK    3  A    between atoms: C_16  and  S_17
REMARK    4  A    between atoms: S_17  and  N_20
REMARK                            x       y       z     vdW  Elec       q    Type
REMARK                         _______ _______ _______ _____ _____    ______ ____
ROOT
ATOM      1  C   UNL     1       7.091   4.676  14.843  0.00  0.00    +0.000 C 
ATOM      2  C   UNL     1       6.133   5.022  15.928  0.00  0.00    +0.000 A 
ATOM      3  N   UNL     1       6.006   4.303  17.022  0.00  0.00    +0.000 NA
ATOM      4  C   UNL     1       5.058   4.868  17.846  0.00  0.00    +0.000 A 
ATOM      5  C   UNL     1       4.665   4.384  19.104  0.00  0.00    +0.000 A 
ATOM      6  C   UNL     1       3.694   5.062  19.853  0.00  0.00    +0.000 A 
ATOM      7  C   UNL     1       3.101   6.239  19.357  0.00  0.00    +0.000 A 
ATOM      8  N   UNL     1       2.165   7.001  20.010  0.00  0.00    +0.000 NA
ATOM      9  C   UNL     1       1.867   8.055  19.297  0.00  0.00    +0.000 A 
ATOM     10  N   UNL     1       1.038   9.092  19.676  0.00  0.00    +0.000 N 
ATOM     11  C   UNL     1       0.672   9.213  21.010  0.00  0.00    +0.000 C 
ATOM     12  O   UNL     1       1.037   8.495  21.937  0.00  0.00    +0.000 OA
ATOM     13  S   UNL     1       2.606   8.139  17.750  0.00  0.00    +0.000 S 
ATOM     14  C   UNL     1       3.482   6.711  18.107  0.00  0.00    +0.000 A 
ATOM     15  C   UNL     1       4.459   6.026  17.360  0.00  0.00    +0.000 A 
ATOM     16  S   UNL     1       5.106   6.409  15.829  0.00  0.00    +0.000 S 
ATOM     17  H   UNL     1       0.849   9.816  19.003  0.00  0.00    +0.000 HD
ENDROOT
BRANCH  11  18
ATOM     18  C   UNL     1      -0.195  10.365  21.386  0.00  0.00    +0.000 A 
ATOM     19  C   UNL     1      -0.549  11.368  20.480  0.00  0.00    +0.000 A 
ATOM     20  C   UNL     1      -1.442  12.380  20.877  0.00  0.00    +0.000 A 
ATOM     21  C   UNL     1      -1.975  12.387  22.177  0.00  0.00    +0.000 A 
ATOM     22  C   UNL     1      -1.626  11.385  23.083  0.00  0.00    +0.000 A 
ATOM     23  C   UNL     1      -0.749  10.372  22.679  0.00  0.00    +0.000 A 
BRANCH  21  24
ATOM     24  S   UNL     1      -3.012  13.738  22.712  0.00  0.00    +0.000 S 
ATOM     25  O   UNL     1      -2.880  13.802  24.146  0.00  0.00    +0.000 OA
ATOM     26  O   UNL     1      -2.682  14.885  21.894  0.00  0.00    +0.000 OA
BRANCH  24  27
ATOM     27  N   UNL     1      -4.609  13.282  22.345  0.00  0.00    +0.000 NA
ATOM     28  C   UNL     1      -5.284  13.950  21.189  0.00  0.00    +0.000 C 
ATOM     29  C   UNL     1      -5.837  15.333  21.559  0.00  0.00    +0.000 C 
ATOM     30  O   UNL     1      -6.728  15.259  22.679  0.00  0.00    +0.000 OA
ATOM     31  C   UNL     1      -6.078  14.696  23.827  0.00  0.00    +0.000 C 
ATOM     32  C   UNL     1      -5.540  13.289  23.529  0.00  0.00    +0.000 C 
ENDBRANCH  24  27
ENDBRANCH  21  24
ENDBRANCH  11  18
TORSDOF 3
ENDMDL
MODEL 3
REMARK VINA RESULT:      -8.2      3.051     11.468
REMARK  Name = 
REMARK  4 active torsions:
REMARK  status: ('A' for Active; 'I' for Inactive)
REMARK    1  A    between atoms: C_1  and  C_2
REMARK    2  A    between atoms: C_11  and  C_13
REMARK    3  A    between atoms: C_16  and  S_17
REMARK    4  A    between atoms: S_17  and  N_20
REMARK                            x       y       z     vdW  Elec       q    Type
REMARK                         _______ _______ _______ _____ _____    ______ ____
ROOT
ATOM      1  C   UNL     1       7.155   4.769  14.727  0.00  0.00    +0.000 C 
ATOM      2  C   UNL     1       6.185   5.063  15.816  0.00  0.00    +0.000 A 
ATOM      3  N   UNL     1       6.027   4.280  16.860  0.00  0.00    +0.000 NA
ATOM      4  C   UNL     1       5.075   4.809  17.703  0.00  0.00    +0.000 A 
ATOM      5  C   UNL     1       4.653   4.254  18.922  0.00  0.00    +0.000 A 
ATOM      6  C   UNL     1       3.681   4.901  19.697  0.00  0.00    +0.000 A 
ATOM      7  C   UNL     1       3.117   6.118  19.267  0.00  0.00    +0.000 A 
ATOM      8  N   UNL     1       2.184   6.854  19.951  0.00  0.00    +0.000 NA
ATOM      9  C   UNL     1       1.916   7.956  19.302  0.00  0.00    +0.000 A 
ATOM     10  N   UNL     1       1.099   8.982  19.732  0.00  0.00    +0.000 N 
ATOM     11  C   UNL     1       0.712   9.026  21.066  0.00  0.00    +0.000 C 
ATOM     12  O   UNL     1       1.049   8.245  21.951  0.00  0.00    +0.000 OA
ATOM     13  S   UNL     1       2.682   8.124  17.775  0.00  0.00    +0.000 S 
ATOM     14  C   UNL     1       3.527   6.660  18.056  0.00  0.00    +0.000 A 
ATOM     15  C   UNL     1       4.505   6.006  17.282  0.00  0.00    +0.000 A 
ATOM     16  S   UNL     1       5.184   6.473  15.789  0.00  0.00    +0.000 S 
ATOM     17  H   UNL     1       0.934   9.750  19.104  0.00  0.00    +0.000 HD
ENDROOT
BRANCH  11  18
ATOM     18  C   UNL     1      -0.141  10.167  21.499  0.00  0.00    +0.000 A 
ATOM     19  C   UNL     1      -0.525  11.193  20.633  0.00  0.00    +0.000 A 
ATOM     20  C   UNL     1      -1.404  12.194  21.085  0.00  0.00    +0.000 A 
ATOM     21  C   UNL     1      -1.892  12.168  22.402  0.00  0.00    +0.000 A 
ATOM     22  C   UNL     1      -1.514  11.143  23.269  0.00  0.00    +0.000 A 
ATOM     23  C   UNL     1      -0.651  10.141  22.811  0.00  0.00    +0.000 A 
BRANCH  21  24
ATOM     24  S   UNL     1      -2.910  13.505  23.006  0.00  0.00    +0.000 S 
ATOM     25  O   UNL     1      -3.085  14.408  21.896  0.00  0.00    +0.000 OA
ATOM     26  O   UNL     1      -4.058  12.913  23.657  0.00  0.00    +0.000 OA
BRANCH  24  27
ATOM     27  N   UNL     1      -1.991  14.298  24.196  0.00  0.00    +0.000 NA
ATOM     28  C   UNL     1      -2.720  15.044  25.268  0.00  0.00    +0.000 C 
ATOM     29  C   UNL     1      -3.183  16.430  24.799  0.00  0.00    +0.000 C 
ATOM     30  O   UNL     1      -2.086  17.212  24.310  0.00  0.00    +0.000 OA
ATOM     31  C   UNL     1      -1.419  16.552  23.225  0.00  0.00    +0.000 C 
ATOM     32  C   UNL     1      -0.894  15.173  23.648  0.00  0.00    +0.000 C 
ENDBRANCH  24  27
ENDBRANCH  21  24
ENDBRANCH  11  18
TORSDOF 3
ENDMDL
MODEL 4
REMARK VINA RESULT:      -8.0      3.092     11.561
REMARK  Name = 
REMARK  4 active torsions:
REMARK  status: ('A' for Active; 'I' for Inactive)
REMARK    1  A    between atoms: C_1  and  C_2
REMARK    2  A    between atoms: C_11  and  C_13
REMARK    3  A    between atoms: C_16  and  S_17
REMARK    4  A    between atoms: S_17  and  N_20
REMARK                            x       y       z     vdW  Elec       q    Type
REMARK                         _______ _______ _______ _____ _____    ______ ____
ROOT
ATOM      1  C   UNL     1       7.101   4.653  14.967  0.00  0.00    +0.000 C 
ATOM      2  C   UNL     1       6.114   5.009  16.023  0.00  0.00    +0.000 A 
ATOM      3  N   UNL     1       5.912   4.266  17.088  0.00  0.00    +0.000 NA
ATOM      4  C   UNL     1       4.955   4.847  17.890  0.00  0.00    +0.000 A 
ATOM      5  C   UNL     1       4.491   4.345  19.116  0.00  0.00    +0.000 A 
ATOM      6  C   UNL     1       3.518   5.043  19.845  0.00  0.00    +0.000 A 
ATOM      7  C   UNL     1       2.996   6.257  19.362  0.00  0.00    +0.000 A 
ATOM      8  N   UNL     1       2.066   7.040  19.999  0.00  0.00    +0.000 NA
ATOM      9  C   UNL     1       1.842   8.125  19.306  0.00  0.00    +0.000 A 
ATOM     10  N   UNL     1       1.042   9.185  19.683  0.00  0.00    +0.000 N 
ATOM     11  C   UNL     1       0.626   9.284  21.005  0.00  0.00    +0.000 C 
ATOM     12  O   UNL     1       0.922   8.526  21.923  0.00  0.00    +0.000 OA
ATOM     13  S   UNL     1       2.647   8.221  17.794  0.00  0.00    +0.000 S 
ATOM     14  C   UNL     1       3.447   6.747  18.143  0.00  0.00    +0.000 A 
ATOM     15  C   UNL     1       4.426   6.043  17.416  0.00  0.00    +0.000 A 
ATOM     16  S   UNL     1       5.151   6.442  15.924  0.00  0.00    +0.000 S 
ATOM     17  H   UNL     1       0.911   9.936  19.025  0.00  0.00    +0.000 HD
ENDROOT
BRANCH  11  18
ATOM     18  C   UNL     1      -0.207  10.461  21.379  0.00  0.00    +0.000 A 
ATOM     19  C   UNL     1      -0.662  10.678  22.682  0.00  0.00    +0.000 A 
ATOM     20  C   UNL     1      -1.371  11.855  22.984  0.00  0.00    +0.000 A 
ATOM     21  C   UNL     1      -1.624  12.808  21.983  0.00  0.00    +0.000 A 
ATOM     22  C   UNL     1      -1.169  12.596  20.682  0.00  0.00    +0.000 A 
ATOM     23  C   UNL     1      -0.451  11.431  20.389  0.00  0.00    +0.000 A 
BRANCH  21  24
ATOM     24  S   UNL     1      -2.627  14.241  22.345  0.00  0.00    +0.000 S 
ATOM     25  O   UNL     1      -1.923  14.976  23.366  0.00  0.00    +0.000 OA
ATOM     26  O   UNL     1      -2.952  14.869  21.083  0.00  0.00    +0.000 OA
BRANCH  24  27
ATOM     27  N   UNL     1      -4.072  13.649  23.017  0.00  0.00    +0.000 NA
ATOM     28  C   UNL     1      -5.139  13.172  22.084  0.00  0.00    +0.000 C 
ATOM     29  C   UNL     1      -5.964  14.329  21.504  0.00  0.00    +0.000 C 
ATOM     30  O   UNL     1      -6.536  15.137  22.540  0.00  0.00    +0.000 OA
ATOM     31  C   UNL     1      -5.523  15.674  23.403  0.00  0.00    +0.000 C 
ATOM     32  C   UNL     1      -4.691  14.557  24.048  0.00  0.00    +0.000 C 
ENDBRANCH  24  27
ENDBRANCH  21  24
ENDBRANCH  11  18
TORSDOF 3
ENDMDL
MODEL 5
REMARK VINA RESULT:      -8.0      1.652      1.682
REMARK  Name = 
REMARK  4 active torsions:
REMARK  status: ('A' for Active; 'I' for Inactive)
REMARK    1  A    between atoms: C_1  and  C_2
REMARK    2  A    between atoms: C_11  and  C_13
REMARK    3  A    between atoms: C_16  and  S_17
REMARK    4  A    between atoms: S_17  and  N_20
REMARK                            x       y       z     vdW  Elec       q    Type
REMARK                         _______ _______ _______ _____ _____    ______ ____
ROOT
ATOM      1  C   UNL     1      -6.945  15.482  20.763  0.00  0.00    +0.000 C 
ATOM      2  C   UNL     1      -5.717  14.706  21.086  0.00  0.00    +0.000 A 
ATOM      3  N   UNL     1      -5.193  14.671  22.291  0.00  0.00    +0.000 NA
ATOM      4  C   UNL     1      -4.074  13.868  22.292  0.00  0.00    +0.000 A 
ATOM      5  C   UNL     1      -3.263  13.586  23.403  0.00  0.00    +0.000 A 
ATOM      6  C   UNL     1      -2.154  12.738  23.274  0.00  0.00    +0.000 A 
ATOM      7  C   UNL     1      -1.839  12.156  22.032  0.00  0.00    +0.000 A 
ATOM      8  N   UNL     1      -0.801  11.292  21.792  0.00  0.00    +0.000 NA
ATOM      9  C   UNL     1      -0.826  10.894  20.547  0.00  0.00    +0.000 A 
ATOM     10  N   UNL     1       0.004   9.952  19.973  0.00  0.00    +0.000 N 
ATOM     11  C   UNL     1       0.770   9.134  20.793  0.00  0.00    +0.000 C 
ATOM     12  O   UNL     1       0.776   9.128  22.021  0.00  0.00    +0.000 OA
ATOM     13  S   UNL     1      -2.027  11.619  19.559  0.00  0.00    +0.000 S 
ATOM     14  C   UNL     1      -2.635  12.446  20.931  0.00  0.00    +0.000 A 
ATOM     15  C   UNL     1      -3.749  13.297  21.067  0.00  0.00    +0.000 A 
ATOM     16  S   UNL     1      -4.880  13.784  19.887  0.00  0.00    +0.000 S 
ATOM     17  H   UNL     1      -0.087   9.782  18.985  0.00  0.00    +0.000 HD
ENDROOT
BRANCH  11  18
ATOM     18  C   UNL     1       1.626   8.107  20.137  0.00  0.00    +0.000 A 
ATOM     19  C   UNL     1       1.828   6.835  20.679  0.00  0.00    +0.000 A 
ATOM     20  C   UNL     1       2.577   5.884  19.963  0.00  0.00    +0.000 A 
ATOM     21  C   UNL     1       3.123   6.208  18.710  0.00  0.00    +0.000 A 
ATOM     22  C   UNL     1       2.921   7.475  18.164  0.00  0.00    +0.000 A 
ATOM     23  C   UNL     1       2.163   8.414  18.873  0.00  0.00    +0.000 A 
BRANCH  21  24
ATOM     24  S   UNL     1       4.173   5.038  17.862  0.00  0.00    +0.000 S 
ATOM     25  O   UNL     1       4.829   4.270  18.890  0.00  0.00    +0.000 OA
ATOM     26  O   UNL     1       3.363   4.380  16.860  0.00  0.00    +0.000 OA
BRANCH  24  27
ATOM     27  N   UNL     1       5.351   5.960  17.053  0.00  0.00    +0.000 NA
ATOM     28  C   UNL     1       5.368   5.925  15.558  0.00  0.00    +0.000 C 
ATOM     29  C   UNL     1       6.072   4.674  15.014  0.00  0.00    +0.000 C 
ATOM     30  O   UNL     1       7.405   4.557  15.529  0.00  0.00    +0.000 OA
ATOM     31  C   UNL     1       7.408   4.507  16.962  0.00  0.00    +0.000 C 
ATOM     32  C   UNL     1       6.752   5.757  17.566  0.00  0.00    +0.000 C 
ENDBRANCH  24  27
ENDBRANCH  21  24
ENDBRANCH  11  18
TORSDOF 3
ENDMDL
MODEL 6
REMARK VINA RESULT:      -7.9      2.963     11.569
REMARK  Name = 
REMARK  4 active torsions:
REMARK  status: ('A' for Active; 'I' for Inactive)
REMARK    1  A    between atoms: C_1  and  C_2
REMARK    2  A    between atoms: C_11  and  C_13
REMARK    3  A    between atoms: C_16  and  S_17
REMARK    4  A    between atoms: S_17  and  N_20
REMARK                            x       y       z     vdW  Elec       q    Type
REMARK                         _______ _______ _______ _____ _____    ______ ____
ROOT
ATOM      1  C   UNL     1       6.993   4.465  14.553  0.00  0.00    +0.000 C 
ATOM      2  C   UNL     1       6.046   4.795  15.653  0.00  0.00    +0.000 A 
ATOM      3  N   UNL     1       5.787   3.968  16.642  0.00  0.00    +0.000 NA
ATOM      4  C   UNL     1       4.888   4.545  17.511  0.00  0.00    +0.000 A 
ATOM      5  C   UNL     1       4.390   3.963  18.688  0.00  0.00    +0.000 A 
ATOM      6  C   UNL     1       3.484   4.664  19.497  0.00  0.00    +0.000 A 
ATOM      7  C   UNL     1       3.065   5.960  19.144  0.00  0.00    +0.000 A 
ATOM      8  N   UNL     1       2.210   6.751  19.868  0.00  0.00    +0.000 NA
ATOM      9  C   UNL     1       2.075   7.916  19.291  0.00  0.00    +0.000 A 
ATOM     10  N   UNL     1       1.370   8.996  19.782  0.00  0.00    +0.000 N 
ATOM     11  C   UNL     1       0.972   8.997  21.113  0.00  0.00    +0.000 C 
ATOM     12  O   UNL     1       1.207   8.128  21.947  0.00  0.00    +0.000 OA
ATOM     13  S   UNL     1       2.876   8.094  17.784  0.00  0.00    +0.000 S 
ATOM     14  C   UNL     1       3.550   6.531  17.973  0.00  0.00    +0.000 A 
ATOM     15  C   UNL     1       4.460   5.823  17.166  0.00  0.00    +0.000 A 
ATOM     16  S   UNL     1       5.209   6.306  15.711  0.00  0.00    +0.000 S 
ATOM     17  H   UNL     1       1.301   9.817  19.204  0.00  0.00    +0.000 HD
ENDROOT
BRANCH  11  18
ATOM     18  C   UNL     1       0.245  10.196  21.614  0.00  0.00    +0.000 A 
ATOM     19  C   UNL     1       0.363  11.454  21.018  0.00  0.00    +0.000 A 
ATOM     20  C   UNL     1      -0.420  12.524  21.488  0.00  0.00    +0.000 A 
ATOM     21  C   UNL     1      -1.315  12.334  22.554  0.00  0.00    +0.000 A 
ATOM     22  C   UNL     1      -1.439  11.079  23.149  0.00  0.00    +0.000 A 
ATOM     23  C   UNL     1      -0.669  10.013  22.669  0.00  0.00    +0.000 A 
BRANCH  21  24
ATOM     24  S   UNL     1      -2.216  13.722  23.224  0.00  0.00    +0.000 S 
ATOM     25  O   UNL     1      -3.125  13.176  24.200  0.00  0.00    +0.000 OA
ATOM     26  O   UNL     1      -1.245  14.723  23.607  0.00  0.00    +0.000 OA
BRANCH  24  27
ATOM     27  N   UNL     1      -3.134  14.354  21.940  0.00  0.00    +0.000 NA
ATOM     28  C   UNL     1      -2.925  15.787  21.564  0.00  0.00    +0.000 C 
ATOM     29  C   UNL     1      -3.685  16.747  22.489  0.00  0.00    +0.000 C 
ATOM     30  O   UNL     1      -5.085  16.442  22.525  0.00  0.00    +0.000 OA
ATOM     31  C   UNL     1      -5.315  15.095  22.961  0.00  0.00    +0.000 C 
ATOM     32  C   UNL     1      -4.612  14.085  22.045  0.00  0.00    +0.000 C 
ENDBRANCH  24  27
ENDBRANCH  21  24
ENDBRANCH  11  18
TORSDOF 3
ENDMDL
MODEL 7
REMARK VINA RESULT:      -7.9      2.930     11.355
REMARK  Name = 
REMARK  4 active torsions:
REMARK  status: ('A' for Active; 'I' for Inactive)
REMARK    1  A    between atoms: C_1  and  C_2
REMARK    2  A    between atoms: C_11  and  C_13
REMARK    3  A    between atoms: C_16  and  S_17
REMARK    4  A    between atoms: S_17  and  N_20
REMARK                            x       y       z     vdW  Elec       q    Type
REMARK                         _______ _______ _______ _____ _____    ______ ____
ROOT
ATOM      1  C   UNL     1       6.928   4.348  14.161  0.00  0.00    +0.000 C 
ATOM      2  C   UNL     1       6.014   4.667  15.292  0.00  0.00    +0.000 A 
ATOM      3  N   UNL     1       5.786   3.832  16.281  0.00  0.00    +0.000 NA
ATOM      4  C   UNL     1       4.913   4.400  17.182  0.00  0.00    +0.000 A 
ATOM      5  C   UNL     1       4.451   3.807  18.368  0.00  0.00    +0.000 A 
ATOM      6  C   UNL     1       3.569   4.500  19.210  0.00  0.00    +0.000 A 
ATOM      7  C   UNL     1       3.139   5.799  18.881  0.00  0.00    +0.000 A 
ATOM      8  N   UNL     1       2.305   6.582  19.638  0.00  0.00    +0.000 NA
ATOM      9  C   UNL     1       2.153   7.752  19.076  0.00  0.00    +0.000 A 
ATOM     10  N   UNL     1       1.463   8.827  19.598  0.00  0.00    +0.000 N 
ATOM     11  C   UNL     1       1.105   8.816  20.940  0.00  0.00    +0.000 C 
ATOM     12  O   UNL     1       1.365   7.939  21.759  0.00  0.00    +0.000 OA
ATOM     13  S   UNL     1       2.908   7.945  17.547  0.00  0.00    +0.000 S 
ATOM     14  C   UNL     1       3.588   6.380  17.702  0.00  0.00    +0.000 A 
ATOM     15  C   UNL     1       4.474   5.680  16.861  0.00  0.00    +0.000 A 
ATOM     16  S   UNL     1       5.178   6.177  15.389  0.00  0.00    +0.000 S 
ATOM     17  H   UNL     1       1.375   9.653  19.029  0.00  0.00    +0.000 HD
ENDROOT
BRANCH  11  18
ATOM     18  C   UNL     1       0.392  10.010  21.474  0.00  0.00    +0.000 A 
ATOM     19  C   UNL     1      -0.535   9.931  22.516  0.00  0.00    +0.000 A 
ATOM     20  C   UNL     1      -1.106  11.109  23.030  0.00  0.00    +0.000 A 
ATOM     21  C   UNL     1      -0.751  12.360  22.499  0.00  0.00    +0.000 A 
ATOM     22  C   UNL     1       0.177  12.444  21.461  0.00  0.00    +0.000 A 
ATOM     23  C   UNL     1       0.754  11.270  20.962  0.00  0.00    +0.000 A 
BRANCH  21  24
ATOM     24  S   UNL     1      -1.568  13.841  23.073  0.00  0.00    +0.000 S 
ATOM     25  O   UNL     1      -2.457  13.425  24.129  0.00  0.00    +0.000 OA
ATOM     26  O   UNL     1      -0.542  14.829  23.327  0.00  0.00    +0.000 OA
BRANCH  24  27
ATOM     27  N   UNL     1      -2.511  14.396  21.772  0.00  0.00    +0.000 NA
ATOM     28  C   UNL     1      -3.326  15.634  21.971  0.00  0.00    +0.000 C 
ATOM     29  C   UNL     1      -4.639  15.352  22.713  0.00  0.00    +0.000 C 
ATOM     30  O   UNL     1      -5.415  14.349  22.044  0.00  0.00    +0.000 OA
ATOM     31  C   UNL     1      -4.682  13.124  21.913  0.00  0.00    +0.000 C 
ATOM     32  C   UNL     1      -3.374  13.336  21.139  0.00  0.00    +0.000 C 
ENDBRANCH  24  27
ENDBRANCH  21  24
ENDBRANCH  11  18
TORSDOF 3
ENDMDL
MODEL 8
REMARK VINA RESULT:      -7.7      3.232     11.581
REMARK  Name = 
REMARK  4 active torsions:
REMARK  status: ('A' for Active; 'I' for Inactive)
REMARK    1  A    between atoms: C_1  and  C_2
REMARK    2  A    between atoms: C_11  and  C_13
REMARK    3  A    between atoms: C_16  and  S_17
REMARK    4  A    between atoms: S_17  and  N_20
REMARK                            x       y       z     vdW  Elec       q    Type
REMARK                         _______ _______ _______ _____ _____    ______ ____
ROOT
ATOM      1  C   UNL     1       6.897   4.579  15.662  0.00  0.00    +0.000 C 
ATOM      2  C   UNL     1       5.843   5.013  16.619  0.00  0.00    +0.000 A 
ATOM      3  N   UNL     1       5.507   4.310  17.677  0.00  0.00    +0.000 NA
ATOM      4  C   UNL     1       4.518   4.962  18.379  0.00  0.00    +0.000 A 
ATOM      5  C   UNL     1       3.921   4.516  19.570  0.00  0.00    +0.000 A 
ATOM      6  C   UNL     1       2.929   5.283  20.195  0.00  0.00    +0.000 A 
ATOM      7  C   UNL     1       2.519   6.511  19.642  0.00  0.00    +0.000 A 
ATOM      8  N   UNL     1       1.582   7.358  20.178  0.00  0.00    +0.000 NA
ATOM      9  C   UNL     1       1.480   8.436  19.446  0.00  0.00    +0.000 A 
ATOM     10  N   UNL     1       0.710   9.546  19.728  0.00  0.00    +0.000 N 
ATOM     11  C   UNL     1       0.186   9.701  21.005  0.00  0.00    +0.000 C 
ATOM     12  O   UNL     1       0.359   8.952  21.962  0.00  0.00    +0.000 OA
ATOM     13  S   UNL     1       2.418   8.450  18.009  0.00  0.00    +0.000 S 
ATOM     14  C   UNL     1       3.102   6.945  18.458  0.00  0.00    +0.000 A 
ATOM     15  C   UNL     1       4.099   6.171  17.835  0.00  0.00    +0.000 A 
ATOM     16  S   UNL     1       4.973   6.492  16.406  0.00  0.00    +0.000 S 
ATOM     17  H   UNL     1       0.679  10.286  19.046  0.00  0.00    +0.000 HD
ENDROOT
BRANCH  11  18
ATOM     18  C   UNL     1      -0.610  10.930  21.280  0.00  0.00    +0.000 A 
ATOM     19  C   UNL     1      -1.293  11.625  20.279  0.00  0.00    +0.000 A 
ATOM     20  C   UNL     1      -2.097  12.727  20.622  0.00  0.00    +0.000 A 
ATOM     21  C   UNL     1      -2.213  13.132  21.962  0.00  0.00    +0.000 A 
ATOM     22  C   UNL     1      -1.536  12.438  22.965  0.00  0.00    +0.000 A 
ATOM     23  C   UNL     1      -0.748  11.333  22.621  0.00  0.00    +0.000 A 
BRANCH  21  24
ATOM     24  S   UNL     1      -3.138  14.602  22.376  0.00  0.00    +0.000 S 
ATOM     25  O   UNL     1      -2.318  15.344  23.302  0.00  0.00    +0.000 OA
ATOM     26  O   UNL     1      -3.569  15.205  21.134  0.00  0.00    +0.000 OA
BRANCH  24  27
ATOM     27  N   UNL     1      -4.525  14.070  23.204  0.00  0.00    +0.000 NA
ATOM     28  C   UNL     1      -5.260  12.887  22.658  0.00  0.00    +0.000 C 
ATOM     29  C   UNL     1      -6.183  13.263  21.492  0.00  0.00    +0.000 C 
ATOM     30  O   UNL     1      -7.109  14.292  21.866  0.00  0.00    +0.000 OA
ATOM     31  C   UNL     1      -6.425  15.469  22.318  0.00  0.00    +0.000 C 
ATOM     32  C   UNL     1      -5.515  15.162  23.515  0.00  0.00    +0.000 C 
ENDBRANCH  24  27
ENDBRANCH  21  24
ENDBRANCH  11  18
TORSDOF 3
ENDMDL
MODEL 9
REMARK VINA RESULT:      -7.7      3.116     11.610
REMARK  Name = 
REMARK  4 active torsions:
REMARK  status: ('A' for Active; 'I' for Inactive)
REMARK    1  A    between atoms: C_1  and  C_2
REMARK    2  A    between atoms: C_11  and  C_13
REMARK    3  A    between atoms: C_16  and  S_17
REMARK    4  A    between atoms: S_17  and  N_20
REMARK                            x       y       z     vdW  Elec       q    Type
REMARK                         _______ _______ _______ _____ _____    ______ ____
ROOT
ATOM      1  C   UNL     1       7.143   4.738  15.379  0.00  0.00    +0.000 C 
ATOM      2  C   UNL     1       6.097   5.099  16.374  0.00  0.00    +0.000 A 
ATOM      3  N   UNL     1       5.810   4.344  17.411  0.00  0.00    +0.000 NA
ATOM      4  C   UNL     1       4.814   4.933  18.159  0.00  0.00    +0.000 A 
ATOM      5  C   UNL     1       4.261   4.422  19.343  0.00  0.00    +0.000 A 
ATOM      6  C   UNL     1       3.257   5.129  20.019  0.00  0.00    +0.000 A 
ATOM      7  C   UNL     1       2.792   6.361  19.524  0.00  0.00    +0.000 A 
ATOM      8  N   UNL     1       1.839   7.154  20.111  0.00  0.00    +0.000 NA
ATOM      9  C   UNL     1       1.683   8.255  19.424  0.00  0.00    +0.000 A 
ATOM     10  N   UNL     1       0.882   9.325  19.766  0.00  0.00    +0.000 N 
ATOM     11  C   UNL     1       0.383   9.413  21.059  0.00  0.00    +0.000 C 
ATOM     12  O   UNL     1       0.602   8.634  21.982  0.00  0.00    +0.000 OA
ATOM     13  S   UNL     1       2.587   8.357  17.969  0.00  0.00    +0.000 S 
ATOM     14  C   UNL     1       3.333   6.861  18.345  0.00  0.00    +0.000 A 
ATOM     15  C   UNL     1       4.342   6.147  17.671  0.00  0.00    +0.000 A 
ATOM     16  S   UNL     1       5.171   6.553  16.237  0.00  0.00    +0.000 S 
ATOM     17  H   UNL     1       0.810  10.089  19.113  0.00  0.00    +0.000 HD
ENDROOT
BRANCH  11  18
ATOM     18  C   UNL     1      -0.449  10.601  21.398  0.00  0.00    +0.000 A 
ATOM     19  C   UNL     1      -0.811  10.919  22.710  0.00  0.00    +0.000 A 
ATOM     20  C   UNL     1      -1.524  12.104  22.967  0.00  0.00    +0.000 A 
ATOM     21  C   UNL     1      -1.875  12.964  21.914  0.00  0.00    +0.000 A 
ATOM     22  C   UNL     1      -1.513  12.653  20.604  0.00  0.00    +0.000 A 
ATOM     23  C   UNL     1      -0.790  11.480  20.353  0.00  0.00    +0.000 A 
BRANCH  21  24
ATOM     24  S   UNL     1      -2.883  14.404  22.232  0.00  0.00    +0.000 S 
ATOM     25  O   UNL     1      -2.666  15.298  21.123  0.00  0.00    +0.000 OA
ATOM     26  O   UNL     1      -4.215  13.937  22.547  0.00  0.00    +0.000 OA
BRANCH  24  27
ATOM     27  N   UNL     1      -2.243  15.128  23.631  0.00  0.00    +0.000 NA
ATOM     28  C   UNL     1      -3.052  15.068  24.888  0.00  0.00    +0.000 C 
ATOM     29  C   UNL     1      -4.154  16.136  24.922  0.00  0.00    +0.000 C 
ATOM     30  O   UNL     1      -3.615  17.452  24.741  0.00  0.00    +0.000 OA
ATOM     31  C   UNL     1      -2.901  17.558  23.502  0.00  0.00    +0.000 C 
ATOM     32  C   UNL     1      -1.755  16.539  23.428  0.00  0.00    +0.000 C 
ENDBRANCH  24  27
ENDBRANCH  21  24
ENDBRANCH  11  18
TORSDOF 3
ENDMDL
