MODEL 1
REMARK VINA RESULT:      -9.1      0.000      0.000
REMARK  Name = 
REMARK  7 active torsions:
REMARK  status: ('A' for Active; 'I' for Inactive)
REMARK    1  A    between atoms: C_1  and  O_2
REMARK    2  A    between atoms: O_2  and  C_3
REMARK    3  A    between atoms: C_6  and  C_7
REMARK    4  A    between atoms: N_8  and  C_9
REMARK    5  A    between atoms: C_12  and  C_13
REMARK    6  A    between atoms: C_26  and  O_27
REMARK    7  A    between atoms: O_27  and  C_28
REMARK                            x       y       z     vdW  Elec       q    Type
REMARK                         _______ _______ _______ _____ _____    ______ ____
ROOT
ATOM      1  C   UNL     1       7.365   7.930  17.421  0.00  0.00    +0.000 A 
ATOM      2  N   UNL     1       7.858   7.013  16.608  0.00  0.00    +0.000 NA
ATOM      3  N   UNL     1       6.983   5.952  16.600  0.00  0.00    +0.000 NA
ATOM      4  C   UNL     1       5.976   6.250  17.411  0.00  0.00    +0.000 A 
ATOM      5  O   UNL     1       6.182   7.498  17.961  0.00  0.00    +0.000 OA
ENDROOT
BRANCH   4   6
ATOM      6  C   UNL     1       4.821   5.449  17.662  0.00  0.00    +0.000 A 
ATOM      7  C   UNL     1       4.081   5.668  18.763  0.00  0.00    +0.000 A 
ATOM      8  C   UNL     1       2.946   4.811  19.064  0.00  0.00    +0.000 A 
ATOM      9  C   UNL     1       2.055   5.081  20.103  0.00  0.00    +0.000 A 
ATOM     10  C   UNL     1       1.018   4.184  20.382  0.00  0.00    +0.000 A 
ATOM     11  C   UNL     1       0.884   3.006  19.644  0.00  0.00    +0.000 A 
ATOM     12  C   UNL     1       1.765   2.735  18.601  0.00  0.00    +0.000 A 
ATOM     13  C   UNL     1       2.770   3.655  18.312  0.00  0.00    +0.000 A 
ATOM     14  O   UNL     1       3.574   3.399  17.189  0.00  0.00    +0.000 OA
ATOM     15  C   UNL     1       4.454   4.369  16.715  0.00  0.00    +0.000 A 
ATOM     16  O   UNL     1       4.902   4.290  15.574  0.00  0.00    +0.000 OA
ENDBRANCH   4   6
BRANCH   1  18
ATOM     17  C   UNL     1       8.844   9.154  18.572  0.00  0.00    +0.000 C 
ATOM     18  N   UNL     1       7.842   9.154  17.759  0.00  0.00    +0.000 NA
BRANCH  17  22
ATOM     19  C   UNL     1      10.762  12.719  19.960  0.00  0.00    +0.000 A 
ATOM     20  C   UNL     1       9.825  12.058  20.772  0.00  0.00    +0.000 A 
ATOM     21  C   UNL     1       9.183  10.901  20.328  0.00  0.00    +0.000 A 
ATOM     22  C   UNL     1       9.441  10.423  19.047  0.00  0.00    +0.000 A 
ATOM     23  C   UNL     1      10.295  11.127  18.196  0.00  0.00    +0.000 A 
ATOM     24  C   UNL     1      10.959  12.282  18.640  0.00  0.00    +0.000 A 
BRANCH  19  26
ATOM     25  C   UNL     1      10.906  15.072  20.126  0.00  0.00    +0.000 C 
ATOM     26  O   UNL     1      11.462  13.793  20.439  0.00  0.00    +0.000 OA
ENDBRANCH  19  26
BRANCH  24  27
ATOM     27  O   UNL     1      11.759  12.815  17.665  0.00  0.00    +0.000 OA
ATOM     28  C   UNL     1      11.169  13.581  16.626  0.00  0.00    +0.000 C 
ENDBRANCH  24  27
ENDBRANCH  17  22
ENDBRANCH   1  18
TORSDOF 5
ENDMDL
MODEL 2
REMARK VINA RESULT:      -9.0      0.897      1.863
REMARK  Name = 
REMARK  7 active torsions:
REMARK  status: ('A' for Active; 'I' for Inactive)
REMARK    1  A    between atoms: C_1  and  O_2
REMARK    2  A    between atoms: O_2  and  C_3
REMARK    3  A    between atoms: C_6  and  C_7
REMARK    4  A    between atoms: N_8  and  C_9
REMARK    5  A    between atoms: C_12  and  C_13
REMARK    6  A    between atoms: C_26  and  O_27
REMARK    7  A    between atoms: O_27  and  C_28
REMARK                            x       y       z     vdW  Elec       q    Type
REMARK                         _______ _______ _______ _____ _____    ______ ____
ROOT
ATOM      1  C   UNL     1       7.334   7.650  17.293  0.00  0.00    +0.000 A 
ATOM      2  N   UNL     1       7.881   6.630  16.656  0.00  0.00    +0.000 NA
ATOM      3  N   UNL     1       7.000   5.576  16.731  0.00  0.00    +0.000 NA
ATOM      4  C   UNL     1       5.936   5.982  17.413  0.00  0.00    +0.000 A 
ATOM      5  O   UNL     1       6.110   7.295  17.797  0.00  0.00    +0.000 OA
ENDROOT
BRANCH   4   6
ATOM      6  C   UNL     1       4.760   5.221  17.684  0.00  0.00    +0.000 A 
ATOM      7  C   UNL     1       4.046   5.467  18.797  0.00  0.00    +0.000 A 
ATOM      8  C   UNL     1       2.887   4.650  19.118  0.00  0.00    +0.000 A 
ATOM      9  C   UNL     1       2.023   4.952  20.171  0.00  0.00    +0.000 A 
ATOM     10  C   UNL     1       0.961   4.092  20.469  0.00  0.00    +0.000 A 
ATOM     11  C   UNL     1       0.775   2.917  19.737  0.00  0.00    +0.000 A 
ATOM     12  C   UNL     1       1.630   2.614  18.680  0.00  0.00    +0.000 A 
ATOM     13  C   UNL     1       2.660   3.498  18.373  0.00  0.00    +0.000 A 
ATOM     14  O   UNL     1       3.436   3.213  17.238  0.00  0.00    +0.000 OA
ATOM     15  C   UNL     1       4.341   4.151  16.747  0.00  0.00    +0.000 A 
ATOM     16  O   UNL     1       4.767   4.056  15.599  0.00  0.00    +0.000 OA
ENDBRANCH   4   6
BRANCH   1  18
ATOM     17  C   UNL     1       8.617   9.053  18.477  0.00  0.00    +0.000 C 
ATOM     18  N   UNL     1       7.794   8.911  17.491  0.00  0.00    +0.000 NA
BRANCH  17  22
ATOM     19  C   UNL     1      10.012  12.957  19.535  0.00  0.00    +0.000 A 
ATOM     20  C   UNL     1       9.988  12.556  18.189  0.00  0.00    +0.000 A 
ATOM     21  C   UNL     1       9.546  11.282  17.831  0.00  0.00    +0.000 A 
ATOM     22  C   UNL     1       9.169  10.382  18.822  0.00  0.00    +0.000 A 
ATOM     23  C   UNL     1       9.284  10.736  20.168  0.00  0.00    +0.000 A 
ATOM     24  C   UNL     1       9.710  12.022  20.538  0.00  0.00    +0.000 A 
BRANCH  19  26
ATOM     25  C   UNL     1       9.271  15.178  19.861  0.00  0.00    +0.000 C 
ATOM     26  O   UNL     1      10.350  14.240  19.873  0.00  0.00    +0.000 OA
ENDBRANCH  19  26
BRANCH  24  27
ATOM     27  O   UNL     1       9.741  12.175  21.899  0.00  0.00    +0.000 OA
ATOM     28  C   UNL     1       8.520  12.338  22.606  0.00  0.00    +0.000 C 
ENDBRANCH  24  27
ENDBRANCH  17  22
ENDBRANCH   1  18
TORSDOF 5
ENDMDL
MODEL 3
REMARK VINA RESULT:      -9.0      1.631      1.999
REMARK  Name = 
REMARK  7 active torsions:
REMARK  status: ('A' for Active; 'I' for Inactive)
REMARK    1  A    between atoms: C_1  and  O_2
REMARK    2  A    between atoms: O_2  and  C_3
REMARK    3  A    between atoms: C_6  and  C_7
REMARK    4  A    between atoms: N_8  and  C_9
REMARK    5  A    between atoms: C_12  and  C_13
REMARK    6  A    between atoms: C_26  and  O_27
REMARK    7  A    between atoms: O_27  and  C_28
REMARK                            x       y       z     vdW  Elec       q    Type
REMARK                         _______ _______ _______ _____ _____    ______ ____
ROOT
ATOM      1  C   UNL     1       7.717   7.788  18.066  0.00  0.00    +0.000 A 
ATOM      2  N   UNL     1       8.332   6.808  18.703  0.00  0.00    +0.000 NA
ATOM      3  N   UNL     1       7.432   5.777  18.843  0.00  0.00    +0.000 NA
ATOM      4  C   UNL     1       6.289   6.156  18.288  0.00  0.00    +0.000 A 
ATOM      5  O   UNL     1       6.423   7.434  17.786  0.00  0.00    +0.000 OA
ENDROOT
BRANCH   4   6
ATOM      6  C   UNL     1       5.101   5.373  18.167  0.00  0.00    +0.000 A 
ATOM      7  C   UNL     1       4.229   5.319  19.189  0.00  0.00    +0.000 A 
ATOM      8  C   UNL     1       3.053   4.468  19.104  0.00  0.00    +0.000 A 
ATOM      9  C   UNL     1       2.040   4.487  20.063  0.00  0.00    +0.000 A 
ATOM     10  C   UNL     1       0.964   3.599  19.957  0.00  0.00    +0.000 A 
ATOM     11  C   UNL     1       0.911   2.674  18.912  0.00  0.00    +0.000 A 
ATOM     12  C   UNL     1       1.915   2.655  17.947  0.00  0.00    +0.000 A 
ATOM     13  C   UNL     1       2.960   3.570  18.046  0.00  0.00    +0.000 A 
ATOM     14  O   UNL     1       3.898   3.591  17.002  0.00  0.00    +0.000 OA
ATOM     15  C   UNL     1       4.845   4.610  16.922  0.00  0.00    +0.000 A 
ATOM     16  O   UNL     1       5.434   4.824  15.866  0.00  0.00    +0.000 OA
ENDBRANCH   4   6
BRANCH   1  18
ATOM     17  C   UNL     1       8.857   9.650  18.563  0.00  0.00    +0.000 C 
ATOM     18  N   UNL     1       8.170   9.006  17.679  0.00  0.00    +0.000 NA
BRANCH  17  22
ATOM     19  C   UNL     1      10.248  13.574  17.576  0.00  0.00    +0.000 A 
ATOM     20  C   UNL     1      11.098  12.465  17.429  0.00  0.00    +0.000 A 
ATOM     21  C   UNL     1      10.661  11.181  17.759  0.00  0.00    +0.000 A 
ATOM     22  C   UNL     1       9.384  11.004  18.282  0.00  0.00    +0.000 A 
ATOM     23  C   UNL     1       8.569  12.110  18.524  0.00  0.00    +0.000 A 
ATOM     24  C   UNL     1       8.992  13.404  18.180  0.00  0.00    +0.000 A 
BRANCH  19  26
ATOM     25  C   UNL     1      11.991  15.168  17.487  0.00  0.00    +0.000 C 
ATOM     26  O   UNL     1      10.646  14.815  17.157  0.00  0.00    +0.000 OA
ENDBRANCH  19  26
BRANCH  24  27
ATOM     27  O   UNL     1       8.046  14.346  18.483  0.00  0.00    +0.000 OA
ATOM     28  C   UNL     1       6.923  14.502  17.628  0.00  0.00    +0.000 C 
ENDBRANCH  24  27
ENDBRANCH  17  22
ENDBRANCH   1  18
TORSDOF 5
ENDMDL
MODEL 4
REMARK VINA RESULT:      -9.0      1.278      1.559
REMARK  Name = 
REMARK  7 active torsions:
REMARK  status: ('A' for Active; 'I' for Inactive)
REMARK    1  A    between atoms: C_1  and  O_2
REMARK    2  A    between atoms: O_2  and  C_3
REMARK    3  A    between atoms: C_6  and  C_7
REMARK    4  A    between atoms: N_8  and  C_9
REMARK    5  A    between atoms: C_12  and  C_13
REMARK    6  A    between atoms: C_26  and  O_27
REMARK    7  A    between atoms: O_27  and  C_28
REMARK                            x       y       z     vdW  Elec       q    Type
REMARK                         _______ _______ _______ _____ _____    ______ ____
ROOT
ATOM      1  C   UNL     1       7.667   7.415  17.743  0.00  0.00    +0.000 A 
ATOM      2  N   UNL     1       7.671   6.867  16.541  0.00  0.00    +0.000 NA
ATOM      3  N   UNL     1       6.553   6.071  16.446  0.00  0.00    +0.000 NA
ATOM      4  C   UNL     1       5.894   6.155  17.594  0.00  0.00    +0.000 A 
ATOM      5  O   UNL     1       6.572   6.995  18.453  0.00  0.00    +0.000 OA
ENDROOT
BRANCH   4   6
ATOM      6  C   UNL     1       4.652   5.526  17.910  0.00  0.00    +0.000 A 
ATOM      7  C   UNL     1       4.623   4.217  18.216  0.00  0.00    +0.000 A 
ATOM      8  C   UNL     1       3.355   3.552  18.468  0.00  0.00    +0.000 A 
ATOM      9  C   UNL     1       3.274   2.241  18.936  0.00  0.00    +0.000 A 
ATOM     10  C   UNL     1       2.023   1.636  19.100  0.00  0.00    +0.000 A 
ATOM     11  C   UNL     1       0.855   2.327  18.771  0.00  0.00    +0.000 A 
ATOM     12  C   UNL     1       0.929   3.639  18.311  0.00  0.00    +0.000 A 
ATOM     13  C   UNL     1       2.179   4.240  18.188  0.00  0.00    +0.000 A 
ATOM     14  O   UNL     1       2.209   5.595  17.821  0.00  0.00    +0.000 OA
ATOM     15  C   UNL     1       3.398   6.317  17.882  0.00  0.00    +0.000 A 
ATOM     16  O   UNL     1       3.375   7.545  17.889  0.00  0.00    +0.000 OA
ENDBRANCH   4   6
BRANCH   1  18
ATOM     17  C   UNL     1       8.358   9.525  18.030  0.00  0.00    +0.000 C 
ATOM     18  N   UNL     1       8.539   8.279  18.318  0.00  0.00    +0.000 NA
BRANCH  17  22
ATOM     19  C   UNL     1      11.133  12.414  19.535  0.00  0.00    +0.000 A 
ATOM     20  C   UNL     1      10.252  11.757  20.410  0.00  0.00    +0.000 A 
ATOM     21  C   UNL     1       9.334  10.821  19.932  0.00  0.00    +0.000 A 
ATOM     22  C   UNL     1       9.259  10.570  18.565  0.00  0.00    +0.000 A 
ATOM     23  C   UNL     1      10.061  11.289  17.678  0.00  0.00    +0.000 A 
ATOM     24  C   UNL     1      11.000  12.220  18.151  0.00  0.00    +0.000 A 
BRANCH  19  26
ATOM     25  C   UNL     1      11.663  14.588  20.295  0.00  0.00    +0.000 C 
ATOM     26  O   UNL     1      12.098  13.254  20.021  0.00  0.00    +0.000 OA
ENDBRANCH  19  26
BRANCH  24  27
ATOM     27  O   UNL     1      11.696  12.806  17.127  0.00  0.00    +0.000 OA
ATOM     28  C   UNL     1      11.355  14.123  16.722  0.00  0.00    +0.000 C 
ENDBRANCH  24  27
ENDBRANCH  17  22
ENDBRANCH   1  18
TORSDOF 5
ENDMDL
MODEL 5
REMARK VINA RESULT:      -8.9      5.419      8.203
REMARK  Name = 
REMARK  7 active torsions:
REMARK  status: ('A' for Active; 'I' for Inactive)
REMARK    1  A    between atoms: C_1  and  O_2
REMARK    2  A    between atoms: O_2  and  C_3
REMARK    3  A    between atoms: C_6  and  C_7
REMARK    4  A    between atoms: N_8  and  C_9
REMARK    5  A    between atoms: C_12  and  C_13
REMARK    6  A    between atoms: C_26  and  O_27
REMARK    7  A    between atoms: O_27  and  C_28
REMARK                            x       y       z     vdW  Elec       q    Type
REMARK                         _______ _______ _______ _____ _____    ______ ____
ROOT
ATOM      1  C   UNL     1       3.252   5.848  19.394  0.00  0.00    +0.000 A 
ATOM      2  N   UNL     1       3.824   4.716  19.762  0.00  0.00    +0.000 NA
ATOM      3  N   UNL     1       4.645   4.314  18.734  0.00  0.00    +0.000 NA
ATOM      4  C   UNL     1       4.551   5.214  17.763  0.00  0.00    +0.000 A 
ATOM      5  O   UNL     1       3.669   6.205  18.139  0.00  0.00    +0.000 OA
ENDROOT
BRANCH   4   6
ATOM      6  C   UNL     1       5.272   5.213  16.531  0.00  0.00    +0.000 A 
ATOM      7  C   UNL     1       4.927   4.354  15.555  0.00  0.00    +0.000 A 
ATOM      8  C   UNL     1       5.700   4.297  14.325  0.00  0.00    +0.000 A 
ATOM      9  C   UNL     1       5.302   3.540  13.222  0.00  0.00    +0.000 A 
ATOM     10  C   UNL     1       6.121   3.476  12.090  0.00  0.00    +0.000 A 
ATOM     11  C   UNL     1       7.349   4.141  12.066  0.00  0.00    +0.000 A 
ATOM     12  C   UNL     1       7.747   4.904  13.160  0.00  0.00    +0.000 A 
ATOM     13  C   UNL     1       6.905   4.988  14.265  0.00  0.00    +0.000 A 
ATOM     14  O   UNL     1       7.291   5.848  15.306  0.00  0.00    +0.000 OA
ATOM     15  C   UNL     1       6.408   6.146  16.341  0.00  0.00    +0.000 A 
ATOM     16  O   UNL     1       6.603   7.127  17.055  0.00  0.00    +0.000 OA
ENDBRANCH   4   6
BRANCH   1  18
ATOM     17  C   UNL     1       2.127   7.781  19.494  0.00  0.00    +0.000 C 
ATOM     18  N   UNL     1       2.375   6.645  20.054  0.00  0.00    +0.000 NA
BRANCH  17  22
ATOM     19  C   UNL     1      -0.356  10.755  21.311  0.00  0.00    +0.000 A 
ATOM     20  C   UNL     1       0.073   9.642  22.053  0.00  0.00    +0.000 A 
ATOM     21  C   UNL     1       0.873   8.659  21.470  0.00  0.00    +0.000 A 
ATOM     22  C   UNL     1       1.212   8.759  20.125  0.00  0.00    +0.000 A 
ATOM     23  C   UNL     1       0.709   9.808  19.354  0.00  0.00    +0.000 A 
ATOM     24  C   UNL     1      -0.083  10.812  19.935  0.00  0.00    +0.000 A 
BRANCH  19  26
ATOM     25  C   UNL     1      -1.708  11.412  23.135  0.00  0.00    +0.000 C 
ATOM     26  O   UNL     1      -1.056  11.766  21.914  0.00  0.00    +0.000 OA
ENDBRANCH  19  26
BRANCH  24  27
ATOM     27  O   UNL     1      -0.462  11.755  19.018  0.00  0.00    +0.000 OA
ATOM     28  C   UNL     1      -1.534  11.469  18.132  0.00  0.00    +0.000 C 
ENDBRANCH  24  27
ENDBRANCH  17  22
ENDBRANCH   1  18
TORSDOF 5
ENDMDL
MODEL 6
REMARK VINA RESULT:      -8.7      1.374      2.355
REMARK  Name = 
REMARK  7 active torsions:
REMARK  status: ('A' for Active; 'I' for Inactive)
REMARK    1  A    between atoms: C_1  and  O_2
REMARK    2  A    between atoms: O_2  and  C_3
REMARK    3  A    between atoms: C_6  and  C_7
REMARK    4  A    between atoms: N_8  and  C_9
REMARK    5  A    between atoms: C_12  and  C_13
REMARK    6  A    between atoms: C_26  and  O_27
REMARK    7  A    between atoms: O_27  and  C_28
REMARK                            x       y       z     vdW  Elec       q    Type
REMARK                         _______ _______ _______ _____ _____    ______ ____
ROOT
ATOM      1  C   UNL     1       7.444   7.765  17.195  0.00  0.00    +0.000 A 
ATOM      2  N   UNL     1       7.792   6.729  16.452  0.00  0.00    +0.000 NA
ATOM      3  N   UNL     1       6.812   5.774  16.588  0.00  0.00    +0.000 NA
ATOM      4  C   UNL     1       5.888   6.253  17.411  0.00  0.00    +0.000 A 
ATOM      5  O   UNL     1       6.254   7.516  17.828  0.00  0.00    +0.000 OA
ENDROOT
BRANCH   4   6
ATOM      6  C   UNL     1       4.672   5.609  17.792  0.00  0.00    +0.000 A 
ATOM      7  C   UNL     1       4.671   4.294  18.074  0.00  0.00    +0.000 A 
ATOM      8  C   UNL     1       3.425   3.616  18.392  0.00  0.00    +0.000 A 
ATOM      9  C   UNL     1       3.382   2.295  18.839  0.00  0.00    +0.000 A 
ATOM     10  C   UNL     1       2.147   1.678  19.069  0.00  0.00    +0.000 A 
ATOM     11  C   UNL     1       0.956   2.366  18.826  0.00  0.00    +0.000 A 
ATOM     12  C   UNL     1       0.993   3.686  18.386  0.00  0.00    +0.000 A 
ATOM     13  C   UNL     1       2.229   4.299  18.198  0.00  0.00    +0.000 A 
ATOM     14  O   UNL     1       2.228   5.660  17.855  0.00  0.00    +0.000 OA
ATOM     15  C   UNL     1       3.414   6.391  17.856  0.00  0.00    +0.000 A 
ATOM     16  O   UNL     1       3.383   7.618  17.886  0.00  0.00    +0.000 OA
ENDBRANCH   4   6
BRANCH   1  18
ATOM     17  C   UNL     1       8.616   9.111  18.547  0.00  0.00    +0.000 C 
ATOM     18  N   UNL     1       8.063   8.955  17.390  0.00  0.00    +0.000 NA
BRANCH  17  22
ATOM     19  C   UNL     1      10.392  12.858  19.601  0.00  0.00    +0.000 A 
ATOM     20  C   UNL     1      10.494  12.371  18.287  0.00  0.00    +0.000 A 
ATOM     21  C   UNL     1       9.930  11.146  17.932  0.00  0.00    +0.000 A 
ATOM     22  C   UNL     1       9.298  10.375  18.903  0.00  0.00    +0.000 A 
ATOM     23  C   UNL     1       9.278  10.802  20.231  0.00  0.00    +0.000 A 
ATOM     24  C   UNL     1       9.828  12.042  20.595  0.00  0.00    +0.000 A 
BRANCH  19  26
ATOM     25  C   UNL     1       9.902  15.160  19.810  0.00  0.00    +0.000 C 
ATOM     26  O   UNL     1      10.859  14.104  19.920  0.00  0.00    +0.000 OA
ENDBRANCH  19  26
BRANCH  24  27
ATOM     27  O   UNL     1       9.695  12.284  21.936  0.00  0.00    +0.000 OA
ATOM     28  C   UNL     1       8.444  12.044  22.563  0.00  0.00    +0.000 C 
ENDBRANCH  24  27
ENDBRANCH  17  22
ENDBRANCH   1  18
TORSDOF 5
ENDMDL
MODEL 7
REMARK VINA RESULT:      -8.6      1.248      1.678
REMARK  Name = 
REMARK  7 active torsions:
REMARK  status: ('A' for Active; 'I' for Inactive)
REMARK    1  A    between atoms: C_1  and  O_2
REMARK    2  A    between atoms: O_2  and  C_3
REMARK    3  A    between atoms: C_6  and  C_7
REMARK    4  A    between atoms: N_8  and  C_9
REMARK    5  A    between atoms: C_12  and  C_13
REMARK    6  A    between atoms: C_26  and  O_27
REMARK    7  A    between atoms: O_27  and  C_28
REMARK                            x       y       z     vdW  Elec       q    Type
REMARK                         _______ _______ _______ _____ _____    ______ ____
ROOT
ATOM      1  C   UNL     1       7.371   7.625  17.777  0.00  0.00    +0.000 A 
ATOM      2  N   UNL     1       8.165   6.595  18.012  0.00  0.00    +0.000 NA
ATOM      3  N   UNL     1       7.366   5.489  18.187  0.00  0.00    +0.000 NA
ATOM      4  C   UNL     1       6.103   5.873  18.054  0.00  0.00    +0.000 A 
ATOM      5  O   UNL     1       6.059   7.228  17.799  0.00  0.00    +0.000 OA
ENDROOT
BRANCH   4   6
ATOM      6  C   UNL     1       4.949   5.036  18.112  0.00  0.00    +0.000 A 
ATOM      7  C   UNL     1       4.173   5.040  19.210  0.00  0.00    +0.000 A 
ATOM      8  C   UNL     1       3.037   4.138  19.307  0.00  0.00    +0.000 A 
ATOM      9  C   UNL     1       2.112   4.204  20.349  0.00  0.00    +0.000 A 
ATOM     10  C   UNL     1       1.075   3.268  20.420  0.00  0.00    +0.000 A 
ATOM     11  C   UNL     1       0.975   2.249  19.470  0.00  0.00    +0.000 A 
ATOM     12  C   UNL     1       1.891   2.183  18.423  0.00  0.00    +0.000 A 
ATOM     13  C   UNL     1       2.895   3.144  18.345  0.00  0.00    +0.000 A 
ATOM     14  O   UNL     1       3.737   3.107  17.222  0.00  0.00    +0.000 OA
ATOM     15  C   UNL     1       4.622   4.151  16.967  0.00  0.00    +0.000 A 
ATOM     16  O   UNL     1       5.106   4.291  15.847  0.00  0.00    +0.000 OA
ENDBRANCH   4   6
BRANCH   1  18
ATOM     17  C   UNL     1       8.649   9.410  18.214  0.00  0.00    +0.000 C 
ATOM     18  N   UNL     1       7.668   8.925  17.530  0.00  0.00    +0.000 NA
BRANCH  17  22
ATOM     19  C   UNL     1       9.797  13.527  17.997  0.00  0.00    +0.000 A 
ATOM     20  C   UNL     1       8.588  13.099  17.424  0.00  0.00    +0.000 A 
ATOM     21  C   UNL     1       8.207  11.758  17.477  0.00  0.00    +0.000 A 
ATOM     22  C   UNL     1       9.056  10.826  18.064  0.00  0.00    +0.000 A 
ATOM     23  C   UNL     1      10.304  11.224  18.547  0.00  0.00    +0.000 A 
ATOM     24  C   UNL     1      10.689  12.573  18.514  0.00  0.00    +0.000 A 
BRANCH  19  26
ATOM     25  C   UNL     1      11.015  15.294  17.007  0.00  0.00    +0.000 C 
ATOM     26  O   UNL     1      10.119  14.857  18.031  0.00  0.00    +0.000 OA
ENDBRANCH  19  26
BRANCH  24  27
ATOM     27  O   UNL     1      11.937  12.759  19.047  0.00  0.00    +0.000 OA
ATOM     28  C   UNL     1      12.319  12.015  20.194  0.00  0.00    +0.000 C 
ENDBRANCH  24  27
ENDBRANCH  17  22
ENDBRANCH   1  18
TORSDOF 5
ENDMDL
MODEL 8
REMARK VINA RESULT:      -8.5      1.288      2.023
REMARK  Name = 
REMARK  7 active torsions:
REMARK  status: ('A' for Active; 'I' for Inactive)
REMARK    1  A    between atoms: C_1  and  O_2
REMARK    2  A    between atoms: O_2  and  C_3
REMARK    3  A    between atoms: C_6  and  C_7
REMARK    4  A    between atoms: N_8  and  C_9
REMARK    5  A    between atoms: C_12  and  C_13
REMARK    6  A    between atoms: C_26  and  O_27
REMARK    7  A    between atoms: O_27  and  C_28
REMARK                            x       y       z     vdW  Elec       q    Type
REMARK                         _______ _______ _______ _____ _____    ______ ____
ROOT
ATOM      1  C   UNL     1       7.836   7.501  18.347  0.00  0.00    +0.000 A 
ATOM      2  N   UNL     1       8.454   6.474  18.904  0.00  0.00    +0.000 NA
ATOM      3  N   UNL     1       7.551   5.439  18.975  0.00  0.00    +0.000 NA
ATOM      4  C   UNL     1       6.405   5.861  18.458  0.00  0.00    +0.000 A 
ATOM      5  O   UNL     1       6.539   7.173  18.052  0.00  0.00    +0.000 OA
ENDROOT
BRANCH   4   6
ATOM      6  C   UNL     1       5.213   5.093  18.290  0.00  0.00    +0.000 A 
ATOM      7  C   UNL     1       4.260   5.119  19.238  0.00  0.00    +0.000 A 
ATOM      8  C   UNL     1       3.077   4.285  19.109  0.00  0.00    +0.000 A 
ATOM      9  C   UNL     1       1.990   4.383  19.979  0.00  0.00    +0.000 A 
ATOM     10  C   UNL     1       0.907   3.508  19.841  0.00  0.00    +0.000 A 
ATOM     11  C   UNL     1       0.918   2.519  18.855  0.00  0.00    +0.000 A 
ATOM     12  C   UNL     1       1.996   2.421  17.980  0.00  0.00    +0.000 A 
ATOM     13  C   UNL     1       3.050   3.322  18.106  0.00  0.00    +0.000 A 
ATOM     14  O   UNL     1       4.070   3.260  17.143  0.00  0.00    +0.000 OA
ATOM     15  C   UNL     1       5.042   4.255  17.079  0.00  0.00    +0.000 A 
ATOM     16  O   UNL     1       5.720   4.391  16.063  0.00  0.00    +0.000 OA
ENDBRANCH   4   6
BRANCH   1  18
ATOM     17  C   UNL     1       8.918   9.350  18.999  0.00  0.00    +0.000 C 
ATOM     18  N   UNL     1       8.291   8.743  18.047  0.00  0.00    +0.000 NA
BRANCH  17  22
ATOM     19  C   UNL     1      10.217  13.388  18.436  0.00  0.00    +0.000 A 
ATOM     20  C   UNL     1      10.528  12.405  17.482  0.00  0.00    +0.000 A 
ATOM     21  C   UNL     1      10.121  11.082  17.658  0.00  0.00    +0.000 A 
ATOM     22  C   UNL     1       9.438  10.723  18.816  0.00  0.00    +0.000 A 
ATOM     23  C   UNL     1       9.211  11.671  19.815  0.00  0.00    +0.000 A 
ATOM     24  C   UNL     1       9.601  13.008  19.640  0.00  0.00    +0.000 A 
BRANCH  19  26
ATOM     25  C   UNL     1      11.901  14.956  17.898  0.00  0.00    +0.000 C 
ATOM     26  O   UNL     1      10.530  14.701  18.210  0.00  0.00    +0.000 OA
ENDBRANCH  19  26
BRANCH  24  27
ATOM     27  O   UNL     1       9.276  13.779  20.724  0.00  0.00    +0.000 OA
ATOM     28  C   UNL     1       8.313  13.302  21.651  0.00  0.00    +0.000 C 
ENDBRANCH  24  27
ENDBRANCH  17  22
ENDBRANCH   1  18
TORSDOF 5
ENDMDL
MODEL 9
REMARK VINA RESULT:      -8.4      5.395      8.421
REMARK  Name = 
REMARK  7 active torsions:
REMARK  status: ('A' for Active; 'I' for Inactive)
REMARK    1  A    between atoms: C_1  and  O_2
REMARK    2  A    between atoms: O_2  and  C_3
REMARK    3  A    between atoms: C_6  and  C_7
REMARK    4  A    between atoms: N_8  and  C_9
REMARK    5  A    between atoms: C_12  and  C_13
REMARK    6  A    between atoms: C_26  and  O_27
REMARK    7  A    between atoms: O_27  and  C_28
REMARK                            x       y       z     vdW  Elec       q    Type
REMARK                         _______ _______ _______ _____ _____    ______ ____
ROOT
ATOM      1  C   UNL     1       3.122   6.467  19.233  0.00  0.00    +0.000 A 
ATOM      2  N   UNL     1       3.678   5.383  19.745  0.00  0.00    +0.000 NA
ATOM      3  N   UNL     1       4.514   4.856  18.789  0.00  0.00    +0.000 NA
ATOM      4  C   UNL     1       4.447   5.633  17.716  0.00  0.00    +0.000 A 
ATOM      5  O   UNL     1       3.567   6.668  17.952  0.00  0.00    +0.000 OA
ENDROOT
BRANCH   4   6
ATOM      6  C   UNL     1       5.191   5.480  16.507  0.00  0.00    +0.000 A 
ATOM      7  C   UNL     1       4.777   4.607  15.572  0.00  0.00    +0.000 A 
ATOM      8  C   UNL     1       5.567   4.392  14.371  0.00  0.00    +0.000 A 
ATOM      9  C   UNL     1       5.113   3.617  13.302  0.00  0.00    +0.000 A 
ATOM     10  C   UNL     1       5.946   3.397  12.200  0.00  0.00    +0.000 A 
ATOM     11  C   UNL     1       7.239   3.923  12.174  0.00  0.00    +0.000 A 
ATOM     12  C   UNL     1       7.694   4.703  13.234  0.00  0.00    +0.000 A 
ATOM     13  C   UNL     1       6.841   4.944  14.307  0.00  0.00    +0.000 A 
ATOM     14  O   UNL     1       7.295   5.818  15.308  0.00  0.00    +0.000 OA
ATOM     15  C   UNL     1       6.427   6.272  16.297  0.00  0.00    +0.000 A 
ATOM     16  O   UNL     1       6.711   7.267  16.959  0.00  0.00    +0.000 OA
ENDBRANCH   4   6
BRANCH   1  18
ATOM     17  C   UNL     1       1.918   8.343  19.025  0.00  0.00    +0.000 C 
ATOM     18  N   UNL     1       2.240   7.342  19.775  0.00  0.00    +0.000 NA
BRANCH  17  22
ATOM     19  C   UNL     1      -0.928  11.218  20.418  0.00  0.00    +0.000 A 
ATOM     20  C   UNL     1      -0.402  11.316  19.119  0.00  0.00    +0.000 A 
ATOM     21  C   UNL     1       0.536  10.392  18.656  0.00  0.00    +0.000 A 
ATOM     22  C   UNL     1       0.989   9.389  19.507  0.00  0.00    +0.000 A 
ATOM     23  C   UNL     1       0.547   9.343  20.830  0.00  0.00    +0.000 A 
ATOM     24  C   UNL     1      -0.409  10.257  21.301  0.00  0.00    +0.000 A 
BRANCH  19  26
ATOM     25  C   UNL     1      -2.617  12.746  19.787  0.00  0.00    +0.000 C 
ATOM     26  O   UNL     1      -1.921  12.064  20.832  0.00  0.00    +0.000 OA
ENDBRANCH  19  26
BRANCH  24  27
ATOM     27  O   UNL     1      -0.721  10.035  22.616  0.00  0.00    +0.000 OA
ATOM     28  C   UNL     1       0.206   9.348  23.442  0.00  0.00    +0.000 C 
ENDBRANCH  24  27
ENDBRANCH  17  22
ENDBRANCH   1  18
TORSDOF 5
ENDMDL
