MODEL 1
REMARK VINA RESULT:      -7.6      0.000      0.000
REMARK  Name = 
REMARK  3 active torsions:
REMARK  status: ('A' for Active; 'I' for Inactive)
REMARK    1  A    between atoms: C_1  and  C_2
REMARK    2  A    between atoms: C_5  and  C_6
REMARK    3  A    between atoms: N_10  and  C_11
REMARK                            x       y       z     vdW  Elec       q    Type
REMARK                         _______ _______ _______ _____ _____    ______ ____
ROOT
ATOM      1  C   UNL     1      -1.568  11.171  19.722  0.00  0.00    +0.000 C 
ATOM      2  N   UNL     1      -2.304  12.080  20.300  0.00  0.00    +0.000 NA
ATOM      3  C   UNL     1      -2.268  12.669  21.589  0.00  0.00    +0.000 A 
ATOM      4  C   UNL     1      -3.309  13.461  22.089  0.00  0.00    +0.000 A 
ATOM      5  N   UNL     1      -4.578  13.594  21.575  0.00  0.00    +0.000 N 
ATOM      6  N   UNL     1      -3.194  14.227  23.205  0.00  0.00    +0.000 NA
ATOM      7  C   UNL     1      -2.038  14.192  23.863  0.00  0.00    +0.000 A 
ATOM      8  N   UNL     1      -1.035  13.379  23.576  0.00  0.00    +0.000 NA
ATOM      9  C   UNL     1      -1.259  12.547  22.527  0.00  0.00    +0.000 A 
ATOM     10  S   UNL     1      -0.901  10.875  23.017  0.00  0.00    +0.000 S 
ATOM     11  C   UNL     1      -0.044  10.243  21.627  0.00  0.00    +0.000 A 
ATOM     12  C   UNL     1       1.028   9.415  22.054  0.00  0.00    +0.000 A 
ATOM     13  C   UNL     1       1.707   8.609  21.167  0.00  0.00    +0.000 A 
ATOM     14  C   UNL     1       1.360   8.662  19.832  0.00  0.00    +0.000 A 
ATOM     15 CL   UNL     1       2.097   7.564  18.733  0.00  0.00    +0.000 Cl
ATOM     16  C   UNL     1       0.375   9.556  19.383  0.00  0.00    +0.000 A 
ATOM     17  C   UNL     1      -0.391  10.350  20.274  0.00  0.00    +0.000 A 
ATOM     18  H   UNL     1      -5.016  14.247  22.223  0.00  0.00    +0.000 HD
ENDROOT
BRANCH   1  23
ATOM     19  C   UNL     1      -3.581  10.078  14.315  0.00  0.00    +0.000 C 
ATOM     20  C   UNL     1      -3.001  10.372  15.672  0.00  0.00    +0.000 A 
ATOM     21  C   UNL     1      -2.383  11.594  15.979  0.00  0.00    +0.000 A 
ATOM     22  C   UNL     1      -1.897  11.847  17.268  0.00  0.00    +0.000 A 
ATOM     23  C   UNL     1      -2.023  10.885  18.285  0.00  0.00    +0.000 A 
ATOM     24  C   UNL     1      -2.651   9.669  17.981  0.00  0.00    +0.000 A 
ATOM     25  C   UNL     1      -3.107   9.408  16.681  0.00  0.00    +0.000 A 
ENDBRANCH   1  23
BRANCH   5  26
ATOM     26  C   UNL     1      -5.508  12.531  21.162  0.00  0.00    +0.000 C 
ATOM     27  C   UNL     1      -6.961  12.566  21.639  0.00  0.00    +0.000 C 
ATOM     28  C   UNL     1      -7.811  13.663  21.019  0.00  0.00    +0.000 C 
ATOM     29  C   UNL     1      -7.771  13.614  19.490  0.00  0.00    +0.000 C 
ATOM     30  C   UNL     1      -6.344  13.570  18.961  0.00  0.00    +0.000 C 
ATOM     31  C   UNL     1      -5.504  12.457  19.617  0.00  0.00    +0.000 C 
ENDBRANCH   5  26
TORSDOF 2
ENDMDL
MODEL 2
REMARK VINA RESULT:      -7.2      3.138      5.693
REMARK  Name = 
REMARK  3 active torsions:
REMARK  status: ('A' for Active; 'I' for Inactive)
REMARK    1  A    between atoms: C_1  and  C_2
REMARK    2  A    between atoms: C_5  and  C_6
REMARK    3  A    between atoms: N_10  and  C_11
REMARK                            x       y       z     vdW  Elec       q    Type
REMARK                         _______ _______ _______ _____ _____    ______ ____
ROOT
ATOM      1  C   UNL     1      -3.223  12.631  20.623  0.00  0.00    +0.000 C 
ATOM      2  N   UNL     1      -3.731  12.968  21.776  0.00  0.00    +0.000 NA
ATOM      3  C   UNL     1      -5.054  12.957  22.284  0.00  0.00    +0.000 A 
ATOM      4  C   UNL     1      -5.412  13.592  23.479  0.00  0.00    +0.000 A 
ATOM      5  N   UNL     1      -4.667  14.498  24.199  0.00  0.00    +0.000 N 
ATOM      6  N   UNL     1      -6.602  13.392  24.104  0.00  0.00    +0.000 NA
ATOM      7  C   UNL     1      -7.474  12.571  23.524  0.00  0.00    +0.000 A 
ATOM      8  N   UNL     1      -7.313  12.027  22.329  0.00  0.00    +0.000 NA
ATOM      9  C   UNL     1      -6.160  12.366  21.700  0.00  0.00    +0.000 A 
ATOM     10  S   UNL     1      -6.535  12.952  20.062  0.00  0.00    +0.000 S 
ATOM     11  C   UNL     1      -5.290  12.195  19.090  0.00  0.00    +0.000 A 
ATOM     12  C   UNL     1      -5.838  11.762  17.854  0.00  0.00    +0.000 A 
ATOM     13  C   UNL     1      -5.028  11.355  16.816  0.00  0.00    +0.000 A 
ATOM     14  C   UNL     1      -3.664  11.322  17.021  0.00  0.00    +0.000 A 
ATOM     15 CL   UNL     1      -2.628  10.953  15.698  0.00  0.00    +0.000 Cl
ATOM     16  C   UNL     1      -3.119  11.644  18.274  0.00  0.00    +0.000 A 
ATOM     17  C   UNL     1      -3.914  12.133  19.343  0.00  0.00    +0.000 A 
ATOM     18  H   UNL     1      -5.278  14.716  24.986  0.00  0.00    +0.000 HD
ENDROOT
BRANCH   1  23
ATOM     19  C   UNL     1       2.575  13.566  20.674  0.00  0.00    +0.000 C 
ATOM     20  C   UNL     1       1.100  13.269  20.619  0.00  0.00    +0.000 A 
ATOM     21  C   UNL     1       0.564  12.038  21.031  0.00  0.00    +0.000 A 
ATOM     22  C   UNL     1      -0.819  11.818  21.009  0.00  0.00    +0.000 A 
ATOM     23  C   UNL     1      -1.701  12.824  20.581  0.00  0.00    +0.000 A 
ATOM     24  C   UNL     1      -1.166  14.057  20.181  0.00  0.00    +0.000 A 
ATOM     25  C   UNL     1       0.221  14.263  20.175  0.00  0.00    +0.000 A 
ENDBRANCH   1  23
BRANCH   5  26
ATOM     26  C   UNL     1      -3.966  15.694  23.707  0.00  0.00    +0.000 C 
ATOM     27  C   UNL     1      -4.541  16.482  22.530  0.00  0.00    +0.000 C 
ATOM     28  C   UNL     1      -5.813  17.256  22.839  0.00  0.00    +0.000 C 
ATOM     29  C   UNL     1      -5.633  18.184  24.042  0.00  0.00    +0.000 C 
ATOM     30  C   UNL     1      -5.053  17.450  25.243  0.00  0.00    +0.000 C 
ATOM     31  C   UNL     1      -3.773  16.665  24.896  0.00  0.00    +0.000 C 
ENDBRANCH   5  26
TORSDOF 2
ENDMDL
MODEL 3
REMARK VINA RESULT:      -7.1      2.912      5.826
REMARK  Name = 
REMARK  3 active torsions:
REMARK  status: ('A' for Active; 'I' for Inactive)
REMARK    1  A    between atoms: C_1  and  C_2
REMARK    2  A    between atoms: C_5  and  C_6
REMARK    3  A    between atoms: N_10  and  C_11
REMARK                            x       y       z     vdW  Elec       q    Type
REMARK                         _______ _______ _______ _____ _____    ______ ____
ROOT
ATOM      1  C   UNL     1      -3.179  12.585  20.459  0.00  0.00    +0.000 C 
ATOM      2  N   UNL     1      -3.685  12.950  21.605  0.00  0.00    +0.000 NA
ATOM      3  C   UNL     1      -5.006  12.940  22.119  0.00  0.00    +0.000 A 
ATOM      4  C   UNL     1      -5.364  13.605  23.297  0.00  0.00    +0.000 A 
ATOM      5  N   UNL     1      -4.625  14.537  23.988  0.00  0.00    +0.000 N 
ATOM      6  N   UNL     1      -6.550  13.411  23.933  0.00  0.00    +0.000 NA
ATOM      7  C   UNL     1      -7.417  12.566  23.381  0.00  0.00    +0.000 A 
ATOM      8  N   UNL     1      -7.256  11.990  22.201  0.00  0.00    +0.000 NA
ATOM      9  C   UNL     1      -6.109  12.322  21.557  0.00  0.00    +0.000 A 
ATOM     10  S   UNL     1      -6.497  12.858  19.905  0.00  0.00    +0.000 S 
ATOM     11  C   UNL     1      -5.249  12.087  18.949  0.00  0.00    +0.000 A 
ATOM     12  C   UNL     1      -5.798  11.614  17.728  0.00  0.00    +0.000 A 
ATOM     13  C   UNL     1      -4.989  11.185  16.698  0.00  0.00    +0.000 A 
ATOM     14  C   UNL     1      -3.624  11.171  16.897  0.00  0.00    +0.000 A 
ATOM     15 CL   UNL     1      -2.591  10.775  15.580  0.00  0.00    +0.000 Cl
ATOM     16  C   UNL     1      -3.077  11.534  18.138  0.00  0.00    +0.000 A 
ATOM     17  C   UNL     1      -3.871  12.045  19.197  0.00  0.00    +0.000 A 
ATOM     18  H   UNL     1      -5.234  14.771  24.772  0.00  0.00    +0.000 HD
ENDROOT
BRANCH   1  23
ATOM     19  C   UNL     1       2.609  13.576  20.456  0.00  0.00    +0.000 C 
ATOM     20  C   UNL     1       1.137  13.263  20.417  0.00  0.00    +0.000 A 
ATOM     21  C   UNL     1       0.615  12.041  20.867  0.00  0.00    +0.000 A 
ATOM     22  C   UNL     1      -0.766  11.806  20.858  0.00  0.00    +0.000 A 
ATOM     23  C   UNL     1      -1.660  12.791  20.404  0.00  0.00    +0.000 A 
ATOM     24  C   UNL     1      -1.138  14.016  19.966  0.00  0.00    +0.000 A 
ATOM     25  C   UNL     1       0.247  14.235  19.946  0.00  0.00    +0.000 A 
ENDBRANCH   1  23
BRANCH   5  26
ATOM     26  C   UNL     1      -3.937  15.726  23.460  0.00  0.00    +0.000 C 
ATOM     27  C   UNL     1      -4.384  17.120  23.900  0.00  0.00    +0.000 C 
ATOM     28  C   UNL     1      -4.057  17.472  25.342  0.00  0.00    +0.000 C 
ATOM     29  C   UNL     1      -2.568  17.288  25.645  0.00  0.00    +0.000 C 
ATOM     30  C   UNL     1      -2.067  15.915  25.218  0.00  0.00    +0.000 C 
ATOM     31  C   UNL     1      -2.425  15.582  23.757  0.00  0.00    +0.000 C 
ENDBRANCH   5  26
TORSDOF 2
ENDMDL
MODEL 4
REMARK VINA RESULT:      -7.0      3.264      7.854
REMARK  Name = 
REMARK  3 active torsions:
REMARK  status: ('A' for Active; 'I' for Inactive)
REMARK    1  A    between atoms: C_1  and  C_2
REMARK    2  A    between atoms: C_5  and  C_6
REMARK    3  A    between atoms: N_10  and  C_11
REMARK                            x       y       z     vdW  Elec       q    Type
REMARK                         _______ _______ _______ _____ _____    ______ ____
ROOT
ATOM      1  C   UNL     1      -3.817  12.939  20.699  0.00  0.00    +0.000 C 
ATOM      2  N   UNL     1      -3.120  12.644  19.636  0.00  0.00    +0.000 NA
ATOM      3  C   UNL     1      -3.444  11.976  18.429  0.00  0.00    +0.000 A 
ATOM      4  C   UNL     1      -2.472  11.554  17.513  0.00  0.00    +0.000 A 
ATOM      5  N   UNL     1      -1.113  11.476  17.714  0.00  0.00    +0.000 N 
ATOM      6  N   UNL     1      -2.765  11.138  16.253  0.00  0.00    +0.000 NA
ATOM      7  C   UNL     1      -4.046  11.107  15.894  0.00  0.00    +0.000 A 
ATOM      8  N   UNL     1      -5.060  11.341  16.709  0.00  0.00    +0.000 NA
ATOM      9  C   UNL     1      -4.707  11.628  17.988  0.00  0.00    +0.000 A 
ATOM     10  S   UNL     1      -5.615  10.573  19.098  0.00  0.00    +0.000 S 
ATOM     11  C   UNL     1      -6.078  11.674  20.379  0.00  0.00    +0.000 A 
ATOM     12  C   UNL     1      -7.401  11.387  20.808  0.00  0.00    +0.000 A 
ATOM     13  C   UNL     1      -7.916  11.944  21.958  0.00  0.00    +0.000 A 
ATOM     14  C   UNL     1      -7.135  12.837  22.663  0.00  0.00    +0.000 A 
ATOM     15 CL   UNL     1      -7.704  13.433  24.173  0.00  0.00    +0.000 Cl
ATOM     16  C   UNL     1      -5.867  13.209  22.190  0.00  0.00    +0.000 A 
ATOM     17  C   UNL     1      -5.277  12.606  21.050  0.00  0.00    +0.000 A 
ATOM     18  H   UNL     1      -0.774  11.126  16.818  0.00  0.00    +0.000 HD
ENDROOT
BRANCH   1  23
ATOM     19  C   UNL     1      -0.891  15.938  24.813  0.00  0.00    +0.000 C 
ATOM     20  C   UNL     1      -1.580  15.134  23.743  0.00  0.00    +0.000 A 
ATOM     21  C   UNL     1      -1.597  13.731  23.748  0.00  0.00    +0.000 A 
ATOM     22  C   UNL     1      -2.290  13.020  22.760  0.00  0.00    +0.000 A 
ATOM     23  C   UNL     1      -2.988  13.696  21.744  0.00  0.00    +0.000 A 
ATOM     24  C   UNL     1      -2.981  15.098  21.747  0.00  0.00    +0.000 A 
ATOM     25  C   UNL     1      -2.259  15.805  22.720  0.00  0.00    +0.000 A 
ENDBRANCH   1  23
BRANCH   5  26
ATOM     26  C   UNL     1      -0.394  10.868  18.844  0.00  0.00    +0.000 C 
ATOM     27  C   UNL     1       0.140   9.440  18.725  0.00  0.00    +0.000 C 
ATOM     28  C   UNL     1       1.319   9.275  17.781  0.00  0.00    +0.000 C 
ATOM     29  C   UNL     1       2.465  10.226  18.133  0.00  0.00    +0.000 C 
ATOM     30  C   UNL     1       1.986  11.665  18.272  0.00  0.00    +0.000 C 
ATOM     31  C   UNL     1       0.783  11.798  19.225  0.00  0.00    +0.000 C 
ENDBRANCH   5  26
TORSDOF 2
ENDMDL
MODEL 5
REMARK VINA RESULT:      -6.8      8.844     12.581
REMARK  Name = 
REMARK  3 active torsions:
REMARK  status: ('A' for Active; 'I' for Inactive)
REMARK    1  A    between atoms: C_1  and  C_2
REMARK    2  A    between atoms: C_5  and  C_6
REMARK    3  A    between atoms: N_10  and  C_11
REMARK                            x       y       z     vdW  Elec       q    Type
REMARK                         _______ _______ _______ _____ _____    ______ ____
ROOT
ATOM      1  C   UNL     1       6.668  14.448  21.655  0.00  0.00    +0.000 C 
ATOM      2  N   UNL     1       7.905  14.603  21.267  0.00  0.00    +0.000 NA
ATOM      3  C   UNL     1       8.485  15.206  20.124  0.00  0.00    +0.000 A 
ATOM      4  C   UNL     1       9.834  15.049  19.787  0.00  0.00    +0.000 A 
ATOM      5  N   UNL     1      10.725  14.140  20.311  0.00  0.00    +0.000 N 
ATOM      6  N   UNL     1      10.463  15.804  18.848  0.00  0.00    +0.000 NA
ATOM      7  C   UNL     1       9.740  16.715  18.202  0.00  0.00    +0.000 A 
ATOM      8  N   UNL     1       8.432  16.861  18.326  0.00  0.00    +0.000 NA
ATOM      9  C   UNL     1       7.841  15.992  19.185  0.00  0.00    +0.000 A 
ATOM     10  S   UNL     1       6.471  15.202  18.371  0.00  0.00    +0.000 S 
ATOM     11  C   UNL     1       5.233  15.207  19.611  0.00  0.00    +0.000 A 
ATOM     12  C   UNL     1       3.969  15.495  19.031  0.00  0.00    +0.000 A 
ATOM     13  C   UNL     1       2.801  15.324  19.742  0.00  0.00    +0.000 A 
ATOM     14  C   UNL     1       2.886  14.918  21.058  0.00  0.00    +0.000 A 
ATOM     15 CL   UNL     1       1.439  14.564  21.919  0.00  0.00    +0.000 Cl
ATOM     16  C   UNL     1       4.135  14.736  21.673  0.00  0.00    +0.000 A 
ATOM     17  C   UNL     1       5.355  14.835  20.955  0.00  0.00    +0.000 A 
ATOM     18  H   UNL     1      11.585  14.350  19.804  0.00  0.00    +0.000 HD
ENDROOT
BRANCH   1  23
ATOM     19  C   UNL     1       6.561  11.572  26.773  0.00  0.00    +0.000 C 
ATOM     20  C   UNL     1       6.528  12.343  25.481  0.00  0.00    +0.000 A 
ATOM     21  C   UNL     1       6.515  13.746  25.441  0.00  0.00    +0.000 A 
ATOM     22  C   UNL     1       6.533  14.428  24.217  0.00  0.00    +0.000 A 
ATOM     23  C   UNL     1       6.570  13.723  23.003  0.00  0.00    +0.000 A 
ATOM     24  C   UNL     1       6.594  12.321  23.043  0.00  0.00    +0.000 A 
ATOM     25  C   UNL     1       6.544  11.643  24.270  0.00  0.00    +0.000 A 
ENDBRANCH   1  23
BRANCH   5  26
ATOM     26  C   UNL     1      10.544  12.692  20.496  0.00  0.00    +0.000 C 
ATOM     27  C   UNL     1       9.314  11.998  19.908  0.00  0.00    +0.000 C 
ATOM     28  C   UNL     1       9.306  11.887  18.392  0.00  0.00    +0.000 C 
ATOM     29  C   UNL     1      10.577  11.216  17.867  0.00  0.00    +0.000 C 
ATOM     30  C   UNL     1      11.835  11.864  18.429  0.00  0.00    +0.000 C 
ATOM     31  C   UNL     1      11.808  11.973  19.966  0.00  0.00    +0.000 C 
ENDBRANCH   5  26
TORSDOF 2
ENDMDL
MODEL 6
REMARK VINA RESULT:      -6.6      3.023      5.699
REMARK  Name = 
REMARK  3 active torsions:
REMARK  status: ('A' for Active; 'I' for Inactive)
REMARK    1  A    between atoms: C_1  and  C_2
REMARK    2  A    between atoms: C_5  and  C_6
REMARK    3  A    between atoms: N_10  and  C_11
REMARK                            x       y       z     vdW  Elec       q    Type
REMARK                         _______ _______ _______ _____ _____    ______ ____
ROOT
ATOM      1  C   UNL     1      -2.244  12.828  20.035  0.00  0.00    +0.000 C 
ATOM      2  N   UNL     1      -2.490  13.301  21.226  0.00  0.00    +0.000 NA
ATOM      3  C   UNL     1      -3.658  13.325  22.028  0.00  0.00    +0.000 A 
ATOM      4  C   UNL     1      -3.764  14.102  23.188  0.00  0.00    +0.000 A 
ATOM      5  N   UNL     1      -2.923  15.112  23.596  0.00  0.00    +0.000 N 
ATOM      6  N   UNL     1      -4.765  13.957  24.095  0.00  0.00    +0.000 NA
ATOM      7  C   UNL     1      -5.702  13.046  23.842  0.00  0.00    +0.000 A 
ATOM      8  N   UNL     1      -5.792  12.355  22.718  0.00  0.00    +0.000 NA
ATOM      9  C   UNL     1      -4.835  12.636  21.798  0.00  0.00    +0.000 A 
ATOM     10  S   UNL     1      -5.609  12.993  20.236  0.00  0.00    +0.000 S 
ATOM     11  C   UNL     1      -4.583  12.146  19.097  0.00  0.00    +0.000 A 
ATOM     12  C   UNL     1      -5.378  11.542  18.087  0.00  0.00    +0.000 A 
ATOM     13  C   UNL     1      -4.808  11.022  16.945  0.00  0.00    +0.000 A 
ATOM     14  C   UNL     1      -3.434  11.048  16.826  0.00  0.00    +0.000 A 
ATOM     15 CL   UNL     1      -2.713  10.534  15.351  0.00  0.00    +0.000 Cl
ATOM     16  C   UNL     1      -2.633  11.545  17.866  0.00  0.00    +0.000 A 
ATOM     17  C   UNL     1      -3.185  12.151  19.024  0.00  0.00    +0.000 A 
ATOM     18  H   UNL     1      -3.346  15.416  24.472  0.00  0.00    +0.000 HD
ENDROOT
BRANCH   1  23
ATOM     19  C   UNL     1       3.359  13.877  18.627  0.00  0.00    +0.000 C 
ATOM     20  C   UNL     1       1.925  13.550  18.945  0.00  0.00    +0.000 A 
ATOM     21  C   UNL     1       1.536  12.315  19.488  0.00  0.00    +0.000 A 
ATOM     22  C   UNL     1       0.197  12.067  19.815  0.00  0.00    +0.000 A 
ATOM     23  C   UNL     1      -0.786  13.050  19.612  0.00  0.00    +0.000 A 
ATOM     24  C   UNL     1      -0.396  14.287  19.080  0.00  0.00    +0.000 A 
ATOM     25  C   UNL     1       0.941  14.520  18.725  0.00  0.00    +0.000 A 
ENDBRANCH   1  23
BRANCH   5  26
ATOM     26  C   UNL     1      -2.419  16.250  22.811  0.00  0.00    +0.000 C 
ATOM     27  C   UNL     1      -2.751  17.678  23.245  0.00  0.00    +0.000 C 
ATOM     28  C   UNL     1      -2.052  18.140  24.514  0.00  0.00    +0.000 C 
ATOM     29  C   UNL     1      -0.535  17.969  24.418  0.00  0.00    +0.000 C 
ATOM     30  C   UNL     1      -0.148  16.563  23.981  0.00  0.00    +0.000 C 
ATOM     31  C   UNL     1      -0.881  16.119  22.701  0.00  0.00    +0.000 C 
ENDBRANCH   5  26
TORSDOF 2
ENDMDL
MODEL 7
REMARK VINA RESULT:      -6.6      1.375      1.888
REMARK  Name = 
REMARK  3 active torsions:
REMARK  status: ('A' for Active; 'I' for Inactive)
REMARK    1  A    between atoms: C_1  and  C_2
REMARK    2  A    between atoms: C_5  and  C_6
REMARK    3  A    between atoms: N_10  and  C_11
REMARK                            x       y       z     vdW  Elec       q    Type
REMARK                         _______ _______ _______ _____ _____    ______ ____
ROOT
ATOM      1  C   UNL     1      -2.125  11.825  19.965  0.00  0.00    +0.000 C 
ATOM      2  N   UNL     1      -2.780  12.945  20.109  0.00  0.00    +0.000 NA
ATOM      3  C   UNL     1      -2.889  13.863  21.182  0.00  0.00    +0.000 A 
ATOM      4  C   UNL     1      -3.844  14.887  21.209  0.00  0.00    +0.000 A 
ATOM      5  N   UNL     1      -4.941  15.027  20.390  0.00  0.00    +0.000 N 
ATOM      6  N   UNL     1      -3.811  15.916  22.096  0.00  0.00    +0.000 NA
ATOM      7  C   UNL     1      -2.834  15.923  22.999  0.00  0.00    +0.000 A 
ATOM      8  N   UNL     1      -1.962  14.943  23.168  0.00  0.00    +0.000 NA
ATOM      9  C   UNL     1      -2.125  13.885  22.335  0.00  0.00    +0.000 A 
ATOM     10  S   UNL     1      -2.185  12.387  23.293  0.00  0.00    +0.000 S 
ATOM     11  C   UNL     1      -1.202  11.288  22.347  0.00  0.00    +0.000 A 
ATOM     12  C   UNL     1      -0.407  10.487  23.209  0.00  0.00    +0.000 A 
ATOM     13  C   UNL     1       0.273   9.385  22.736  0.00  0.00    +0.000 A 
ATOM     14  C   UNL     1       0.211   9.104  21.387  0.00  0.00    +0.000 A 
ATOM     15 CL   UNL     1       0.934   7.658  20.800  0.00  0.00    +0.000 Cl
ATOM     16  C   UNL     1      -0.484   9.951  20.509  0.00  0.00    +0.000 A 
ATOM     17  C   UNL     1      -1.251  11.053  20.967  0.00  0.00    +0.000 A 
ATOM     18  H   UNL     1      -5.369  15.886  20.733  0.00  0.00    +0.000 HD
ENDROOT
BRANCH   1  23
ATOM     19  C   UNL     1      -2.889   9.719  14.537  0.00  0.00    +0.000 C 
ATOM     20  C   UNL     1      -2.687  10.191  15.952  0.00  0.00    +0.000 A 
ATOM     21  C   UNL     1      -1.551   9.853  16.704  0.00  0.00    +0.000 A 
ATOM     22  C   UNL     1      -1.377  10.352  18.001  0.00  0.00    +0.000 A 
ATOM     23  C   UNL     1      -2.333  11.206  18.577  0.00  0.00    +0.000 A 
ATOM     24  C   UNL     1      -3.462  11.553  17.821  0.00  0.00    +0.000 A 
ATOM     25  C   UNL     1      -3.647  11.026  16.535  0.00  0.00    +0.000 A 
ENDBRANCH   1  23
BRANCH   5  26
ATOM     26  C   UNL     1      -5.952  14.016  20.042  0.00  0.00    +0.000 C 
ATOM     27  C   UNL     1      -6.032  12.716  20.843  0.00  0.00    +0.000 C 
ATOM     28  C   UNL     1      -6.557  12.869  22.261  0.00  0.00    +0.000 C 
ATOM     29  C   UNL     1      -7.913  13.578  22.289  0.00  0.00    +0.000 C 
ATOM     30  C   UNL     1      -7.891  14.878  21.498  0.00  0.00    +0.000 C 
ATOM     31  C   UNL     1      -7.343  14.693  20.070  0.00  0.00    +0.000 C 
ENDBRANCH   5  26
TORSDOF 2
ENDMDL
MODEL 8
REMARK VINA RESULT:      -6.5      2.954      5.412
REMARK  Name = 
REMARK  3 active torsions:
REMARK  status: ('A' for Active; 'I' for Inactive)
REMARK    1  A    between atoms: C_1  and  C_2
REMARK    2  A    between atoms: C_5  and  C_6
REMARK    3  A    between atoms: N_10  and  C_11
REMARK                            x       y       z     vdW  Elec       q    Type
REMARK                         _______ _______ _______ _____ _____    ______ ____
ROOT
ATOM      1  C   UNL     1      -2.531  12.581  20.034  0.00  0.00    +0.000 C 
ATOM      2  N   UNL     1      -2.716  12.970  21.266  0.00  0.00    +0.000 NA
ATOM      3  C   UNL     1      -3.871  13.057  22.083  0.00  0.00    +0.000 A 
ATOM      4  C   UNL     1      -3.881  13.733  23.309  0.00  0.00    +0.000 A 
ATOM      5  N   UNL     1      -2.926  14.596  23.795  0.00  0.00    +0.000 N 
ATOM      6  N   UNL     1      -4.890  13.624  24.213  0.00  0.00    +0.000 NA
ATOM      7  C   UNL     1      -5.928  12.856  23.892  0.00  0.00    +0.000 A 
ATOM      8  N   UNL     1      -6.102  12.284  22.712  0.00  0.00    +0.000 NA
ATOM      9  C   UNL     1      -5.122  12.534  21.808  0.00  0.00    +0.000 A 
ATOM     10  S   UNL     1      -5.853  13.120  20.295  0.00  0.00    +0.000 S 
ATOM     11  C   UNL     1      -4.937  12.265  19.071  0.00  0.00    +0.000 A 
ATOM     12  C   UNL     1      -5.800  11.853  18.021  0.00  0.00    +0.000 A 
ATOM     13  C   UNL     1      -5.299  11.375  16.829  0.00  0.00    +0.000 A 
ATOM     14  C   UNL     1      -3.931  11.252  16.694  0.00  0.00    +0.000 A 
ATOM     15 CL   UNL     1      -3.280  10.793  15.169  0.00  0.00    +0.000 Cl
ATOM     16  C   UNL     1      -3.075  11.555  17.764  0.00  0.00    +0.000 A 
ATOM     17  C   UNL     1      -3.548  12.113  18.980  0.00  0.00    +0.000 A 
ATOM     18  H   UNL     1      -3.309  14.867  24.701  0.00  0.00    +0.000 HD
ENDROOT
BRANCH   1  23
ATOM     19  C   UNL     1       3.048  12.731  18.209  0.00  0.00    +0.000 C 
ATOM     20  C   UNL     1       1.632  12.749  18.719  0.00  0.00    +0.000 A 
ATOM     21  C   UNL     1       0.807  13.879  18.611  0.00  0.00    +0.000 A 
ATOM     22  C   UNL     1      -0.521  13.841  19.055  0.00  0.00    +0.000 A 
ATOM     23  C   UNL     1      -1.059  12.669  19.613  0.00  0.00    +0.000 A 
ATOM     24  C   UNL     1      -0.237  11.537  19.710  0.00  0.00    +0.000 A 
ATOM     25  C   UNL     1       1.101  11.589  19.293  0.00  0.00    +0.000 A 
ENDBRANCH   1  23
BRANCH   5  26
ATOM     26  C   UNL     1      -2.295  15.734  23.109  0.00  0.00    +0.000 C 
ATOM     27  C   UNL     1      -3.136  16.641  22.210  0.00  0.00    +0.000 C 
ATOM     28  C   UNL     1      -4.126  17.530  22.945  0.00  0.00    +0.000 C 
ATOM     29  C   UNL     1      -3.439  18.367  24.026  0.00  0.00    +0.000 C 
ATOM     30  C   UNL     1      -2.580  17.512  24.947  0.00  0.00    +0.000 C 
ATOM     31  C   UNL     1      -1.596  16.614  24.172  0.00  0.00    +0.000 C 
ENDBRANCH   5  26
TORSDOF 2
ENDMDL
MODEL 9
REMARK VINA RESULT:      -6.4      8.636     12.377
REMARK  Name = 
REMARK  3 active torsions:
REMARK  status: ('A' for Active; 'I' for Inactive)
REMARK    1  A    between atoms: C_1  and  C_2
REMARK    2  A    between atoms: C_5  and  C_6
REMARK    3  A    between atoms: N_10  and  C_11
REMARK                            x       y       z     vdW  Elec       q    Type
REMARK                         _______ _______ _______ _____ _____    ______ ____
ROOT
ATOM      1  C   UNL     1       5.945  14.984  21.830  0.00  0.00    +0.000 C 
ATOM      2  N   UNL     1       7.137  15.078  21.307  0.00  0.00    +0.000 NA
ATOM      3  C   UNL     1       7.651  15.820  20.215  0.00  0.00    +0.000 A 
ATOM      4  C   UNL     1       8.920  15.588  19.673  0.00  0.00    +0.000 A 
ATOM      5  N   UNL     1       9.743  14.510  19.905  0.00  0.00    +0.000 N 
ATOM      6  N   UNL     1       9.525  16.435  18.799  0.00  0.00    +0.000 NA
ATOM      7  C   UNL     1       8.854  17.521  18.425  0.00  0.00    +0.000 A 
ATOM      8  N   UNL     1       7.598  17.776  18.752  0.00  0.00    +0.000 NA
ATOM      9  C   UNL     1       7.006  16.829  19.523  0.00  0.00    +0.000 A 
ATOM     10  S   UNL     1       5.461  16.351  18.783  0.00  0.00    +0.000 S 
ATOM     11  C   UNL     1       4.388  16.254  20.164  0.00  0.00    +0.000 A 
ATOM     12  C   UNL     1       3.112  16.774  19.823  0.00  0.00    +0.000 A 
ATOM     13  C   UNL     1       2.023  16.597  20.649  0.00  0.00    +0.000 A 
ATOM     14  C   UNL     1       2.209  15.947  21.851  0.00  0.00    +0.000 A 
ATOM     15 CL   UNL     1       0.840  15.591  22.830  0.00  0.00    +0.000 Cl
ATOM     16  C   UNL     1       3.488  15.524  22.247  0.00  0.00    +0.000 A 
ATOM     17  C   UNL     1       4.618  15.628  21.395  0.00  0.00    +0.000 A 
ATOM     18  H   UNL     1      10.557  14.721  19.328  0.00  0.00    +0.000 HD
ENDROOT
BRANCH   1  23
ATOM     19  C   UNL     1       6.114  11.324  26.420  0.00  0.00    +0.000 C 
ATOM     20  C   UNL     1       6.002  12.277  25.260  0.00  0.00    +0.000 A 
ATOM     21  C   UNL     1       5.648  13.625  25.425  0.00  0.00    +0.000 A 
ATOM     22  C   UNL     1       5.602  14.492  24.326  0.00  0.00    +0.000 A 
ATOM     23  C   UNL     1       5.914  14.034  23.035  0.00  0.00    +0.000 A 
ATOM     24  C   UNL     1       6.279  12.690  22.873  0.00  0.00    +0.000 A 
ATOM     25  C   UNL     1       6.294  11.818  23.971  0.00  0.00    +0.000 A 
ENDBRANCH   1  23
BRANCH   5  26
ATOM     26  C   UNL     1       9.402  13.080  19.864  0.00  0.00    +0.000 C 
ATOM     27  C   UNL     1       9.269  12.369  18.516  0.00  0.00    +0.000 C 
ATOM     28  C   UNL     1      10.578  12.162  17.771  0.00  0.00    +0.000 C 
ATOM     29  C   UNL     1      11.613  11.439  18.635  0.00  0.00    +0.000 C 
ATOM     30  C   UNL     1      11.780  12.102  19.995  0.00  0.00    +0.000 C 
ATOM     31  C   UNL     1      10.436  12.310  20.720  0.00  0.00    +0.000 C 
ENDBRANCH   5  26
TORSDOF 2
ENDMDL
