MODEL 1
REMARK VINA RESULT:      -8.1      0.000      0.000
REMARK  Name = 
REMARK  8 active torsions:
REMARK  status: ('A' for Active; 'I' for Inactive)
REMARK    1  A    between atoms: C_1  and  N_2
REMARK    2  A    between atoms: N_2  and  C_3
REMARK    3  A    between atoms: C_4  and  C_6
REMARK    4  A    between atoms: C_9  and  C_10
REMARK    5  A    between atoms: C_12  and  N_13
REMARK    6  A    between atoms: N_13  and  C_14
REMARK    7  A    between atoms: N_13  and  C_15
REMARK    8  A    between atoms: C_15  and  C_16
REMARK                            x       y       z     vdW  Elec       q    Type
REMARK                         _______ _______ _______ _____ _____    ______ ____
ROOT
ATOM      1  C   UNL     1       3.037   5.601  18.218  0.00  0.00    +0.000 A 
ATOM      2  C   UNL     1       4.073   5.674  17.302  0.00  0.00    +0.000 A 
ATOM      3  C   UNL     1       4.612   4.502  16.806  0.00  0.00    +0.000 A 
ATOM      4  N   UNL     1       4.144   3.320  17.237  0.00  0.00    +0.000 NA
ATOM      5  C   UNL     1       3.121   3.333  18.104  0.00  0.00    +0.000 A 
ATOM      6  N   UNL     1       2.532   4.419  18.618  0.00  0.00    +0.000 NA
ENDROOT
BRANCH   1  10
ATOM      7  C   UNL     1       1.255   9.172  19.850  0.00  0.00    +0.000 A 
ATOM      8  C   UNL     1       1.687   9.128  18.522  0.00  0.00    +0.000 A 
ATOM      9  C   UNL     1       2.223   7.953  17.993  0.00  0.00    +0.000 A 
ATOM     10  C   UNL     1       2.408   6.809  18.786  0.00  0.00    +0.000 A 
ATOM     11  C   UNL     1       2.006   6.884  20.134  0.00  0.00    +0.000 A 
ATOM     12  C   UNL     1       1.438   8.048  20.663  0.00  0.00    +0.000 A 
BRANCH   7  16
ATOM     13  C   UNL     1      -0.964  12.195  20.526  0.00  0.00    +0.000 C 
ATOM     14  N   UNL     1      -0.486  10.972  19.902  0.00  0.00    +0.000 N 
ATOM     15  C   UNL     1      -1.358  10.345  18.922  0.00  0.00    +0.000 C 
ATOM     16  C   UNL     1       0.659  10.390  20.450  0.00  0.00    +0.000 C 
ATOM     17  O   UNL     1       1.215  10.855  21.447  0.00  0.00    +0.000 OA
ENDBRANCH   7  16
ENDBRANCH   1  10
BRANCH   3  18
ATOM     18  N   UNL     1       5.654   4.533  15.902  0.00  0.00    +0.000 N 
ATOM     19  C   UNL     1       5.454   4.322  14.478  0.00  0.00    +0.000 C 
BRANCH  18  20
ATOM     20  C   UNL     1       7.030   4.460  16.398  0.00  0.00    +0.000 C 
BRANCH  20  21
ATOM     21  C   UNL     1       7.425   5.647  17.214  0.00  0.00    +0.000 A 
ATOM     22  C   UNL     1       7.731   5.813  18.550  0.00  0.00    +0.000 A 
ATOM     23  C   UNL     1       8.029   7.184  18.723  0.00  0.00    +0.000 A 
ATOM     24  C   UNL     1       7.876   7.769  17.488  0.00  0.00    +0.000 A 
ATOM     25  O   UNL     1       7.506   6.845  16.565  0.00  0.00    +0.000 OA
ENDBRANCH  20  21
ENDBRANCH  18  20
ENDBRANCH   3  18
TORSDOF 5
ENDMDL
MODEL 2
REMARK VINA RESULT:      -8.0      0.775      1.239
REMARK  Name = 
REMARK  8 active torsions:
REMARK  status: ('A' for Active; 'I' for Inactive)
REMARK    1  A    between atoms: C_1  and  N_2
REMARK    2  A    between atoms: N_2  and  C_3
REMARK    3  A    between atoms: C_4  and  C_6
REMARK    4  A    between atoms: C_9  and  C_10
REMARK    5  A    between atoms: C_12  and  N_13
REMARK    6  A    between atoms: N_13  and  C_14
REMARK    7  A    between atoms: N_13  and  C_15
REMARK    8  A    between atoms: C_15  and  C_16
REMARK                            x       y       z     vdW  Elec       q    Type
REMARK                         _______ _______ _______ _____ _____    ______ ____
ROOT
ATOM      1  C   UNL     1       3.056   6.137  18.503  0.00  0.00    +0.000 A 
ATOM      2  C   UNL     1       4.054   6.022  17.550  0.00  0.00    +0.000 A 
ATOM      3  C   UNL     1       4.626   4.784  17.327  0.00  0.00    +0.000 A 
ATOM      4  N   UNL     1       4.228   3.726  18.050  0.00  0.00    +0.000 NA
ATOM      5  C   UNL     1       3.238   3.913  18.934  0.00  0.00    +0.000 A 
ATOM      6  N   UNL     1       2.620   5.070  19.198  0.00  0.00    +0.000 NA
ENDROOT
BRANCH   1  10
ATOM      7  C   UNL     1       1.064   9.860  19.375  0.00  0.00    +0.000 A 
ATOM      8  C   UNL     1       1.151   8.851  20.337  0.00  0.00    +0.000 A 
ATOM      9  C   UNL     1       1.836   7.666  20.057  0.00  0.00    +0.000 A 
ATOM     10  C   UNL     1       2.395   7.424  18.792  0.00  0.00    +0.000 A 
ATOM     11  C   UNL     1       2.261   8.435  17.820  0.00  0.00    +0.000 A 
ATOM     12  C   UNL     1       1.604   9.637  18.103  0.00  0.00    +0.000 A 
BRANCH   7  16
ATOM     13  C   UNL     1      -1.463  12.711  19.333  0.00  0.00    +0.000 C 
ATOM     14  N   UNL     1      -0.883  11.405  19.067  0.00  0.00    +0.000 N 
ATOM     15  C   UNL     1      -1.741  10.416  18.435  0.00  0.00    +0.000 C 
ATOM     16  C   UNL     1       0.367  11.143  19.633  0.00  0.00    +0.000 C 
ATOM     17  O   UNL     1       0.934  11.954  20.367  0.00  0.00    +0.000 OA
ENDBRANCH   7  16
ENDBRANCH   1  10
BRANCH   3  18
ATOM     18  N   UNL     1       5.633   4.631  16.394  0.00  0.00    +0.000 N 
ATOM     19  C   UNL     1       5.373   4.186  15.036  0.00  0.00    +0.000 C 
BRANCH  18  20
ATOM     20  C   UNL     1       7.026   4.605  16.848  0.00  0.00    +0.000 C 
BRANCH  20  21
ATOM     21  C   UNL     1       7.464   5.887  17.475  0.00  0.00    +0.000 A 
ATOM     22  C   UNL     1       7.951   6.205  18.727  0.00  0.00    +0.000 A 
ATOM     23  C   UNL     1       8.189   7.599  18.719  0.00  0.00    +0.000 A 
ATOM     24  C   UNL     1       7.824   8.044  17.471  0.00  0.00    +0.000 A 
ATOM     25  O   UNL     1       7.379   7.012  16.708  0.00  0.00    +0.000 OA
ENDBRANCH  20  21
ENDBRANCH  18  20
ENDBRANCH   3  18
TORSDOF 5
ENDMDL
MODEL 3
REMARK VINA RESULT:      -8.0      0.995      1.018
REMARK  Name = 
REMARK  8 active torsions:
REMARK  status: ('A' for Active; 'I' for Inactive)
REMARK    1  A    between atoms: C_1  and  N_2
REMARK    2  A    between atoms: N_2  and  C_3
REMARK    3  A    between atoms: C_4  and  C_6
REMARK    4  A    between atoms: C_9  and  C_10
REMARK    5  A    between atoms: C_12  and  N_13
REMARK    6  A    between atoms: N_13  and  C_14
REMARK    7  A    between atoms: N_13  and  C_15
REMARK    8  A    between atoms: C_15  and  C_16
REMARK                            x       y       z     vdW  Elec       q    Type
REMARK                         _______ _______ _______ _____ _____    ______ ____
ROOT
ATOM      1  C   UNL     1       3.169   6.144  18.829  0.00  0.00    +0.000 A 
ATOM      2  C   UNL     1       4.078   5.961  17.801  0.00  0.00    +0.000 A 
ATOM      3  C   UNL     1       4.754   4.759  17.712  0.00  0.00    +0.000 A 
ATOM      4  N   UNL     1       4.539   3.804  18.631  0.00  0.00    +0.000 NA
ATOM      5  C   UNL     1       3.623   4.047  19.579  0.00  0.00    +0.000 A 
ATOM      6  N   UNL     1       2.914   5.173  19.726  0.00  0.00    +0.000 NA
ENDROOT
BRANCH   1  10
ATOM      7  C   UNL     1       0.997   9.844  19.256  0.00  0.00    +0.000 A 
ATOM      8  C   UNL     1       1.634   9.520  18.055  0.00  0.00    +0.000 A 
ATOM      9  C   UNL     1       2.298   8.300  17.915  0.00  0.00    +0.000 A 
ATOM     10  C   UNL     1       2.406   7.397  18.985  0.00  0.00    +0.000 A 
ATOM     11  C   UNL     1       1.794   7.758  20.202  0.00  0.00    +0.000 A 
ATOM     12  C   UNL     1       1.100   8.965  20.339  0.00  0.00    +0.000 A 
BRANCH   7  16
ATOM     13  C   UNL     1      -1.594  12.628  19.033  0.00  0.00    +0.000 C 
ATOM     14  N   UNL     1      -0.976  11.328  18.833  0.00  0.00    +0.000 N 
ATOM     15  C   UNL     1      -1.791  10.295  18.214  0.00  0.00    +0.000 C 
ATOM     16  C   UNL     1       0.262  11.117  19.445  0.00  0.00    +0.000 C 
ATOM     17  O   UNL     1       0.788  11.969  20.165  0.00  0.00    +0.000 OA
ENDBRANCH   7  16
ENDBRANCH   1  10
BRANCH   3  18
ATOM     18  N   UNL     1       5.678   4.543  16.709  0.00  0.00    +0.000 N 
ATOM     19  C   UNL     1       5.317   3.946  15.435  0.00  0.00    +0.000 C 
BRANCH  18  20
ATOM     20  C   UNL     1       7.106   4.616  17.029  0.00  0.00    +0.000 C 
BRANCH  20  21
ATOM     21  C   UNL     1       7.522   5.948  17.561  0.00  0.00    +0.000 A 
ATOM     22  C   UNL     1       8.006   6.363  18.785  0.00  0.00    +0.000 A 
ATOM     23  C   UNL     1       8.218   7.757  18.677  0.00  0.00    +0.000 A 
ATOM     24  C   UNL     1       7.841   8.105  17.401  0.00  0.00    +0.000 A 
ATOM     25  O   UNL     1       7.413   7.013  16.716  0.00  0.00    +0.000 OA
ENDBRANCH  20  21
ENDBRANCH  18  20
ENDBRANCH   3  18
TORSDOF 5
ENDMDL
MODEL 4
REMARK VINA RESULT:      -8.0      1.668      2.813
REMARK  Name = 
REMARK  8 active torsions:
REMARK  status: ('A' for Active; 'I' for Inactive)
REMARK    1  A    between atoms: C_1  and  N_2
REMARK    2  A    between atoms: N_2  and  C_3
REMARK    3  A    between atoms: C_4  and  C_6
REMARK    4  A    between atoms: C_9  and  C_10
REMARK    5  A    between atoms: C_12  and  N_13
REMARK    6  A    between atoms: N_13  and  C_14
REMARK    7  A    between atoms: N_13  and  C_15
REMARK    8  A    between atoms: C_15  and  C_16
REMARK                            x       y       z     vdW  Elec       q    Type
REMARK                         _______ _______ _______ _____ _____    ______ ____
ROOT
ATOM      1  C   UNL     1       3.557   6.248  19.046  0.00  0.00    +0.000 A 
ATOM      2  C   UNL     1       4.880   6.385  18.662  0.00  0.00    +0.000 A 
ATOM      3  C   UNL     1       5.711   5.282  18.716  0.00  0.00    +0.000 A 
ATOM      4  N   UNL     1       5.233   4.110  19.163  0.00  0.00    +0.000 NA
ATOM      5  C   UNL     1       3.934   4.051  19.491  0.00  0.00    +0.000 A 
ATOM      6  N   UNL     1       3.060   5.064  19.450  0.00  0.00    +0.000 NA
ENDROOT
BRANCH   1  10
ATOM      7  C   UNL     1       0.739   9.510  18.971  0.00  0.00    +0.000 A 
ATOM      8  C   UNL     1       0.975   8.792  20.147  0.00  0.00    +0.000 A 
ATOM      9  C   UNL     1       1.921   7.766  20.169  0.00  0.00    +0.000 A 
ATOM     10  C   UNL     1       2.610   7.378  19.009  0.00  0.00    +0.000 A 
ATOM     11  C   UNL     1       2.329   8.084  17.822  0.00  0.00    +0.000 A 
ATOM     12  C   UNL     1       1.406   9.135  17.800  0.00  0.00    +0.000 A 
BRANCH   7  16
ATOM     13  C   UNL     1      -0.887  12.952  19.116  0.00  0.00    +0.000 C 
ATOM     14  N   UNL     1       0.153  11.939  19.152  0.00  0.00    +0.000 N 
ATOM     15  C   UNL     1       1.530  12.405  19.213  0.00  0.00    +0.000 C 
ATOM     16  C   UNL     1      -0.240  10.621  18.904  0.00  0.00    +0.000 C 
ATOM     17  O   UNL     1      -1.402  10.330  18.617  0.00  0.00    +0.000 OA
ENDBRANCH   7  16
ENDBRANCH   1  10
BRANCH   3  18
ATOM     18  N   UNL     1       7.039   5.381  18.354  0.00  0.00    +0.000 N 
ATOM     19  C   UNL     1       7.810   6.597  18.552  0.00  0.00    +0.000 C 
BRANCH  18  20
ATOM     20  C   UNL     1       7.612   4.367  17.465  0.00  0.00    +0.000 C 
BRANCH  20  21
ATOM     21  C   UNL     1       7.026   4.391  16.091  0.00  0.00    +0.000 A 
ATOM     22  C   UNL     1       5.936   3.763  15.522  0.00  0.00    +0.000 A 
ATOM     23  C   UNL     1       5.891   4.187  14.174  0.00  0.00    +0.000 A 
ATOM     24  C   UNL     1       6.960   5.036  14.004  0.00  0.00    +0.000 A 
ATOM     25  O   UNL     1       7.657   5.163  15.161  0.00  0.00    +0.000 OA
ENDBRANCH  20  21
ENDBRANCH  18  20
ENDBRANCH   3  18
TORSDOF 5
ENDMDL
MODEL 5
REMARK VINA RESULT:      -7.9      0.845      1.012
REMARK  Name = 
REMARK  8 active torsions:
REMARK  status: ('A' for Active; 'I' for Inactive)
REMARK    1  A    between atoms: C_1  and  N_2
REMARK    2  A    between atoms: N_2  and  C_3
REMARK    3  A    between atoms: C_4  and  C_6
REMARK    4  A    between atoms: C_9  and  C_10
REMARK    5  A    between atoms: C_12  and  N_13
REMARK    6  A    between atoms: N_13  and  C_14
REMARK    7  A    between atoms: N_13  and  C_15
REMARK    8  A    between atoms: C_15  and  C_16
REMARK                            x       y       z     vdW  Elec       q    Type
REMARK                         _______ _______ _______ _____ _____    ______ ____
ROOT
ATOM      1  C   UNL     1       3.032   5.971  18.167  0.00  0.00    +0.000 A 
ATOM      2  C   UNL     1       4.010   5.923  17.188  0.00  0.00    +0.000 A 
ATOM      3  C   UNL     1       4.561   4.701  16.853  0.00  0.00    +0.000 A 
ATOM      4  N   UNL     1       4.162   3.591  17.494  0.00  0.00    +0.000 NA
ATOM      5  C   UNL     1       3.191   3.717  18.411  0.00  0.00    +0.000 A 
ATOM      6  N   UNL     1       2.594   4.856  18.781  0.00  0.00    +0.000 NA
ENDROOT
BRANCH   1  10
ATOM      7  C   UNL     1       1.225   9.710  19.325  0.00  0.00    +0.000 A 
ATOM      8  C   UNL     1       1.723   9.524  18.033  0.00  0.00    +0.000 A 
ATOM      9  C   UNL     1       2.267   8.294  17.657  0.00  0.00    +0.000 A 
ATOM     10  C   UNL     1       2.394   7.238  18.573  0.00  0.00    +0.000 A 
ATOM     11  C   UNL     1       1.926   7.457  19.884  0.00  0.00    +0.000 A 
ATOM     12  C   UNL     1       1.350   8.676  20.259  0.00  0.00    +0.000 A 
BRANCH   7  16
ATOM     13  C   UNL     1      -1.121  12.685  19.736  0.00  0.00    +0.000 C 
ATOM     14  N   UNL     1      -0.634  11.389  19.292  0.00  0.00    +0.000 N 
ATOM     15  C   UNL     1      -1.576  10.533  18.589  0.00  0.00    +0.000 C 
ATOM     16  C   UNL     1       0.619  10.990  19.764  0.00  0.00    +0.000 C 
ATOM     17  O   UNL     1       1.264  11.674  20.561  0.00  0.00    +0.000 OA
ENDBRANCH   7  16
ENDBRANCH   1  10
BRANCH   3  18
ATOM     18  N   UNL     1       5.548   4.613  15.891  0.00  0.00    +0.000 N 
ATOM     19  C   UNL     1       5.245   4.427  14.482  0.00  0.00    +0.000 C 
BRANCH  18  20
ATOM     20  C   UNL     1       6.932   4.381  16.310  0.00  0.00    +0.000 C 
BRANCH  20  21
ATOM     21  C   UNL     1       7.386   5.319  17.381  0.00  0.00    +0.000 A 
ATOM     22  C   UNL     1       7.602   6.682  17.409  0.00  0.00    +0.000 A 
ATOM     23  C   UNL     1       8.030   6.990  18.721  0.00  0.00    +0.000 A 
ATOM     24  C   UNL     1       8.058   5.797  19.405  0.00  0.00    +0.000 A 
ATOM     25  O   UNL     1       7.672   4.776  18.599  0.00  0.00    +0.000 OA
ENDBRANCH  20  21
ENDBRANCH  18  20
ENDBRANCH   3  18
TORSDOF 5
ENDMDL
MODEL 6
REMARK VINA RESULT:      -7.9      1.299      1.735
REMARK  Name = 
REMARK  8 active torsions:
REMARK  status: ('A' for Active; 'I' for Inactive)
REMARK    1  A    between atoms: C_1  and  N_2
REMARK    2  A    between atoms: N_2  and  C_3
REMARK    3  A    between atoms: C_4  and  C_6
REMARK    4  A    between atoms: C_9  and  C_10
REMARK    5  A    between atoms: C_12  and  N_13
REMARK    6  A    between atoms: N_13  and  C_14
REMARK    7  A    between atoms: N_13  and  C_15
REMARK    8  A    between atoms: C_15  and  C_16
REMARK                            x       y       z     vdW  Elec       q    Type
REMARK                         _______ _______ _______ _____ _____    ______ ____
ROOT
ATOM      1  C   UNL     1       2.965   6.255  18.810  0.00  0.00    +0.000 A 
ATOM      2  C   UNL     1       3.910   6.092  17.812  0.00  0.00    +0.000 A 
ATOM      3  C   UNL     1       4.582   4.887  17.718  0.00  0.00    +0.000 A 
ATOM      4  N   UNL     1       4.329   3.912  18.605  0.00  0.00    +0.000 NA
ATOM      5  C   UNL     1       3.380   4.139  19.525  0.00  0.00    +0.000 A 
ATOM      6  N   UNL     1       2.673   5.265  19.674  0.00  0.00    +0.000 NA
ENDROOT
BRANCH   1  10
ATOM      7  C   UNL     1       0.690   9.883  19.313  0.00  0.00    +0.000 A 
ATOM      8  C   UNL     1       0.977   9.059  20.405  0.00  0.00    +0.000 A 
ATOM      9  C   UNL     1       1.751   7.909  20.236  0.00  0.00    +0.000 A 
ATOM     10  C   UNL     1       2.204   7.509  18.969  0.00  0.00    +0.000 A 
ATOM     11  C   UNL     1       1.869   8.329  17.873  0.00  0.00    +0.000 A 
ATOM     12  C   UNL     1       1.121   9.499  18.039  0.00  0.00    +0.000 A 
BRANCH   7  16
ATOM     13  C   UNL     1      -0.360  13.506  19.848  0.00  0.00    +0.000 C 
ATOM     14  N   UNL     1       0.510  12.355  19.678  0.00  0.00    +0.000 N 
ATOM     15  C   UNL     1       1.934  12.615  19.536  0.00  0.00    +0.000 C 
ATOM     16  C   UNL     1      -0.110  11.124  19.446  0.00  0.00    +0.000 C 
ATOM     17  O   UNL     1      -1.333  11.020  19.338  0.00  0.00    +0.000 OA
ENDBRANCH   7  16
ENDBRANCH   1  10
BRANCH   3  18
ATOM     18  N   UNL     1       5.541   4.690  16.745  0.00  0.00    +0.000 N 
ATOM     19  C   UNL     1       5.214   4.182  15.423  0.00  0.00    +0.000 C 
BRANCH  18  20
ATOM     20  C   UNL     1       6.955   4.683  17.129  0.00  0.00    +0.000 C 
BRANCH  20  21
ATOM     21  C   UNL     1       7.437   6.010  17.616  0.00  0.00    +0.000 A 
ATOM     22  C   UNL     1       8.052   6.418  18.783  0.00  0.00    +0.000 A 
ATOM     23  C   UNL     1       8.266   7.810  18.655  0.00  0.00    +0.000 A 
ATOM     24  C   UNL     1       7.759   8.164  17.426  0.00  0.00    +0.000 A 
ATOM     25  O   UNL     1       7.251   7.079  16.789  0.00  0.00    +0.000 OA
ENDBRANCH  20  21
ENDBRANCH  18  20
ENDBRANCH   3  18
TORSDOF 5
ENDMDL
MODEL 7
REMARK VINA RESULT:      -7.9      1.524      2.623
REMARK  Name = 
REMARK  8 active torsions:
REMARK  status: ('A' for Active; 'I' for Inactive)
REMARK    1  A    between atoms: C_1  and  N_2
REMARK    2  A    between atoms: N_2  and  C_3
REMARK    3  A    between atoms: C_4  and  C_6
REMARK    4  A    between atoms: C_9  and  C_10
REMARK    5  A    between atoms: C_12  and  N_13
REMARK    6  A    between atoms: N_13  and  C_14
REMARK    7  A    between atoms: N_13  and  C_15
REMARK    8  A    between atoms: C_15  and  C_16
REMARK                            x       y       z     vdW  Elec       q    Type
REMARK                         _______ _______ _______ _____ _____    ______ ____
ROOT
ATOM      1  C   UNL     1       3.244   6.257  18.796  0.00  0.00    +0.000 A 
ATOM      2  C   UNL     1       4.334   6.249  17.943  0.00  0.00    +0.000 A 
ATOM      3  C   UNL     1       5.062   5.083  17.799  0.00  0.00    +0.000 A 
ATOM      4  N   UNL     1       4.720   3.993  18.504  0.00  0.00    +0.000 NA
ATOM      5  C   UNL     1       3.636   4.074  19.289  0.00  0.00    +0.000 A 
ATOM      6  N   UNL     1       2.868   5.154  19.470  0.00  0.00    +0.000 NA
ENDROOT
BRANCH   1  10
ATOM      7  C   UNL     1       0.881   9.820  19.351  0.00  0.00    +0.000 A 
ATOM      8  C   UNL     1       1.520   9.565  18.135  0.00  0.00    +0.000 A 
ATOM      9  C   UNL     1       2.247   8.387  17.953  0.00  0.00    +0.000 A 
ATOM     10  C   UNL     1       2.417   7.462  18.996  0.00  0.00    +0.000 A 
ATOM     11  C   UNL     1       1.802   7.756  20.229  0.00  0.00    +0.000 A 
ATOM     12  C   UNL     1       1.044   8.918  20.408  0.00  0.00    +0.000 A 
BRANCH   7  16
ATOM     13  C   UNL     1      -1.823  12.499  19.177  0.00  0.00    +0.000 C 
ATOM     14  N   UNL     1      -1.137  11.243  18.926  0.00  0.00    +0.000 N 
ATOM     15  C   UNL     1      -1.874  10.218  18.204  0.00  0.00    +0.000 C 
ATOM     16  C   UNL     1       0.080  11.046  19.583  0.00  0.00    +0.000 C 
ATOM     17  O   UNL     1       0.532  11.870  20.380  0.00  0.00    +0.000 OA
ENDBRANCH   7  16
ENDBRANCH   1  10
BRANCH   3  18
ATOM     18  N   UNL     1       6.163   5.037  16.967  0.00  0.00    +0.000 N 
ATOM     19  C   UNL     1       7.437   4.482  17.393  0.00  0.00    +0.000 C 
BRANCH  18  20
ATOM     20  C   UNL     1       6.165   5.842  15.743  0.00  0.00    +0.000 C 
BRANCH  20  21
ATOM     21  C   UNL     1       6.368   5.029  14.506  0.00  0.00    +0.000 A 
ATOM     22  C   UNL     1       5.672   3.977  13.946  0.00  0.00    +0.000 A 
ATOM     23  C   UNL     1       6.363   3.628  12.762  0.00  0.00    +0.000 A 
ATOM     24  C   UNL     1       7.439   4.480  12.681  0.00  0.00    +0.000 A 
ATOM     25  O   UNL     1       7.453   5.333  13.737  0.00  0.00    +0.000 OA
ENDBRANCH  20  21
ENDBRANCH  18  20
ENDBRANCH   3  18
TORSDOF 5
ENDMDL
MODEL 8
REMARK VINA RESULT:      -7.8      1.394      2.794
REMARK  Name = 
REMARK  8 active torsions:
REMARK  status: ('A' for Active; 'I' for Inactive)
REMARK    1  A    between atoms: C_1  and  N_2
REMARK    2  A    between atoms: N_2  and  C_3
REMARK    3  A    between atoms: C_4  and  C_6
REMARK    4  A    between atoms: C_9  and  C_10
REMARK    5  A    between atoms: C_12  and  N_13
REMARK    6  A    between atoms: N_13  and  C_14
REMARK    7  A    between atoms: N_13  and  C_15
REMARK    8  A    between atoms: C_15  and  C_16
REMARK                            x       y       z     vdW  Elec       q    Type
REMARK                         _______ _______ _______ _____ _____    ______ ____
ROOT
ATOM      1  C   UNL     1       3.174   6.144  17.946  0.00  0.00    +0.000 A 
ATOM      2  C   UNL     1       4.505   6.148  17.565  0.00  0.00    +0.000 A 
ATOM      3  C   UNL     1       5.067   4.979  17.086  0.00  0.00    +0.000 A 
ATOM      4  N   UNL     1       4.327   3.861  17.023  0.00  0.00    +0.000 NA
ATOM      5  C   UNL     1       3.039   3.946  17.386  0.00  0.00    +0.000 A 
ATOM      6  N   UNL     1       2.414   5.038  17.842  0.00  0.00    +0.000 NA
ENDROOT
BRANCH   1  10
ATOM      7  C   UNL     1       1.160   9.638  19.472  0.00  0.00    +0.000 A 
ATOM      8  C   UNL     1       1.276   8.481  20.247  0.00  0.00    +0.000 A 
ATOM      9  C   UNL     1       1.968   7.371  19.758  0.00  0.00    +0.000 A 
ATOM     10  C   UNL     1       2.505   7.354  18.461  0.00  0.00    +0.000 A 
ATOM     11  C   UNL     1       2.341   8.513  17.677  0.00  0.00    +0.000 A 
ATOM     12  C   UNL     1       1.677   9.640  18.172  0.00  0.00    +0.000 A 
BRANCH   7  16
ATOM     13  C   UNL     1      -1.343  12.481  19.884  0.00  0.00    +0.000 C 
ATOM     14  N   UNL     1      -0.753  11.252  19.380  0.00  0.00    +0.000 N 
ATOM     15  C   UNL     1      -1.572  10.440  18.493  0.00  0.00    +0.000 C 
ATOM     16  C   UNL     1       0.454  10.848  19.955  0.00  0.00    +0.000 C 
ATOM     17  O   UNL     1       0.974  11.469  20.884  0.00  0.00    +0.000 OA
ENDBRANCH   7  16
ENDBRANCH   1  10
BRANCH   3  18
ATOM     18  N   UNL     1       6.394   4.939  16.708  0.00  0.00    +0.000 N 
ATOM     19  C   UNL     1       7.438   4.438  17.586  0.00  0.00    +0.000 C 
BRANCH  18  20
ATOM     20  C   UNL     1       6.823   5.700  15.532  0.00  0.00    +0.000 C 
BRANCH  20  21
ATOM     21  C   UNL     1       6.715   4.926  14.259  0.00  0.00    +0.000 A 
ATOM     22  C   UNL     1       5.882   3.906  13.846  0.00  0.00    +0.000 A 
ATOM     23  C   UNL     1       6.271   3.585  12.525  0.00  0.00    +0.000 A 
ATOM     24  C   UNL     1       7.321   4.419  12.221  0.00  0.00    +0.000 A 
ATOM     25  O   UNL     1       7.600   5.235  13.269  0.00  0.00    +0.000 OA
ENDBRANCH  20  21
ENDBRANCH  18  20
ENDBRANCH   3  18
TORSDOF 5
ENDMDL
MODEL 9
REMARK VINA RESULT:      -7.7      1.763      3.043
REMARK  Name = 
REMARK  8 active torsions:
REMARK  status: ('A' for Active; 'I' for Inactive)
REMARK    1  A    between atoms: C_1  and  N_2
REMARK    2  A    between atoms: N_2  and  C_3
REMARK    3  A    between atoms: C_4  and  C_6
REMARK    4  A    between atoms: C_9  and  C_10
REMARK    5  A    between atoms: C_12  and  N_13
REMARK    6  A    between atoms: N_13  and  C_14
REMARK    7  A    between atoms: N_13  and  C_15
REMARK    8  A    between atoms: C_15  and  C_16
REMARK                            x       y       z     vdW  Elec       q    Type
REMARK                         _______ _______ _______ _____ _____    ______ ____
ROOT
ATOM      1  C   UNL     1       3.228   6.431  18.852  0.00  0.00    +0.000 A 
ATOM      2  C   UNL     1       4.164   6.328  17.837  0.00  0.00    +0.000 A 
ATOM      3  C   UNL     1       4.952   5.195  17.767  0.00  0.00    +0.000 A 
ATOM      4  N   UNL     1       4.818   4.232  18.693  0.00  0.00    +0.000 NA
ATOM      5  C   UNL     1       3.871   4.395  19.627  0.00  0.00    +0.000 A 
ATOM      6  N   UNL     1       3.056   5.448  19.755  0.00  0.00    +0.000 NA
ENDROOT
BRANCH   1  10
ATOM      7  C   UNL     1       0.602   9.824  19.278  0.00  0.00    +0.000 A 
ATOM      8  C   UNL     1       0.867   8.981  20.361  0.00  0.00    +0.000 A 
ATOM      9  C   UNL     1       1.753   7.911  20.222  0.00  0.00    +0.000 A 
ATOM     10  C   UNL     1       2.347   7.607  18.986  0.00  0.00    +0.000 A 
ATOM     11  C   UNL     1       2.035   8.441  17.895  0.00  0.00    +0.000 A 
ATOM     12  C   UNL     1       1.173   9.534  18.035  0.00  0.00    +0.000 A 
BRANCH   7  16
ATOM     13  C   UNL     1      -0.852  13.269  20.009  0.00  0.00    +0.000 C 
ATOM     14  N   UNL     1       0.132  12.207  19.894  0.00  0.00    +0.000 N 
ATOM     15  C   UNL     1       1.526  12.569  20.100  0.00  0.00    +0.000 C 
ATOM     16  C   UNL     1      -0.314  10.985  19.384  0.00  0.00    +0.000 C 
ATOM     17  O   UNL     1      -1.473  10.823  18.998  0.00  0.00    +0.000 OA
ENDBRANCH   7  16
ENDBRANCH   1  10
BRANCH   3  18
ATOM     18  N   UNL     1       5.906   5.060  16.778  0.00  0.00    +0.000 N 
ATOM     19  C   UNL     1       7.220   4.497  17.037  0.00  0.00    +0.000 C 
BRANCH  18  20
ATOM     20  C   UNL     1       5.727   5.778  15.513  0.00  0.00    +0.000 C 
BRANCH  20  21
ATOM     21  C   UNL     1       6.109   4.968  14.318  0.00  0.00    +0.000 A 
ATOM     22  C   UNL     1       5.513   3.902  13.673  0.00  0.00    +0.000 A 
ATOM     23  C   UNL     1       6.362   3.565  12.594  0.00  0.00    +0.000 A 
ATOM     24  C   UNL     1       7.424   4.437  12.655  0.00  0.00    +0.000 A 
ATOM     25  O   UNL     1       7.281   5.291  13.700  0.00  0.00    +0.000 OA
ENDBRANCH  20  21
ENDBRANCH  18  20
ENDBRANCH   3  18
TORSDOF 5
ENDMDL
