MODEL 1
REMARK VINA RESULT:      -7.3      0.000      0.000
REMARK  Name = 
REMARK  4 active torsions:
REMARK  status: ('A' for Active; 'I' for Inactive)
REMARK    1  A    between atoms: C_1  and  O_2
REMARK    2  A    between atoms: O_2  and  C_3
REMARK    3  A    between atoms: C_5  and  N_6
REMARK    4  A    between atoms: N_13  and  C_14
REMARK                            x       y       z     vdW  Elec       q    Type
REMARK                         _______ _______ _______ _____ _____    ______ ____
ROOT
ATOM      1  N   UNL     1       2.446   7.519  18.961  0.00  0.00    +0.000 N 
ATOM      2  N   UNL     1       2.131   7.137  20.278  0.00  0.00    +0.000 NA
ATOM      3  N   UNL     1       1.395   7.854  21.016  0.00  0.00    +0.000 NA
ATOM      4  C   UNL     1       0.877   8.976  20.487  0.00  0.00    +0.000 A 
ATOM      5  C   UNL     1       1.081   9.435  19.220  0.00  0.00    +0.000 A 
ATOM      6  C   UNL     1       0.319  10.597  19.095  0.00  0.00    +0.000 A 
ATOM      7  N   UNL     1      -0.327  10.881  20.232  0.00  0.00    +0.000 NA
ATOM      8  N   UNL     1       0.031   9.874  21.068  0.00  0.00    +0.000 N 
ATOM      9  C   UNL     1      -0.482   9.850  22.415  0.00  0.00    +0.000 C 
ATOM     10  C   UNL     1       1.927   8.686  18.352  0.00  0.00    +0.000 A 
ATOM     11  O   UNL     1       2.106   9.061  17.198  0.00  0.00    +0.000 OA
ENDROOT
BRANCH   1  14
ATOM     12  C   UNL     1       5.338   6.135  16.984  0.00  0.00    +0.000 A 
ATOM     13  C   UNL     1       4.561   6.961  17.805  0.00  0.00    +0.000 A 
ATOM     14  C   UNL     1       3.275   6.589  18.243  0.00  0.00    +0.000 A 
ATOM     15  C   UNL     1       2.832   5.302  17.901  0.00  0.00    +0.000 A 
ATOM     16  F   UNL     1       1.630   4.852  18.289  0.00  0.00    +0.000 F 
ATOM     17  C   UNL     1       3.588   4.464  17.078  0.00  0.00    +0.000 A 
ATOM     18  C   UNL     1       4.824   4.892  16.598  0.00  0.00    +0.000 A 
ATOM     19 CL   UNL     1       5.691   3.848  15.529  0.00  0.00    +0.000 Cl
BRANCH  12  21
ATOM     20  C   UNL     1       7.432   7.207  17.368  0.00  0.00    +0.000 C 
ATOM     21  O   UNL     1       6.566   6.495  16.490  0.00  0.00    +0.000 OA
ENDBRANCH  12  21
ENDBRANCH   1  14
TORSDOF 2
ENDMDL
MODEL 2
REMARK VINA RESULT:      -7.1      1.319      1.841
REMARK  Name = 
REMARK  4 active torsions:
REMARK  status: ('A' for Active; 'I' for Inactive)
REMARK    1  A    between atoms: C_1  and  O_2
REMARK    2  A    between atoms: O_2  and  C_3
REMARK    3  A    between atoms: C_5  and  N_6
REMARK    4  A    between atoms: N_13  and  C_14
REMARK                            x       y       z     vdW  Elec       q    Type
REMARK                         _______ _______ _______ _____ _____    ______ ____
ROOT
ATOM      1  N   UNL     1       2.410   7.675  18.502  0.00  0.00    +0.000 N 
ATOM      2  N   UNL     1       2.128   8.749  17.638  0.00  0.00    +0.000 NA
ATOM      3  N   UNL     1       1.378   9.704  17.992  0.00  0.00    +0.000 NA
ATOM      4  C   UNL     1       0.893   9.690  19.245  0.00  0.00    +0.000 A 
ATOM      5  C   UNL     1       1.118   8.727  20.183  0.00  0.00    +0.000 A 
ATOM      6  C   UNL     1       0.461   9.144  21.341  0.00  0.00    +0.000 A 
ATOM      7  N   UNL     1      -0.172  10.308  21.151  0.00  0.00    +0.000 NA
ATOM      8  N   UNL     1       0.108  10.622  19.860  0.00  0.00    +0.000 N 
ATOM      9  C   UNL     1      -0.421  11.834  19.290  0.00  0.00    +0.000 C 
ATOM     10  C   UNL     1       1.930   7.611  19.831  0.00  0.00    +0.000 A 
ATOM     11  O   UNL     1       2.170   6.743  20.664  0.00  0.00    +0.000 OA
ENDROOT
BRANCH   1  14
ATOM     12  C   UNL     1       5.438   6.113  16.896  0.00  0.00    +0.000 A 
ATOM     13  C   UNL     1       4.599   7.022  17.553  0.00  0.00    +0.000 A 
ATOM     14  C   UNL     1       3.296   6.680  17.963  0.00  0.00    +0.000 A 
ATOM     15  C   UNL     1       2.896   5.347  17.773  0.00  0.00    +0.000 A 
ATOM     16  F   UNL     1       1.682   4.923  18.149  0.00  0.00    +0.000 F 
ATOM     17  C   UNL     1       3.714   4.427  17.114  0.00  0.00    +0.000 A 
ATOM     18  C   UNL     1       4.969   4.817  16.652  0.00  0.00    +0.000 A 
ATOM     19 CL   UNL     1       5.916   3.663  15.784  0.00  0.00    +0.000 Cl
BRANCH  12  21
ATOM     20  C   UNL     1       7.574   7.073  17.342  0.00  0.00    +0.000 C 
ATOM     21  O   UNL     1       6.686   6.435  16.429  0.00  0.00    +0.000 OA
ENDBRANCH  12  21
ENDBRANCH   1  14
TORSDOF 2
ENDMDL
MODEL 3
REMARK VINA RESULT:      -6.9      2.089      2.311
REMARK  Name = 
REMARK  4 active torsions:
REMARK  status: ('A' for Active; 'I' for Inactive)
REMARK    1  A    between atoms: C_1  and  O_2
REMARK    2  A    between atoms: O_2  and  C_3
REMARK    3  A    between atoms: C_5  and  N_6
REMARK    4  A    between atoms: N_13  and  C_14
REMARK                            x       y       z     vdW  Elec       q    Type
REMARK                         _______ _______ _______ _____ _____    ______ ____
ROOT
ATOM      1  N   UNL     1       2.113   7.037  19.893  0.00  0.00    +0.000 N 
ATOM      2  N   UNL     1       1.466   7.367  21.097  0.00  0.00    +0.000 NA
ATOM      3  N   UNL     1       0.944   8.504  21.277  0.00  0.00    +0.000 NA
ATOM      4  C   UNL     1       0.981   9.381  20.259  0.00  0.00    +0.000 A 
ATOM      5  C   UNL     1       1.548   9.170  19.038  0.00  0.00    +0.000 A 
ATOM      6  C   UNL     1       1.311  10.323  18.289  0.00  0.00    +0.000 A 
ATOM      7  N   UNL     1       0.642  11.238  19.001  0.00  0.00    +0.000 NA
ATOM      8  N   UNL     1       0.452  10.637  20.203  0.00  0.00    +0.000 N 
ATOM      9  C   UNL     1      -0.246  11.341  21.249  0.00  0.00    +0.000 C 
ATOM     10  C   UNL     1       2.179   7.918  18.788  0.00  0.00    +0.000 A 
ATOM     11  O   UNL     1       2.674   7.691  17.688  0.00  0.00    +0.000 OA
ENDROOT
BRANCH   1  14
ATOM     12  C   UNL     1       4.506   4.183  19.327  0.00  0.00    +0.000 A 
ATOM     13  C   UNL     1       3.993   5.470  19.533  0.00  0.00    +0.000 A 
ATOM     14  C   UNL     1       2.636   5.699  19.832  0.00  0.00    +0.000 A 
ATOM     15  C   UNL     1       1.824   4.569  20.015  0.00  0.00    +0.000 A 
ATOM     16  F   UNL     1       0.524   4.687  20.322  0.00  0.00    +0.000 F 
ATOM     17  C   UNL     1       2.312   3.277  19.808  0.00  0.00    +0.000 A 
ATOM     18  C   UNL     1       3.642   3.087  19.438  0.00  0.00    +0.000 A 
ATOM     19 CL   UNL     1       4.182   1.477  19.128  0.00  0.00    +0.000 Cl
BRANCH  12  21
ATOM     20  C   UNL     1       6.340   4.692  17.892  0.00  0.00    +0.000 C 
ATOM     21  O   UNL     1       5.806   3.932  18.972  0.00  0.00    +0.000 OA
ENDBRANCH  12  21
ENDBRANCH   1  14
TORSDOF 2
ENDMDL
MODEL 4
REMARK VINA RESULT:      -6.8      1.669      2.398
REMARK  Name = 
REMARK  4 active torsions:
REMARK  status: ('A' for Active; 'I' for Inactive)
REMARK    1  A    between atoms: C_1  and  O_2
REMARK    2  A    between atoms: O_2  and  C_3
REMARK    3  A    between atoms: C_5  and  N_6
REMARK    4  A    between atoms: N_13  and  C_14
REMARK                            x       y       z     vdW  Elec       q    Type
REMARK                         _______ _______ _______ _____ _____    ______ ____
ROOT
ATOM      1  N   UNL     1       2.284   7.449  18.969  0.00  0.00    +0.000 N 
ATOM      2  N   UNL     1       2.023   7.022  20.284  0.00  0.00    +0.000 NA
ATOM      3  N   UNL     1       1.391   7.750  21.102  0.00  0.00    +0.000 NA
ATOM      4  C   UNL     1       0.929   8.933  20.663  0.00  0.00    +0.000 A 
ATOM      5  C   UNL     1       1.089   9.443  19.410  0.00  0.00    +0.000 A 
ATOM      6  C   UNL     1       0.412  10.663  19.392  0.00  0.00    +0.000 A 
ATOM      7  N   UNL     1      -0.139  10.933  20.582  0.00  0.00    +0.000 NA
ATOM      8  N   UNL     1       0.192   9.859  21.342  0.00  0.00    +0.000 N 
ATOM      9  C   UNL     1      -0.236   9.801  22.717  0.00  0.00    +0.000 C 
ATOM     10  C   UNL     1       1.819   8.681  18.453  0.00  0.00    +0.000 A 
ATOM     11  O   UNL     1       1.955   9.104  17.309  0.00  0.00    +0.000 OA
ENDROOT
BRANCH   1  14
ATOM     12  C   UNL     1       3.227   4.204  17.304  0.00  0.00    +0.000 A 
ATOM     13  C   UNL     1       2.497   5.194  17.974  0.00  0.00    +0.000 A 
ATOM     14  C   UNL     1       2.992   6.500  18.153  0.00  0.00    +0.000 A 
ATOM     15  C   UNL     1       4.219   6.806  17.545  0.00  0.00    +0.000 A 
ATOM     16  F   UNL     1       4.761   8.028  17.643  0.00  0.00    +0.000 F 
ATOM     17  C   UNL     1       4.967   5.833  16.879  0.00  0.00    +0.000 A 
ATOM     18  C   UNL     1       4.485   4.529  16.784  0.00  0.00    +0.000 A 
ATOM     19 CL   UNL     1       5.476   3.345  16.010  0.00  0.00    +0.000 Cl
BRANCH  12  21
ATOM     20  C   UNL     1       2.947   2.057  18.302  0.00  0.00    +0.000 C 
ATOM     21  O   UNL     1       2.800   2.908  17.169  0.00  0.00    +0.000 OA
ENDBRANCH  12  21
ENDBRANCH   1  14
TORSDOF 2
ENDMDL
MODEL 5
REMARK VINA RESULT:      -6.7      3.547      4.953
REMARK  Name = 
REMARK  4 active torsions:
REMARK  status: ('A' for Active; 'I' for Inactive)
REMARK    1  A    between atoms: C_1  and  O_2
REMARK    2  A    between atoms: O_2  and  C_3
REMARK    3  A    between atoms: C_5  and  N_6
REMARK    4  A    between atoms: N_13  and  C_14
REMARK                            x       y       z     vdW  Elec       q    Type
REMARK                         _______ _______ _______ _____ _____    ______ ____
ROOT
ATOM      1  N   UNL     1       4.596   4.629  17.602  0.00  0.00    +0.000 N 
ATOM      2  N   UNL     1       4.698   3.342  18.160  0.00  0.00    +0.000 NA
ATOM      3  N   UNL     1       4.044   3.015  19.191  0.00  0.00    +0.000 NA
ATOM      4  C   UNL     1       3.203   3.923  19.716  0.00  0.00    +0.000 A 
ATOM      5  C   UNL     1       2.993   5.186  19.250  0.00  0.00    +0.000 A 
ATOM      6  C   UNL     1       2.013   5.749  20.069  0.00  0.00    +0.000 A 
ATOM      7  N   UNL     1       1.626   4.896  21.025  0.00  0.00    +0.000 NA
ATOM      8  N   UNL     1       2.369   3.785  20.787  0.00  0.00    +0.000 N 
ATOM      9  C   UNL     1       2.222   2.633  21.640  0.00  0.00    +0.000 C 
ATOM     10  C   UNL     1       3.725   5.622  18.109  0.00  0.00    +0.000 A 
ATOM     11  O   UNL     1       3.536   6.745  17.653  0.00  0.00    +0.000 OA
ENDROOT
BRANCH   1  14
ATOM     12  C   UNL     1       6.033   4.126  14.156  0.00  0.00    +0.000 A 
ATOM     13  C   UNL     1       5.193   4.043  15.273  0.00  0.00    +0.000 A 
ATOM     14  C   UNL     1       5.384   4.841  16.418  0.00  0.00    +0.000 A 
ATOM     15  C   UNL     1       6.404   5.804  16.361  0.00  0.00    +0.000 A 
ATOM     16  F   UNL     1       6.649   6.622  17.394  0.00  0.00    +0.000 F 
ATOM     17  C   UNL     1       7.258   5.899  15.260  0.00  0.00    +0.000 A 
ATOM     18  C   UNL     1       7.089   5.043  14.173  0.00  0.00    +0.000 A 
ATOM     19 CL   UNL     1       8.211   5.153  12.865  0.00  0.00    +0.000 Cl
BRANCH  12  21
ATOM     20  C   UNL     1       4.829   3.595  12.168  0.00  0.00    +0.000 C 
ATOM     21  O   UNL     1       5.910   3.319  13.054  0.00  0.00    +0.000 OA
ENDBRANCH  12  21
ENDBRANCH   1  14
TORSDOF 2
ENDMDL
MODEL 6
REMARK VINA RESULT:      -6.7      2.479      3.504
REMARK  Name = 
REMARK  4 active torsions:
REMARK  status: ('A' for Active; 'I' for Inactive)
REMARK    1  A    between atoms: C_1  and  O_2
REMARK    2  A    between atoms: O_2  and  C_3
REMARK    3  A    between atoms: C_5  and  N_6
REMARK    4  A    between atoms: N_13  and  C_14
REMARK                            x       y       z     vdW  Elec       q    Type
REMARK                         _______ _______ _______ _____ _____    ______ ____
ROOT
ATOM      1  N   UNL     1       2.140   7.701  18.480  0.00  0.00    +0.000 N 
ATOM      2  N   UNL     1       2.262   8.672  17.469  0.00  0.00    +0.000 NA
ATOM      3  N   UNL     1       1.907   9.871  17.658  0.00  0.00    +0.000 NA
ATOM      4  C   UNL     1       1.453  10.206  18.878  0.00  0.00    +0.000 A 
ATOM      5  C   UNL     1       1.319   9.368  19.944  0.00  0.00    +0.000 A 
ATOM      6  C   UNL     1       0.859  10.150  21.005  0.00  0.00    +0.000 A 
ATOM      7  N   UNL     1       0.688  11.425  20.633  0.00  0.00    +0.000 NA
ATOM      8  N   UNL     1       1.059  11.433  19.327  0.00  0.00    +0.000 N 
ATOM      9  C   UNL     1       1.000  12.663  18.578  0.00  0.00    +0.000 C 
ATOM     10  C   UNL     1       1.673   7.998  19.781  0.00  0.00    +0.000 A 
ATOM     11  O   UNL     1       1.587   7.227  20.732  0.00  0.00    +0.000 OA
ENDROOT
BRANCH   1  14
ATOM     12  C   UNL     1       2.156   3.985  17.859  0.00  0.00    +0.000 A 
ATOM     13  C   UNL     1       1.717   5.298  18.068  0.00  0.00    +0.000 A 
ATOM     14  C   UNL     1       2.606   6.389  18.119  0.00  0.00    +0.000 A 
ATOM     15  C   UNL     1       3.958   6.122  17.855  0.00  0.00    +0.000 A 
ATOM     16  F   UNL     1       4.877   7.099  17.862  0.00  0.00    +0.000 F 
ATOM     17  C   UNL     1       4.419   4.820  17.652  0.00  0.00    +0.000 A 
ATOM     18  C   UNL     1       3.524   3.752  17.682  0.00  0.00    +0.000 A 
ATOM     19 CL   UNL     1       4.151   2.154  17.493  0.00  0.00    +0.000 Cl
BRANCH  12  21
ATOM     20  C   UNL     1       0.757   2.523  19.120  0.00  0.00    +0.000 C 
ATOM     21  O   UNL     1       1.322   2.896  17.867  0.00  0.00    +0.000 OA
ENDBRANCH  12  21
ENDBRANCH   1  14
TORSDOF 2
ENDMDL
MODEL 7
REMARK VINA RESULT:      -6.5      1.046      1.046
REMARK  Name = 
REMARK  4 active torsions:
REMARK  status: ('A' for Active; 'I' for Inactive)
REMARK    1  A    between atoms: C_1  and  O_2
REMARK    2  A    between atoms: O_2  and  C_3
REMARK    3  A    between atoms: C_5  and  N_6
REMARK    4  A    between atoms: N_13  and  C_14
REMARK                            x       y       z     vdW  Elec       q    Type
REMARK                         _______ _______ _______ _____ _____    ______ ____
ROOT
ATOM      1  N   UNL     1       2.388   7.146  19.262  0.00  0.00    +0.000 N 
ATOM      2  N   UNL     1       1.916   6.930  20.569  0.00  0.00    +0.000 NA
ATOM      3  N   UNL     1       1.246   7.810  21.183  0.00  0.00    +0.000 NA
ATOM      4  C   UNL     1       0.953   8.946  20.529  0.00  0.00    +0.000 A 
ATOM      5  C   UNL     1       1.324   9.259  19.256  0.00  0.00    +0.000 A 
ATOM      6  C   UNL     1       0.765  10.508  18.979  0.00  0.00    +0.000 A 
ATOM      7  N   UNL     1       0.085  10.982  20.029  0.00  0.00    +0.000 NA
ATOM      8  N   UNL     1       0.215  10.008  20.966  0.00  0.00    +0.000 N 
ATOM      9  C   UNL     1      -0.398  10.176  22.258  0.00  0.00    +0.000 C 
ATOM     10  C   UNL     1       2.107   8.321  18.525  0.00  0.00    +0.000 A 
ATOM     11  O   UNL     1       2.432   8.565  17.368  0.00  0.00    +0.000 OA
ENDROOT
BRANCH   1  14
ATOM     12  C   UNL     1       5.252   4.882  18.333  0.00  0.00    +0.000 A 
ATOM     13  C   UNL     1       4.480   5.856  18.978  0.00  0.00    +0.000 A 
ATOM     14  C   UNL     1       3.114   6.045  18.690  0.00  0.00    +0.000 A 
ATOM     15  C   UNL     1       2.522   5.145  17.790  0.00  0.00    +0.000 A 
ATOM     16  F   UNL     1       1.224   5.233  17.468  0.00  0.00    +0.000 F 
ATOM     17  C   UNL     1       3.275   4.171  17.130  0.00  0.00    +0.000 A 
ATOM     18  C   UNL     1       4.641   4.059  17.380  0.00  0.00    +0.000 A 
ATOM     19 CL   UNL     1       5.542   2.885  16.490  0.00  0.00    +0.000 Cl
BRANCH  12  21
ATOM     20  C   UNL     1       7.473   5.624  17.885  0.00  0.00    +0.000 C 
ATOM     21  O   UNL     1       6.597   4.716  18.546  0.00  0.00    +0.000 OA
ENDBRANCH  12  21
ENDBRANCH   1  14
TORSDOF 2
ENDMDL
MODEL 8
REMARK VINA RESULT:      -6.4      1.028      1.143
REMARK  Name = 
REMARK  4 active torsions:
REMARK  status: ('A' for Active; 'I' for Inactive)
REMARK    1  A    between atoms: C_1  and  O_2
REMARK    2  A    between atoms: O_2  and  C_3
REMARK    3  A    between atoms: C_5  and  N_6
REMARK    4  A    between atoms: N_13  and  C_14
REMARK                            x       y       z     vdW  Elec       q    Type
REMARK                         _______ _______ _______ _____ _____    ______ ____
ROOT
ATOM      1  N   UNL     1       1.791   8.010  19.624  0.00  0.00    +0.000 N 
ATOM      2  N   UNL     1       1.595   7.810  21.003  0.00  0.00    +0.000 NA
ATOM      3  N   UNL     1       0.903   8.611  21.695  0.00  0.00    +0.000 NA
ATOM      4  C   UNL     1       0.314   9.641  21.062  0.00  0.00    +0.000 A 
ATOM      5  C   UNL     1       0.402   9.923  19.732  0.00  0.00    +0.000 A 
ATOM      6  C   UNL     1      -0.398  11.045  19.514  0.00  0.00    +0.000 A 
ATOM      7  N   UNL     1      -0.957  11.475  20.652  0.00  0.00    +0.000 NA
ATOM      8  N   UNL     1      -0.506  10.599  21.585  0.00  0.00    +0.000 N 
ATOM      9  C   UNL     1      -0.906  10.753  22.960  0.00  0.00    +0.000 C 
ATOM     10  C   UNL     1       1.193   9.074  18.907  0.00  0.00    +0.000 A 
ATOM     11  O   UNL     1       1.269   9.289  17.702  0.00  0.00    +0.000 OA
ENDROOT
BRANCH   1  14
ATOM     12  C   UNL     1       4.362   6.418  17.378  0.00  0.00    +0.000 A 
ATOM     13  C   UNL     1       3.659   7.361  18.138  0.00  0.00    +0.000 A 
ATOM     14  C   UNL     1       2.583   7.003  18.972  0.00  0.00    +0.000 A 
ATOM     15  C   UNL     1       2.296   5.634  19.091  0.00  0.00    +0.000 A 
ATOM     16  F   UNL     1       1.303   5.195  19.876  0.00  0.00    +0.000 F 
ATOM     17  C   UNL     1       2.979   4.677  18.337  0.00  0.00    +0.000 A 
ATOM     18  C   UNL     1       3.989   5.071  17.462  0.00  0.00    +0.000 A 
ATOM     19 CL   UNL     1       4.759   3.860  16.502  0.00  0.00    +0.000 Cl
BRANCH  12  21
ATOM     20  C   UNL     1       6.675   6.898  17.062  0.00  0.00    +0.000 C 
ATOM     21  O   UNL     1       5.372   6.744  16.509  0.00  0.00    +0.000 OA
ENDBRANCH  12  21
ENDBRANCH   1  14
TORSDOF 2
ENDMDL
MODEL 9
REMARK VINA RESULT:      -6.3      5.067      5.565
REMARK  Name = 
REMARK  4 active torsions:
REMARK  status: ('A' for Active; 'I' for Inactive)
REMARK    1  A    between atoms: C_1  and  O_2
REMARK    2  A    between atoms: O_2  and  C_3
REMARK    3  A    between atoms: C_5  and  N_6
REMARK    4  A    between atoms: N_13  and  C_14
REMARK                            x       y       z     vdW  Elec       q    Type
REMARK                         _______ _______ _______ _____ _____    ______ ____
ROOT
ATOM      1  N   UNL     1       4.272   3.994  17.423  0.00  0.00    +0.000 N 
ATOM      2  N   UNL     1       4.893   3.940  18.684  0.00  0.00    +0.000 NA
ATOM      3  N   UNL     1       4.261   3.575  19.717  0.00  0.00    +0.000 NA
ATOM      4  C   UNL     1       2.982   3.188  19.567  0.00  0.00    +0.000 A 
ATOM      5  C   UNL     1       2.282   3.166  18.398  0.00  0.00    +0.000 A 
ATOM      6  C   UNL     1       1.019   2.656  18.706  0.00  0.00    +0.000 A 
ATOM      7  N   UNL     1       0.908   2.383  20.012  0.00  0.00    +0.000 NA
ATOM      8  N   UNL     1       2.123   2.717  20.517  0.00  0.00    +0.000 N 
ATOM      9  C   UNL     1       2.377   2.558  21.926  0.00  0.00    +0.000 C 
ATOM     10  C   UNL     1       2.932   3.596  17.207  0.00  0.00    +0.000 A 
ATOM     11  O   UNL     1       2.333   3.561  16.136  0.00  0.00    +0.000 OA
ENDROOT
BRANCH   1  14
ATOM     12  C   UNL     1       6.125   3.946  14.143  0.00  0.00    +0.000 A 
ATOM     13  C   UNL     1       5.202   3.654  15.156  0.00  0.00    +0.000 A 
ATOM     14  C   UNL     1       5.127   4.408  16.344  0.00  0.00    +0.000 A 
ATOM     15  C   UNL     1       5.956   5.537  16.436  0.00  0.00    +0.000 A 
ATOM     16  F   UNL     1       5.941   6.326  17.519  0.00  0.00    +0.000 F 
ATOM     17  C   UNL     1       6.887   5.842  15.442  0.00  0.00    +0.000 A 
ATOM     18  C   UNL     1       6.990   5.032  14.312  0.00  0.00    +0.000 A 
ATOM     19 CL   UNL     1       8.203   5.411  13.143  0.00  0.00    +0.000 Cl
BRANCH  12  21
ATOM     20  C   UNL     1       5.205   3.254  12.056  0.00  0.00    +0.000 C 
ATOM     21  O   UNL     1       6.264   3.194  13.005  0.00  0.00    +0.000 OA
ENDBRANCH  12  21
ENDBRANCH   1  14
TORSDOF 2
ENDMDL
