MODEL 1
REMARK VINA RESULT:      -7.9      0.000      0.000
REMARK  Name = 
REMARK  4 active torsions:
REMARK  status: ('A' for Active; 'I' for Inactive)
REMARK    1  A    between atoms: N_1  and  C_2
REMARK    2  A    between atoms: C_2  and  C_3
REMARK    3  A    between atoms: N_5  and  C_6
REMARK    4  A    between atoms: C_7  and  C_8
REMARK                            x       y       z     vdW  Elec       q    Type
REMARK                         _______ _______ _______ _____ _____    ______ ____
ROOT
ATOM      1  C   UNL     1       4.288   4.895  17.226  0.00  0.00    +0.000 A 
ATOM      2  C   UNL     1       3.908   6.278  17.426  0.00  0.00    +0.000 A 
ATOM      3  C   UNL     1       4.428   7.236  16.530  0.00  0.00    +0.000 A 
ATOM      4  N   UNL     1       5.294   7.041  15.513  0.00  0.00    +0.000 NA
ATOM      5  C   UNL     1       5.645   5.754  15.403  0.00  0.00    +0.000 A 
ATOM      6  N   UNL     1       6.528   5.267  14.483  0.00  0.00    +0.000 N 
ATOM      7  N   UNL     1       6.715   3.939  14.559  0.00  0.00    +0.000 NA
ATOM      8  C   UNL     1       5.927   3.590  15.582  0.00  0.00    +0.000 A 
ATOM      9  C   UNL     1       5.214   4.676  16.161  0.00  0.00    +0.000 A 
ATOM     10  H   UNL     1       7.013   5.799  13.774  0.00  0.00    +0.000 HD
ENDROOT
BRANCH   1  13
ATOM     11  C   UNL     1       1.890   2.298  18.529  0.00  0.00    +0.000 C 
ATOM     12  C   UNL     1       2.794   2.881  17.410  0.00  0.00    +0.000 C 
ATOM     13  N   UNL     1       3.741   3.858  17.993  0.00  0.00    +0.000 N 
ATOM     14  C   UNL     1       4.593   3.207  19.013  0.00  0.00    +0.000 C 
ATOM     15  C   UNL     1       3.675   2.652  20.121  0.00  0.00    +0.000 C 
ATOM     16  O   UNL     1       2.670   1.757  19.621  0.00  0.00    +0.000 OA
BRANCH  11  17
ATOM     17  C   UNL     1       0.827   3.338  18.958  0.00  0.00    +0.000 C 
BRANCH  17  18
ATOM     18  N   UNL     1       0.425   3.251  20.363  0.00  0.00    +0.000 NA
ATOM     19  H   UNL     1       1.084   2.652  20.861  0.00  0.00    +0.000 HD
ATOM     20  H   UNL     1      -0.482   2.786  20.409  0.00  0.00    +0.000 HD
ENDBRANCH  17  18
ENDBRANCH  11  17
ENDBRANCH   1  13
BRANCH   2  21
ATOM     21  C   UNL     1       2.990   6.778  18.499  0.00  0.00    +0.000 A 
ATOM     22  C   UNL     1       2.350   8.028  18.400  0.00  0.00    +0.000 A 
ATOM     23  C   UNL     1       1.558   8.536  19.438  0.00  0.00    +0.000 A 
ATOM     24  C   UNL     1       1.416   7.824  20.623  0.00  0.00    +0.000 A 
ATOM     25  C   UNL     1       2.000   6.571  20.734  0.00  0.00    +0.000 A 
ATOM     26  C   UNL     1       2.727   6.043  19.661  0.00  0.00    +0.000 A 
ENDBRANCH   2  21
TORSDOF 4
ENDMDL
MODEL 2
REMARK VINA RESULT:      -7.8      0.114      1.002
REMARK  Name = 
REMARK  4 active torsions:
REMARK  status: ('A' for Active; 'I' for Inactive)
REMARK    1  A    between atoms: N_1  and  C_2
REMARK    2  A    between atoms: C_2  and  C_3
REMARK    3  A    between atoms: N_5  and  C_6
REMARK    4  A    between atoms: C_7  and  C_8
REMARK                            x       y       z     vdW  Elec       q    Type
REMARK                         _______ _______ _______ _____ _____    ______ ____
ROOT
ATOM      1  C   UNL     1       4.319   4.875  17.177  0.00  0.00    +0.000 A 
ATOM      2  C   UNL     1       3.998   6.268  17.406  0.00  0.00    +0.000 A 
ATOM      3  C   UNL     1       4.524   7.218  16.505  0.00  0.00    +0.000 A 
ATOM      4  N   UNL     1       5.349   7.004  15.459  0.00  0.00    +0.000 NA
ATOM      5  C   UNL     1       5.649   5.707  15.322  0.00  0.00    +0.000 A 
ATOM      6  N   UNL     1       6.484   5.201  14.368  0.00  0.00    +0.000 N 
ATOM      7  N   UNL     1       6.623   3.866  14.421  0.00  0.00    +0.000 NA
ATOM      8  C   UNL     1       5.856   3.533  15.466  0.00  0.00    +0.000 A 
ATOM      9  C   UNL     1       5.202   4.636  16.080  0.00  0.00    +0.000 A 
ATOM     10  H   UNL     1       6.964   5.723  13.649  0.00  0.00    +0.000 HD
ENDROOT
BRANCH   1  13
ATOM     11  C   UNL     1       1.875   2.341  18.516  0.00  0.00    +0.000 C 
ATOM     12  C   UNL     1       2.770   2.906  17.381  0.00  0.00    +0.000 C 
ATOM     13  N   UNL     1       3.759   3.848  17.949  0.00  0.00    +0.000 N 
ATOM     14  C   UNL     1       4.614   3.163  18.943  0.00  0.00    +0.000 C 
ATOM     15  C   UNL     1       3.707   2.627  20.069  0.00  0.00    +0.000 C 
ATOM     16  O   UNL     1       2.663   1.768  19.585  0.00  0.00    +0.000 OA
BRANCH  11  17
ATOM     17  C   UNL     1       0.854   3.410  18.978  0.00  0.00    +0.000 C 
BRANCH  17  18
ATOM     18  N   UNL     1       0.411   3.265  20.366  0.00  0.00    +0.000 NA
ATOM     19  H   UNL     1       0.135   4.180  20.725  0.00  0.00    +0.000 HD
ATOM     20  H   UNL     1       1.208   2.963  20.928  0.00  0.00    +0.000 HD
ENDBRANCH  17  18
ENDBRANCH  11  17
ENDBRANCH   1  13
BRANCH   2  21
ATOM     21  C   UNL     1       3.134   6.787  18.514  0.00  0.00    +0.000 A 
ATOM     22  C   UNL     1       2.937   6.056  19.701  0.00  0.00    +0.000 A 
ATOM     23  C   UNL     1       2.063   6.496  20.704  0.00  0.00    +0.000 A 
ATOM     24  C   UNL     1       1.329   7.662  20.528  0.00  0.00    +0.000 A 
ATOM     25  C   UNL     1       1.531   8.426  19.389  0.00  0.00    +0.000 A 
ATOM     26  C   UNL     1       2.462   8.012  18.430  0.00  0.00    +0.000 A 
ENDBRANCH   2  21
TORSDOF 4
ENDMDL
MODEL 3
REMARK VINA RESULT:      -7.4      1.208      1.890
REMARK  Name = 
REMARK  4 active torsions:
REMARK  status: ('A' for Active; 'I' for Inactive)
REMARK    1  A    between atoms: N_1  and  C_2
REMARK    2  A    between atoms: C_2  and  C_3
REMARK    3  A    between atoms: N_5  and  C_6
REMARK    4  A    between atoms: C_7  and  C_8
REMARK                            x       y       z     vdW  Elec       q    Type
REMARK                         _______ _______ _______ _____ _____    ______ ____
ROOT
ATOM      1  C   UNL     1       3.848   5.288  17.455  0.00  0.00    +0.000 A 
ATOM      2  C   UNL     1       3.653   6.723  17.441  0.00  0.00    +0.000 A 
ATOM      3  C   UNL     1       4.414   7.477  16.523  0.00  0.00    +0.000 A 
ATOM      4  N   UNL     1       5.362   7.038  15.668  0.00  0.00    +0.000 NA
ATOM      5  C   UNL     1       5.532   5.714  15.757  0.00  0.00    +0.000 A 
ATOM      6  N   UNL     1       6.442   4.999  15.033  0.00  0.00    +0.000 N 
ATOM      7  N   UNL     1       6.421   3.679  15.285  0.00  0.00    +0.000 NA
ATOM      8  C   UNL     1       5.470   3.575  16.221  0.00  0.00    +0.000 A 
ATOM      9  C   UNL     1       4.857   4.811  16.564  0.00  0.00    +0.000 A 
ATOM     10  H   UNL     1       7.083   5.364  14.342  0.00  0.00    +0.000 HD
ENDROOT
BRANCH   1  13
ATOM     11  C   UNL     1       2.807   2.896  20.173  0.00  0.00    +0.000 C 
ATOM     12  C   UNL     1       3.332   4.278  19.699  0.00  0.00    +0.000 C 
ATOM     13  N   UNL     1       3.065   4.441  18.252  0.00  0.00    +0.000 N 
ATOM     14  C   UNL     1       1.614   4.356  17.981  0.00  0.00    +0.000 C 
ATOM     15  C   UNL     1       1.120   2.970  18.442  0.00  0.00    +0.000 C 
ATOM     16  O   UNL     1       1.418   2.700  19.821  0.00  0.00    +0.000 OA
BRANCH  11  17
ATOM     17  C   UNL     1       3.753   1.768  19.692  0.00  0.00    +0.000 C 
BRANCH  17  18
ATOM     18  N   UNL     1       5.135   1.895  20.159  0.00  0.00    +0.000 NA
ATOM     19  H   UNL     1       5.737   2.111  19.364  0.00  0.00    +0.000 HD
ATOM     20  H   UNL     1       5.438   0.987  20.513  0.00  0.00    +0.000 HD
ENDBRANCH  17  18
ENDBRANCH  11  17
ENDBRANCH   1  13
BRANCH   2  21
ATOM     21  C   UNL     1       2.691   7.475  18.309  0.00  0.00    +0.000 A 
ATOM     22  C   UNL     1       1.944   8.561  17.814  0.00  0.00    +0.000 A 
ATOM     23  C   UNL     1       1.107   9.320  18.642  0.00  0.00    +0.000 A 
ATOM     24  C   UNL     1       1.027   9.039  20.001  0.00  0.00    +0.000 A 
ATOM     25  C   UNL     1       1.719   7.951  20.510  0.00  0.00    +0.000 A 
ATOM     26  C   UNL     1       2.492   7.156  19.657  0.00  0.00    +0.000 A 
ENDBRANCH   2  21
TORSDOF 4
ENDMDL
MODEL 4
REMARK VINA RESULT:      -7.2      1.221      2.122
REMARK  Name = 
REMARK  4 active torsions:
REMARK  status: ('A' for Active; 'I' for Inactive)
REMARK    1  A    between atoms: N_1  and  C_2
REMARK    2  A    between atoms: C_2  and  C_3
REMARK    3  A    between atoms: N_5  and  C_6
REMARK    4  A    between atoms: C_7  and  C_8
REMARK                            x       y       z     vdW  Elec       q    Type
REMARK                         _______ _______ _______ _____ _____    ______ ____
ROOT
ATOM      1  C   UNL     1       3.884   5.302  17.413  0.00  0.00    +0.000 A 
ATOM      2  C   UNL     1       3.743   6.743  17.391  0.00  0.00    +0.000 A 
ATOM      3  C   UNL     1       4.508   7.462  16.450  0.00  0.00    +0.000 A 
ATOM      4  N   UNL     1       5.417   6.982  15.575  0.00  0.00    +0.000 NA
ATOM      5  C   UNL     1       5.540   5.652  15.670  0.00  0.00    +0.000 A 
ATOM      6  N   UNL     1       6.404   4.898  14.929  0.00  0.00    +0.000 N 
ATOM      7  N   UNL     1       6.340   3.583  15.193  0.00  0.00    +0.000 NA
ATOM      8  C   UNL     1       5.409   3.521  16.152  0.00  0.00    +0.000 A 
ATOM      9  C   UNL     1       4.852   4.782  16.501  0.00  0.00    +0.000 A 
ATOM     10  H   UNL     1       7.041   5.234  14.221  0.00  0.00    +0.000 HD
ENDROOT
BRANCH   1  13
ATOM     11  C   UNL     1       2.816   2.989  20.188  0.00  0.00    +0.000 C 
ATOM     12  C   UNL     1       3.370   4.347  19.681  0.00  0.00    +0.000 C 
ATOM     13  N   UNL     1       3.089   4.491  18.235  0.00  0.00    +0.000 N 
ATOM     14  C   UNL     1       1.632   4.439  17.983  0.00  0.00    +0.000 C 
ATOM     15  C   UNL     1       1.109   3.075  18.477  0.00  0.00    +0.000 C 
ATOM     16  O   UNL     1       1.418   2.823  19.856  0.00  0.00    +0.000 OA
BRANCH  11  17
ATOM     17  C   UNL     1       3.726   1.828  19.716  0.00  0.00    +0.000 C 
BRANCH  17  18
ATOM     18  N   UNL     1       5.122   1.939  20.143  0.00  0.00    +0.000 NA
ATOM     19  H   UNL     1       5.488   2.846  19.852  0.00  0.00    +0.000 HD
ATOM     20  H   UNL     1       5.667   1.233  19.646  0.00  0.00    +0.000 HD
ENDBRANCH  17  18
ENDBRANCH  11  17
ENDBRANCH   1  13
BRANCH   2  21
ATOM     21  C   UNL     1       2.831   7.537  18.277  0.00  0.00    +0.000 A 
ATOM     22  C   UNL     1       2.633   7.196  19.628  0.00  0.00    +0.000 A 
ATOM     23  C   UNL     1       1.718   7.883  20.437  0.00  0.00    +0.000 A 
ATOM     24  C   UNL     1       0.945   8.907  19.904  0.00  0.00    +0.000 A 
ATOM     25  C   UNL     1       1.147   9.294  18.588  0.00  0.00    +0.000 A 
ATOM     26  C   UNL     1       2.117   8.648  17.813  0.00  0.00    +0.000 A 
ENDBRANCH   2  21
TORSDOF 4
ENDMDL
MODEL 5
REMARK VINA RESULT:      -7.1      2.009      4.767
REMARK  Name = 
REMARK  4 active torsions:
REMARK  status: ('A' for Active; 'I' for Inactive)
REMARK    1  A    between atoms: N_1  and  C_2
REMARK    2  A    between atoms: C_2  and  C_3
REMARK    3  A    between atoms: N_5  and  C_6
REMARK    4  A    between atoms: C_7  and  C_8
REMARK                            x       y       z     vdW  Elec       q    Type
REMARK                         _______ _______ _______ _____ _____    ______ ____
ROOT
ATOM      1  C   UNL     1       3.481   5.387  18.433  0.00  0.00    +0.000 A 
ATOM      2  C   UNL     1       4.185   6.067  17.366  0.00  0.00    +0.000 A 
ATOM      3  C   UNL     1       4.025   7.465  17.263  0.00  0.00    +0.000 A 
ATOM      4  N   UNL     1       3.244   8.271  18.013  0.00  0.00    +0.000 NA
ATOM      5  C   UNL     1       2.582   7.584  18.952  0.00  0.00    +0.000 A 
ATOM      6  N   UNL     1       1.699   8.132  19.837  0.00  0.00    +0.000 N 
ATOM      7  N   UNL     1       1.167   7.245  20.694  0.00  0.00    +0.000 NA
ATOM      8  C   UNL     1       1.731   6.093  20.311  0.00  0.00    +0.000 A 
ATOM      9  C   UNL     1       2.641   6.226  19.227  0.00  0.00    +0.000 A 
ATOM     10  H   UNL     1       1.443   9.107  19.906  0.00  0.00    +0.000 HD
ENDROOT
BRANCH   1  13
ATOM     11  C   UNL     1       2.922   1.662  18.479  0.00  0.00    +0.000 C 
ATOM     12  C   UNL     1       3.196   2.991  17.726  0.00  0.00    +0.000 C 
ATOM     13  N   UNL     1       3.659   4.020  18.685  0.00  0.00    +0.000 N 
ATOM     14  C   UNL     1       4.901   3.579  19.357  0.00  0.00    +0.000 C 
ATOM     15  C   UNL     1       4.598   2.269  20.113  0.00  0.00    +0.000 C 
ATOM     16  O   UNL     1       4.064   1.243  19.263  0.00  0.00    +0.000 OA
BRANCH  11  17
ATOM     17  C   UNL     1       1.600   1.761  19.281  0.00  0.00    +0.000 C 
BRANCH  17  18
ATOM     18  N   UNL     1       0.489   2.367  18.545  0.00  0.00    +0.000 NA
ATOM     19  H   UNL     1       0.859   2.876  17.742  0.00  0.00    +0.000 HD
ATOM     20  H   UNL     1       0.046   3.062  19.148  0.00  0.00    +0.000 HD
ENDBRANCH  17  18
ENDBRANCH  11  17
ENDBRANCH   1  13
BRANCH   2  21
ATOM     21  C   UNL     1       5.090   5.411  16.369  0.00  0.00    +0.000 A 
ATOM     22  C   UNL     1       6.491   5.443  16.510  0.00  0.00    +0.000 A 
ATOM     23  C   UNL     1       7.343   4.904  15.537  0.00  0.00    +0.000 A 
ATOM     24  C   UNL     1       6.818   4.354  14.375  0.00  0.00    +0.000 A 
ATOM     25  C   UNL     1       5.442   4.269  14.226  0.00  0.00    +0.000 A 
ATOM     26  C   UNL     1       4.602   4.744  15.239  0.00  0.00    +0.000 A 
ENDBRANCH   2  21
TORSDOF 4
ENDMDL
MODEL 6
REMARK VINA RESULT:      -6.9      2.025      4.745
REMARK  Name = 
REMARK  4 active torsions:
REMARK  status: ('A' for Active; 'I' for Inactive)
REMARK    1  A    between atoms: N_1  and  C_2
REMARK    2  A    between atoms: C_2  and  C_3
REMARK    3  A    between atoms: N_5  and  C_6
REMARK    4  A    between atoms: C_7  and  C_8
REMARK                            x       y       z     vdW  Elec       q    Type
REMARK                         _______ _______ _______ _____ _____    ______ ____
ROOT
ATOM      1  C   UNL     1       3.469   5.460  18.471  0.00  0.00    +0.000 A 
ATOM      2  C   UNL     1       4.156   6.179  17.419  0.00  0.00    +0.000 A 
ATOM      3  C   UNL     1       3.959   7.574  17.343  0.00  0.00    +0.000 A 
ATOM      4  N   UNL     1       3.155   8.344  18.107  0.00  0.00    +0.000 NA
ATOM      5  C   UNL     1       2.510   7.621  19.030  0.00  0.00    +0.000 A 
ATOM      6  N   UNL     1       1.611   8.129  19.923  0.00  0.00    +0.000 N 
ATOM      7  N   UNL     1       1.101   7.211  20.762  0.00  0.00    +0.000 NA
ATOM      8  C   UNL     1       1.696   6.083  20.359  0.00  0.00    +0.000 A 
ATOM      9  C   UNL     1       2.604   6.260  19.279  0.00  0.00    +0.000 A 
ATOM     10  H   UNL     1       1.329   9.095  20.011  0.00  0.00    +0.000 HD
ENDROOT
BRANCH   1  13
ATOM     11  C   UNL     1       3.016   1.720  18.436  0.00  0.00    +0.000 C 
ATOM     12  C   UNL     1       3.261   3.072  17.713  0.00  0.00    +0.000 C 
ATOM     13  N   UNL     1       3.683   4.093  18.698  0.00  0.00    +0.000 N 
ATOM     14  C   UNL     1       4.929   3.675  19.375  0.00  0.00    +0.000 C 
ATOM     15  C   UNL     1       4.656   2.341  20.101  0.00  0.00    +0.000 C 
ATOM     16  O   UNL     1       4.161   1.318  19.223  0.00  0.00    +0.000 OA
BRANCH  11  17
ATOM     17  C   UNL     1       1.684   1.766  19.223  0.00  0.00    +0.000 C 
BRANCH  17  18
ATOM     18  N   UNL     1       0.583   2.425  18.517  0.00  0.00    +0.000 NA
ATOM     19  H   UNL     1      -0.275   2.310  19.056  0.00  0.00    +0.000 HD
ATOM     20  H   UNL     1       0.435   1.939  17.631  0.00  0.00    +0.000 HD
ENDBRANCH  17  18
ENDBRANCH  11  17
ENDBRANCH   1  13
BRANCH   2  21
ATOM     21  C   UNL     1       5.081   5.566  16.413  0.00  0.00    +0.000 A 
ATOM     22  C   UNL     1       4.596   4.960  15.238  0.00  0.00    +0.000 A 
ATOM     23  C   UNL     1       5.449   4.311  14.335  0.00  0.00    +0.000 A 
ATOM     24  C   UNL     1       6.809   4.216  14.604  0.00  0.00    +0.000 A 
ATOM     25  C   UNL     1       7.323   4.839  15.732  0.00  0.00    +0.000 A 
ATOM     26  C   UNL     1       6.470   5.547  16.585  0.00  0.00    +0.000 A 
ENDBRANCH   2  21
TORSDOF 4
ENDMDL
MODEL 7
REMARK VINA RESULT:      -6.7      2.139      4.778
REMARK  Name = 
REMARK  4 active torsions:
REMARK  status: ('A' for Active; 'I' for Inactive)
REMARK    1  A    between atoms: N_1  and  C_2
REMARK    2  A    between atoms: C_2  and  C_3
REMARK    3  A    between atoms: N_5  and  C_6
REMARK    4  A    between atoms: C_7  and  C_8
REMARK                            x       y       z     vdW  Elec       q    Type
REMARK                         _______ _______ _______ _____ _____    ______ ____
ROOT
ATOM      1  C   UNL     1       3.473   4.732  18.412  0.00  0.00    +0.000 A 
ATOM      2  C   UNL     1       2.311   5.390  18.972  0.00  0.00    +0.000 A 
ATOM      3  C   UNL     1       1.298   4.576  19.520  0.00  0.00    +0.000 A 
ATOM      4  N   UNL     1       1.239   3.228  19.551  0.00  0.00    +0.000 NA
ATOM      5  C   UNL     1       2.315   2.673  18.980  0.00  0.00    +0.000 A 
ATOM      6  N   UNL     1       2.514   1.329  18.843  0.00  0.00    +0.000 N 
ATOM      7  N   UNL     1       3.675   1.010  18.247  0.00  0.00    +0.000 NA
ATOM      8  C   UNL     1       4.210   2.208  17.987  0.00  0.00    +0.000 A 
ATOM      9  C   UNL     1       3.418   3.305  18.427  0.00  0.00    +0.000 A 
ATOM     10  H   UNL     1       1.896   0.594  19.156  0.00  0.00    +0.000 HD
ENDROOT
BRANCH   1  13
ATOM     11  C   UNL     1       5.863   6.498  16.096  0.00  0.00    +0.000 C 
ATOM     12  C   UNL     1       4.473   6.355  16.774  0.00  0.00    +0.000 C 
ATOM     13  N   UNL     1       4.579   5.453  17.942  0.00  0.00    +0.000 N 
ATOM     14  C   UNL     1       5.543   5.992  18.926  0.00  0.00    +0.000 C 
ATOM     15  C   UNL     1       6.918   6.107  18.237  0.00  0.00    +0.000 C 
ATOM     16  O   UNL     1       6.881   6.901  17.042  0.00  0.00    +0.000 OA
BRANCH  11  17
ATOM     17  C   UNL     1       6.206   5.216  15.298  0.00  0.00    +0.000 C 
BRANCH  17  18
ATOM     18  N   UNL     1       7.513   5.243  14.639  0.00  0.00    +0.000 NA
ATOM     19  H   UNL     1       7.595   6.104  14.097  0.00  0.00    +0.000 HD
ATOM     20  H   UNL     1       7.550   4.474  13.968  0.00  0.00    +0.000 HD
ENDBRANCH  17  18
ENDBRANCH  11  17
ENDBRANCH   1  13
BRANCH   2  21
ATOM     21  C   UNL     1       2.102   6.872  19.035  0.00  0.00    +0.000 A 
ATOM     22  C   UNL     1       1.863   7.532  20.256  0.00  0.00    +0.000 A 
ATOM     23  C   UNL     1       1.583   8.904  20.311  0.00  0.00    +0.000 A 
ATOM     24  C   UNL     1       1.495   9.647  19.140  0.00  0.00    +0.000 A 
ATOM     25  C   UNL     1       1.767   9.035  17.926  0.00  0.00    +0.000 A 
ATOM     26  C   UNL     1       2.118   7.680  17.893  0.00  0.00    +0.000 A 
ENDBRANCH   2  21
TORSDOF 4
ENDMDL
MODEL 8
REMARK VINA RESULT:      -6.7      8.087     10.137
REMARK  Name = 
REMARK  4 active torsions:
REMARK  status: ('A' for Active; 'I' for Inactive)
REMARK    1  A    between atoms: N_1  and  C_2
REMARK    2  A    between atoms: C_2  and  C_3
REMARK    3  A    between atoms: N_5  and  C_6
REMARK    4  A    between atoms: C_7  and  C_8
REMARK                            x       y       z     vdW  Elec       q    Type
REMARK                         _______ _______ _______ _____ _____    ______ ____
ROOT
ATOM      1  C   UNL     1      -2.570  12.002  19.425  0.00  0.00    +0.000 A 
ATOM      2  C   UNL     1      -3.676  12.627  20.121  0.00  0.00    +0.000 A 
ATOM      3  C   UNL     1      -4.934  12.628  19.482  0.00  0.00    +0.000 A 
ATOM      4  N   UNL     1      -5.245  12.157  18.256  0.00  0.00    +0.000 NA
ATOM      5  C   UNL     1      -4.177  11.634  17.641  0.00  0.00    +0.000 A 
ATOM      6  N   UNL     1      -4.187  11.109  16.381  0.00  0.00    +0.000 N 
ATOM      7  N   UNL     1      -2.996  10.632  15.982  0.00  0.00    +0.000 NA
ATOM      8  C   UNL     1      -2.210  10.890  17.033  0.00  0.00    +0.000 A 
ATOM      9  C   UNL     1      -2.882  11.512  18.121  0.00  0.00    +0.000 A 
ATOM     10  H   UNL     1      -4.985  11.037  15.765  0.00  0.00    +0.000 HD
ENDROOT
BRANCH   1  13
ATOM     11  C   UNL     1       0.312  10.558  21.376  0.00  0.00    +0.000 C 
ATOM     12  C   UNL     1      -0.686  10.522  20.187  0.00  0.00    +0.000 C 
ATOM     13  N   UNL     1      -1.309  11.854  20.020  0.00  0.00    +0.000 N 
ATOM     14  C   UNL     1      -0.276  12.879  19.754  0.00  0.00    +0.000 C 
ATOM     15  C   UNL     1       0.690  12.909  20.956  0.00  0.00    +0.000 C 
ATOM     16  O   UNL     1       1.275  11.628  21.236  0.00  0.00    +0.000 OA
BRANCH  11  17
ATOM     17  C   UNL     1      -0.456  10.563  22.721  0.00  0.00    +0.000 C 
BRANCH  17  18
ATOM     18  N   UNL     1       0.081   9.647  23.730  0.00  0.00    +0.000 NA
ATOM     19  H   UNL     1       0.883   9.152  23.337  0.00  0.00    +0.000 HD
ATOM     20  H   UNL     1      -0.626   8.939  23.930  0.00  0.00    +0.000 HD
ENDBRANCH  17  18
ENDBRANCH  11  17
ENDBRANCH   1  13
BRANCH   2  21
ATOM     21  C   UNL     1      -3.601  13.257  21.478  0.00  0.00    +0.000 A 
ATOM     22  C   UNL     1      -3.272  14.616  21.643  0.00  0.00    +0.000 A 
ATOM     23  C   UNL     1      -3.117  15.190  22.912  0.00  0.00    +0.000 A 
ATOM     24  C   UNL     1      -3.248  14.408  24.053  0.00  0.00    +0.000 A 
ATOM     25  C   UNL     1      -3.613  13.076  23.924  0.00  0.00    +0.000 A 
ATOM     26  C   UNL     1      -3.837  12.535  22.653  0.00  0.00    +0.000 A 
ENDBRANCH   2  21
TORSDOF 4
ENDMDL
MODEL 9
REMARK VINA RESULT:      -6.7      8.113     10.227
REMARK  Name = 
REMARK  4 active torsions:
REMARK  status: ('A' for Active; 'I' for Inactive)
REMARK    1  A    between atoms: N_1  and  C_2
REMARK    2  A    between atoms: C_2  and  C_3
REMARK    3  A    between atoms: N_5  and  C_6
REMARK    4  A    between atoms: C_7  and  C_8
REMARK                            x       y       z     vdW  Elec       q    Type
REMARK                         _______ _______ _______ _____ _____    ______ ____
ROOT
ATOM      1  C   UNL     1      -2.574  12.024  19.433  0.00  0.00    +0.000 A 
ATOM      2  C   UNL     1      -3.690  12.625  20.133  0.00  0.00    +0.000 A 
ATOM      3  C   UNL     1      -4.946  12.617  19.492  0.00  0.00    +0.000 A 
ATOM      4  N   UNL     1      -5.248  12.157  18.259  0.00  0.00    +0.000 NA
ATOM      5  C   UNL     1      -4.172  11.656  17.641  0.00  0.00    +0.000 A 
ATOM      6  N   UNL     1      -4.173  11.146  16.374  0.00  0.00    +0.000 N 
ATOM      7  N   UNL     1      -2.975  10.691  15.972  0.00  0.00    +0.000 NA
ATOM      8  C   UNL     1      -2.194  10.947  17.028  0.00  0.00    +0.000 A 
ATOM      9  C   UNL     1      -2.877  11.546  18.122  0.00  0.00    +0.000 A 
ATOM     10  H   UNL     1      -4.968  11.071  15.756  0.00  0.00    +0.000 HD
ENDROOT
BRANCH   1  13
ATOM     11  C   UNL     1       0.316  10.605  21.388  0.00  0.00    +0.000 C 
ATOM     12  C   UNL     1      -0.680  10.559  20.199  0.00  0.00    +0.000 C 
ATOM     13  N   UNL     1      -1.312  11.887  20.028  0.00  0.00    +0.000 N 
ATOM     14  C   UNL     1      -0.286  12.918  19.760  0.00  0.00    +0.000 C 
ATOM     15  C   UNL     1       0.679  12.957  20.962  0.00  0.00    +0.000 C 
ATOM     16  O   UNL     1       1.272  11.681  21.246  0.00  0.00    +0.000 OA
BRANCH  11  17
ATOM     17  C   UNL     1      -0.452  10.607  22.733  0.00  0.00    +0.000 C 
BRANCH  17  18
ATOM     18  N   UNL     1       0.055   9.656  23.723  0.00  0.00    +0.000 NA
ATOM     19  H   UNL     1       0.672  10.146  24.371  0.00  0.00    +0.000 HD
ATOM     20  H   UNL     1       0.633   8.966  23.239  0.00  0.00    +0.000 HD
ENDBRANCH  17  18
ENDBRANCH  11  17
ENDBRANCH   1  13
BRANCH   2  21
ATOM     21  C   UNL     1      -3.626  13.240  21.498  0.00  0.00    +0.000 A 
ATOM     22  C   UNL     1      -4.000  12.522  22.649  0.00  0.00    +0.000 A 
ATOM     23  C   UNL     1      -4.023  13.118  23.917  0.00  0.00    +0.000 A 
ATOM     24  C   UNL     1      -3.711  14.465  24.062  0.00  0.00    +0.000 A 
ATOM     25  C   UNL     1      -3.299  15.188  22.953  0.00  0.00    +0.000 A 
ATOM     26  C   UNL     1      -3.209  14.560  21.706  0.00  0.00    +0.000 A 
ENDBRANCH   2  21
TORSDOF 4
ENDMDL
