MODEL 1
REMARK VINA RESULT:      -8.7      0.000      0.000
REMARK  Name = 
REMARK  9 active torsions:
REMARK  status: ('A' for Active; 'I' for Inactive)
REMARK    1  A    between atoms: C_1  and  C_2
REMARK    2  A    between atoms: C_2  and  C_3
REMARK    3  A    between atoms: C_8  and  O_9
REMARK    4  A    between atoms: O_9  and  C_10
REMARK    5  A    between atoms: C_10  and  C_11
REMARK    6  A    between atoms: N_13  and  C_14
REMARK    7  A    between atoms: C_17  and  C_18
REMARK    8  A    between atoms: C_19  and  S_20
REMARK    9  A    between atoms: S_20  and  N_23
REMARK                            x       y       z     vdW  Elec       q    Type
REMARK                         _______ _______ _______ _____ _____    ______ ____
ROOT
ATOM      1  C   UNL     1       2.436   7.448  19.038  0.00  0.00    +0.000 A 
ATOM      2  C   UNL     1       1.727   7.400  20.235  0.00  0.00    +0.000 A 
ATOM      3  C   UNL     1       1.351   6.173  20.777  0.00  0.00    +0.000 A 
ATOM      4  C   UNL     1       1.707   4.970  20.149  0.00  0.00    +0.000 A 
ATOM      5  C   UNL     1       1.214   3.674  20.733  0.00  0.00    +0.000 C 
ATOM      6  C   UNL     1       2.484   5.029  18.974  0.00  0.00    +0.000 A 
ATOM      7  C   UNL     1       2.823   6.265  18.406  0.00  0.00    +0.000 A 
ENDROOT
BRANCH   1  10
ATOM      8  C   UNL     1       1.802   9.638  18.111  0.00  0.00    +0.000 C 
ATOM      9  O   UNL     1       2.142  10.591  17.408  0.00  0.00    +0.000 OA
ATOM     10  N   UNL     1       2.740   8.693  18.478  0.00  0.00    +0.000 N 
ATOM     11  H   UNL     1       3.611   8.776  17.966  0.00  0.00    +0.000 HD
BRANCH   8  12
ATOM     12  C   UNL     1       0.377   9.491  18.659  0.00  0.00    +0.000 C 
BRANCH  12  13
ATOM     13  O   UNL     1      -0.579   9.787  17.650  0.00  0.00    +0.000 OA
BRANCH  13  19
ATOM     14  C   UNL     1      -2.967  10.434  17.381  0.00  0.00    +0.000 A 
ATOM     15  C   UNL     1      -4.012  11.213  17.921  0.00  0.00    +0.000 A 
ATOM     16  C   UNL     1      -3.808  12.066  19.006  0.00  0.00    +0.000 A 
ATOM     17  C   UNL     1      -2.555  12.134  19.596  0.00  0.00    +0.000 A 
ATOM     18  C   UNL     1      -1.522  11.325  19.121  0.00  0.00    +0.000 A 
ATOM     19  C   UNL     1      -1.717  10.453  18.033  0.00  0.00    +0.000 A 
BRANCH  14  21
ATOM     20  C   UNL     1      -3.030  10.376  14.784  0.00  0.00    +0.000 C 
ATOM     21  C   UNL     1      -3.217   9.651  16.112  0.00  0.00    +0.000 C 
ENDBRANCH  14  21
ENDBRANCH  13  19
ENDBRANCH  12  13
ENDBRANCH   8  12
ENDBRANCH   1  10
BRANCH   6  22
ATOM     22  S   UNL     1       3.014   3.513  18.187  0.00  0.00    +0.000 S 
ATOM     23  O   UNL     1       3.132   2.516  19.225  0.00  0.00    +0.000 OA
ATOM     24  O   UNL     1       2.134   3.332  17.052  0.00  0.00    +0.000 OA
BRANCH  22  25
ATOM     25  N   UNL     1       4.602   3.839  17.593  0.00  0.00    +0.000 NA
ATOM     26  C   UNL     1       4.666   4.396  16.218  0.00  0.00    +0.000 C 
ATOM     27  C   UNL     1       5.879   3.880  15.443  0.00  0.00    +0.000 C 
ATOM     28  C   UNL     1       7.192   4.583  15.761  0.00  0.00    +0.000 C 
ATOM     29  C   UNL     1       7.623   4.459  17.215  0.00  0.00    +0.000 C 
ATOM     30  C   UNL     1       6.690   5.209  18.155  0.00  0.00    +0.000 C 
ATOM     31  C   UNL     1       5.503   4.392  18.639  0.00  0.00    +0.000 C 
ENDBRANCH  22  25
ENDBRANCH   6  22
TORSDOF 7
ENDMDL
MODEL 2
REMARK VINA RESULT:      -8.3      2.396      8.731
REMARK  Name = 
REMARK  9 active torsions:
REMARK  status: ('A' for Active; 'I' for Inactive)
REMARK    1  A    between atoms: C_1  and  C_2
REMARK    2  A    between atoms: C_2  and  C_3
REMARK    3  A    between atoms: C_8  and  O_9
REMARK    4  A    between atoms: O_9  and  C_10
REMARK    5  A    between atoms: C_10  and  C_11
REMARK    6  A    between atoms: N_13  and  C_14
REMARK    7  A    between atoms: C_17  and  C_18
REMARK    8  A    between atoms: C_19  and  S_20
REMARK    9  A    between atoms: S_20  and  N_23
REMARK                            x       y       z     vdW  Elec       q    Type
REMARK                         _______ _______ _______ _____ _____    ______ ____
ROOT
ATOM      1  C   UNL     1       2.522   5.881  19.245  0.00  0.00    +0.000 A 
ATOM      2  C   UNL     1       3.135   6.384  18.102  0.00  0.00    +0.000 A 
ATOM      3  C   UNL     1       2.985   7.727  17.760  0.00  0.00    +0.000 A 
ATOM      4  C   UNL     1       2.245   8.598  18.574  0.00  0.00    +0.000 A 
ATOM      5  C   UNL     1       2.049  10.020  18.125  0.00  0.00    +0.000 C 
ATOM      6  C   UNL     1       1.685   8.091  19.765  0.00  0.00    +0.000 A 
ATOM      7  C   UNL     1       1.800   6.731  20.085  0.00  0.00    +0.000 A 
ENDROOT
BRANCH   1  10
ATOM      8  C   UNL     1       3.821   3.820  19.595  0.00  0.00    +0.000 C 
ATOM      9  O   UNL     1       3.806   2.588  19.606  0.00  0.00    +0.000 OA
ATOM     10  N   UNL     1       2.630   4.516  19.528  0.00  0.00    +0.000 N 
ATOM     11  H   UNL     1       1.836   3.926  19.301  0.00  0.00    +0.000 HD
BRANCH   8  12
ATOM     12  C   UNL     1       5.120   4.626  19.722  0.00  0.00    +0.000 C 
BRANCH  12  13
ATOM     13  O   UNL     1       6.127   4.085  18.878  0.00  0.00    +0.000 OA
BRANCH  13  19
ATOM     14  C   UNL     1       6.836   5.725  17.144  0.00  0.00    +0.000 A 
ATOM     15  C   UNL     1       6.761   6.049  15.774  0.00  0.00    +0.000 A 
ATOM     16  C   UNL     1       5.987   5.304  14.883  0.00  0.00    +0.000 A 
ATOM     17  C   UNL     1       5.294   4.194  15.343  0.00  0.00    +0.000 A 
ATOM     18  C   UNL     1       5.404   3.816  16.681  0.00  0.00    +0.000 A 
ATOM     19  C   UNL     1       6.189   4.553  17.587  0.00  0.00    +0.000 A 
BRANCH  14  21
ATOM     20  C   UNL     1       7.813   8.087  17.603  0.00  0.00    +0.000 C 
ATOM     21  C   UNL     1       7.565   6.661  18.081  0.00  0.00    +0.000 C 
ENDBRANCH  14  21
ENDBRANCH  13  19
ENDBRANCH  12  13
ENDBRANCH   8  12
ENDBRANCH   1  10
BRANCH   6  22
ATOM     22  S   UNL     1       0.796   9.190  20.861  0.00  0.00    +0.000 S 
ATOM     23  O   UNL     1      -0.236   8.409  21.500  0.00  0.00    +0.000 OA
ATOM     24  O   UNL     1       1.809   9.886  21.625  0.00  0.00    +0.000 OA
BRANCH  22  25
ATOM     25  N   UNL     1       0.020  10.334  19.826  0.00  0.00    +0.000 NA
ATOM     26  C   UNL     1      -1.275   9.894  19.247  0.00  0.00    +0.000 C 
ATOM     27  C   UNL     1      -1.473  10.408  17.821  0.00  0.00    +0.000 C 
ATOM     28  C   UNL     1      -1.947  11.852  17.718  0.00  0.00    +0.000 C 
ATOM     29  C   UNL     1      -0.987  12.863  18.327  0.00  0.00    +0.000 C 
ATOM     30  C   UNL     1      -0.895  12.725  19.840  0.00  0.00    +0.000 C 
ATOM     31  C   UNL     1       0.155  11.733  20.313  0.00  0.00    +0.000 C 
ENDBRANCH  22  25
ENDBRANCH   6  22
TORSDOF 7
ENDMDL
MODEL 3
REMARK VINA RESULT:      -8.2      1.855      2.594
REMARK  Name = 
REMARK  9 active torsions:
REMARK  status: ('A' for Active; 'I' for Inactive)
REMARK    1  A    between atoms: C_1  and  C_2
REMARK    2  A    between atoms: C_2  and  C_3
REMARK    3  A    between atoms: C_8  and  O_9
REMARK    4  A    between atoms: O_9  and  C_10
REMARK    5  A    between atoms: C_10  and  C_11
REMARK    6  A    between atoms: N_13  and  C_14
REMARK    7  A    between atoms: C_17  and  C_18
REMARK    8  A    between atoms: C_19  and  S_20
REMARK    9  A    between atoms: S_20  and  N_23
REMARK                            x       y       z     vdW  Elec       q    Type
REMARK                         _______ _______ _______ _____ _____    ______ ____
ROOT
ATOM      1  C   UNL     1       2.427   7.300  19.065  0.00  0.00    +0.000 A 
ATOM      2  C   UNL     1       1.735   7.210  20.269  0.00  0.00    +0.000 A 
ATOM      3  C   UNL     1       1.389   5.962  20.786  0.00  0.00    +0.000 A 
ATOM      4  C   UNL     1       1.757   4.782  20.124  0.00  0.00    +0.000 A 
ATOM      5  C   UNL     1       1.296   3.464  20.682  0.00  0.00    +0.000 C 
ATOM      6  C   UNL     1       2.517   4.885  18.940  0.00  0.00    +0.000 A 
ATOM      7  C   UNL     1       2.826   6.140  18.398  0.00  0.00    +0.000 A 
ENDROOT
BRANCH   1  10
ATOM      8  C   UNL     1       1.740   9.466  18.120  0.00  0.00    +0.000 C 
ATOM      9  O   UNL     1       2.072  10.441  17.444  0.00  0.00    +0.000 OA
ATOM     10  N   UNL     1       2.701   8.563  18.532  0.00  0.00    +0.000 N 
ATOM     11  H   UNL     1       3.594   8.693  18.070  0.00  0.00    +0.000 HD
BRANCH   8  12
ATOM     12  C   UNL     1       0.295   9.245  18.586  0.00  0.00    +0.000 C 
BRANCH  12  13
ATOM     13  O   UNL     1      -0.285  10.471  19.008  0.00  0.00    +0.000 OA
BRANCH  13  19
ATOM     14  C   UNL     1      -0.912  11.803  21.016  0.00  0.00    +0.000 A 
ATOM     15  C   UNL     1      -1.127  11.745  22.409  0.00  0.00    +0.000 A 
ATOM     16  C   UNL     1      -0.899  10.579  23.140  0.00  0.00    +0.000 A 
ATOM     17  C   UNL     1      -0.479   9.432  22.485  0.00  0.00    +0.000 A 
ATOM     18  C   UNL     1      -0.321   9.446  21.099  0.00  0.00    +0.000 A 
ATOM     19  C   UNL     1      -0.558  10.613  20.348  0.00  0.00    +0.000 A 
BRANCH  14  21
ATOM     20  C   UNL     1      -1.976  14.170  20.906  0.00  0.00    +0.000 C 
ATOM     21  C   UNL     1      -1.030  13.135  20.310  0.00  0.00    +0.000 C 
ENDBRANCH  14  21
ENDBRANCH  13  19
ENDBRANCH  12  13
ENDBRANCH   8  12
ENDBRANCH   1  10
BRANCH   6  22
ATOM     22  S   UNL     1       3.063   3.398  18.109  0.00  0.00    +0.000 S 
ATOM     23  O   UNL     1       3.220   2.379  19.120  0.00  0.00    +0.000 OA
ATOM     24  O   UNL     1       2.167   3.225  16.985  0.00  0.00    +0.000 OA
BRANCH  22  25
ATOM     25  N   UNL     1       4.633   3.770  17.494  0.00  0.00    +0.000 NA
ATOM     26  C   UNL     1       4.663   4.341  16.124  0.00  0.00    +0.000 C 
ATOM     27  C   UNL     1       5.876   3.864  15.327  0.00  0.00    +0.000 C 
ATOM     28  C   UNL     1       7.176   4.597  15.632  0.00  0.00    +0.000 C 
ATOM     29  C   UNL     1       7.631   4.470  17.078  0.00  0.00    +0.000 C 
ATOM     30  C   UNL     1       6.694   5.188  18.039  0.00  0.00    +0.000 C 
ATOM     31  C   UNL     1       5.536   4.335  18.532  0.00  0.00    +0.000 C 
ENDBRANCH  22  25
ENDBRANCH   6  22
TORSDOF 7
ENDMDL
MODEL 4
REMARK VINA RESULT:      -8.0      2.013      3.260
REMARK  Name = 
REMARK  9 active torsions:
REMARK  status: ('A' for Active; 'I' for Inactive)
REMARK    1  A    between atoms: C_1  and  C_2
REMARK    2  A    between atoms: C_2  and  C_3
REMARK    3  A    between atoms: C_8  and  O_9
REMARK    4  A    between atoms: O_9  and  C_10
REMARK    5  A    between atoms: C_10  and  C_11
REMARK    6  A    between atoms: N_13  and  C_14
REMARK    7  A    between atoms: C_17  and  C_18
REMARK    8  A    between atoms: C_19  and  S_20
REMARK    9  A    between atoms: S_20  and  N_23
REMARK                            x       y       z     vdW  Elec       q    Type
REMARK                         _______ _______ _______ _____ _____    ______ ____
ROOT
ATOM      1  C   UNL     1       1.785   5.684  20.568  0.00  0.00    +0.000 A 
ATOM      2  C   UNL     1       0.663   4.865  20.501  0.00  0.00    +0.000 A 
ATOM      3  C   UNL     1       0.718   3.657  19.808  0.00  0.00    +0.000 A 
ATOM      4  C   UNL     1       1.908   3.232  19.197  0.00  0.00    +0.000 A 
ATOM      5  C   UNL     1       1.897   1.958  18.398  0.00  0.00    +0.000 C 
ATOM      6  C   UNL     1       3.056   4.039  19.330  0.00  0.00    +0.000 A 
ATOM      7  C   UNL     1       2.988   5.274  19.989  0.00  0.00    +0.000 A 
ENDROOT
BRANCH   1  10
ATOM      8  C   UNL     1       1.718   8.145  20.565  0.00  0.00    +0.000 C 
ATOM      9  O   UNL     1       1.869   9.175  21.223  0.00  0.00    +0.000 OA
ATOM     10  N   UNL     1       1.685   6.923  21.209  0.00  0.00    +0.000 N 
ATOM     11  H   UNL     1       1.981   6.975  22.178  0.00  0.00    +0.000 HD
BRANCH   8  12
ATOM     12  C   UNL     1       1.495   8.166  19.048  0.00  0.00    +0.000 C 
BRANCH  12  13
ATOM     13  O   UNL     1       1.713   9.472  18.530  0.00  0.00    +0.000 OA
BRANCH  13  19
ATOM     14  C   UNL     1       0.470  11.613  18.791  0.00  0.00    +0.000 A 
ATOM     15  C   UNL     1      -0.757  12.263  18.546  0.00  0.00    +0.000 A 
ATOM     16  C   UNL     1      -1.847  11.592  17.991  0.00  0.00    +0.000 A 
ATOM     17  C   UNL     1      -1.721  10.257  17.640  0.00  0.00    +0.000 A 
ATOM     18  C   UNL     1      -0.498   9.609  17.813  0.00  0.00    +0.000 A 
ATOM     19  C   UNL     1       0.612  10.277  18.363  0.00  0.00    +0.000 A 
BRANCH  14  21
ATOM     20  C   UNL     1       1.179  13.039  20.843  0.00  0.00    +0.000 C 
ATOM     21  C   UNL     1       1.557  12.354  19.535  0.00  0.00    +0.000 C 
ENDBRANCH  14  21
ENDBRANCH  13  19
ENDBRANCH  12  13
ENDBRANCH   8  12
ENDBRANCH   1  10
BRANCH   6  22
ATOM     22  S   UNL     1       4.606   3.492  18.623  0.00  0.00    +0.000 S 
ATOM     23  O   UNL     1       5.311   2.769  19.655  0.00  0.00    +0.000 OA
ATOM     24  O   UNL     1       4.265   2.878  17.358  0.00  0.00    +0.000 OA
BRANCH  22  25
ATOM     25  N   UNL     1       5.494   4.938  18.300  0.00  0.00    +0.000 NA
ATOM     26  C   UNL     1       6.971   4.800  18.334  0.00  0.00    +0.000 C 
ATOM     27  C   UNL     1       7.653   6.043  18.905  0.00  0.00    +0.000 C 
ATOM     28  C   UNL     1       7.810   7.198  17.925  0.00  0.00    +0.000 C 
ATOM     29  C   UNL     1       6.492   7.734  17.385  0.00  0.00    +0.000 C 
ATOM     30  C   UNL     1       5.787   6.725  16.491  0.00  0.00    +0.000 C 
ATOM     31  C   UNL     1       4.870   5.767  17.234  0.00  0.00    +0.000 C 
ENDBRANCH  22  25
ENDBRANCH   6  22
TORSDOF 7
ENDMDL
MODEL 5
REMARK VINA RESULT:      -8.0      2.421      8.570
REMARK  Name = 
REMARK  9 active torsions:
REMARK  status: ('A' for Active; 'I' for Inactive)
REMARK    1  A    between atoms: C_1  and  C_2
REMARK    2  A    between atoms: C_2  and  C_3
REMARK    3  A    between atoms: C_8  and  O_9
REMARK    4  A    between atoms: O_9  and  C_10
REMARK    5  A    between atoms: C_10  and  C_11
REMARK    6  A    between atoms: N_13  and  C_14
REMARK    7  A    between atoms: C_17  and  C_18
REMARK    8  A    between atoms: C_19  and  S_20
REMARK    9  A    between atoms: S_20  and  N_23
REMARK                            x       y       z     vdW  Elec       q    Type
REMARK                         _______ _______ _______ _____ _____    ______ ____
ROOT
ATOM      1  C   UNL     1       2.211   5.637  19.302  0.00  0.00    +0.000 A 
ATOM      2  C   UNL     1       2.843   6.098  18.152  0.00  0.00    +0.000 A 
ATOM      3  C   UNL     1       2.818   7.455  17.835  0.00  0.00    +0.000 A 
ATOM      4  C   UNL     1       2.188   8.379  18.681  0.00  0.00    +0.000 A 
ATOM      5  C   UNL     1       2.123   9.821  18.259  0.00  0.00    +0.000 C 
ATOM      6  C   UNL     1       1.610   7.909  19.879  0.00  0.00    +0.000 A 
ATOM      7  C   UNL     1       1.597   6.539  20.174  0.00  0.00    +0.000 A 
ENDROOT
BRANCH   1  10
ATOM      8  C   UNL     1       3.311   3.457  19.615  0.00  0.00    +0.000 C 
ATOM      9  O   UNL     1       3.180   2.232  19.605  0.00  0.00    +0.000 OA
ATOM     10  N   UNL     1       2.190   4.263  19.561  0.00  0.00    +0.000 N 
ATOM     11  H   UNL     1       1.344   3.754  19.325  0.00  0.00    +0.000 HD
BRANCH   8  12
ATOM     12  C   UNL     1       4.680   4.135  19.756  0.00  0.00    +0.000 C 
BRANCH  12  13
ATOM     13  O   UNL     1       5.425   4.007  18.552  0.00  0.00    +0.000 OA
BRANCH  13  19
ATOM     14  C   UNL     1       6.191   5.655  16.851  0.00  0.00    +0.000 A 
ATOM     15  C   UNL     1       7.036   6.762  16.626  0.00  0.00    +0.000 A 
ATOM     16  C   UNL     1       7.900   7.239  17.611  0.00  0.00    +0.000 A 
ATOM     17  C   UNL     1       7.915   6.634  18.859  0.00  0.00    +0.000 A 
ATOM     18  C   UNL     1       7.043   5.579  19.126  0.00  0.00    +0.000 A 
ATOM     19  C   UNL     1       6.159   5.094  18.144  0.00  0.00    +0.000 A 
BRANCH  14  21
ATOM     20  C   UNL     1       6.016   3.957  14.893  0.00  0.00    +0.000 C 
ATOM     21  C   UNL     1       5.394   5.093  15.696  0.00  0.00    +0.000 C 
ENDBRANCH  14  21
ENDBRANCH  13  19
ENDBRANCH  12  13
ENDBRANCH   8  12
ENDBRANCH   1  10
BRANCH   6  22
ATOM     22  S   UNL     1       0.861   9.071  21.014  0.00  0.00    +0.000 S 
ATOM     23  O   UNL     1      -0.222   8.381  21.673  0.00  0.00    +0.000 OA
ATOM     24  O   UNL     1       1.957   9.656  21.757  0.00  0.00    +0.000 OA
BRANCH  22  25
ATOM     25  N   UNL     1       0.168  10.299  20.017  0.00  0.00    +0.000 NA
ATOM     26  C   UNL     1      -1.160   9.976  19.437  0.00  0.00    +0.000 C 
ATOM     27  C   UNL     1      -1.327  10.542  18.027  0.00  0.00    +0.000 C 
ATOM     28  C   UNL     1      -1.690  12.020  17.967  0.00  0.00    +0.000 C 
ATOM     29  C   UNL     1      -0.650  12.937  18.596  0.00  0.00    +0.000 C 
ATOM     30  C   UNL     1      -0.560  12.751  20.103  0.00  0.00    +0.000 C 
ATOM     31  C   UNL     1       0.414  11.669  20.540  0.00  0.00    +0.000 C 
ENDBRANCH  22  25
ENDBRANCH   6  22
TORSDOF 7
ENDMDL
MODEL 6
REMARK VINA RESULT:      -8.0      2.503      8.280
REMARK  Name = 
REMARK  9 active torsions:
REMARK  status: ('A' for Active; 'I' for Inactive)
REMARK    1  A    between atoms: C_1  and  C_2
REMARK    2  A    between atoms: C_2  and  C_3
REMARK    3  A    between atoms: C_8  and  O_9
REMARK    4  A    between atoms: O_9  and  C_10
REMARK    5  A    between atoms: C_10  and  C_11
REMARK    6  A    between atoms: N_13  and  C_14
REMARK    7  A    between atoms: C_17  and  C_18
REMARK    8  A    between atoms: C_19  and  S_20
REMARK    9  A    between atoms: S_20  and  N_23
REMARK                            x       y       z     vdW  Elec       q    Type
REMARK                         _______ _______ _______ _____ _____    ______ ____
ROOT
ATOM      1  C   UNL     1       2.475   7.650  18.695  0.00  0.00    +0.000 A 
ATOM      2  C   UNL     1       2.124   6.876  19.796  0.00  0.00    +0.000 A 
ATOM      3  C   UNL     1       1.378   7.431  20.834  0.00  0.00    +0.000 A 
ATOM      4  C   UNL     1       0.940   8.762  20.772  0.00  0.00    +0.000 A 
ATOM      5  C   UNL     1       0.201   9.337  21.949  0.00  0.00    +0.000 C 
ATOM      6  C   UNL     1       1.243   9.516  19.620  0.00  0.00    +0.000 A 
ATOM      7  C   UNL     1       2.031   8.971  18.597  0.00  0.00    +0.000 A 
ENDROOT
BRANCH   1  10
ATOM      8  C   UNL     1       4.378   6.283  17.942  0.00  0.00    +0.000 C 
ATOM      9  O   UNL     1       5.168   6.040  17.028  0.00  0.00    +0.000 OA
ATOM     10  N   UNL     1       3.283   7.091  17.700  0.00  0.00    +0.000 N 
ATOM     11  H   UNL     1       3.333   7.574  16.810  0.00  0.00    +0.000 HD
BRANCH   8  12
ATOM     12  C   UNL     1       4.523   5.664  19.337  0.00  0.00    +0.000 C 
BRANCH  12  13
ATOM     13  O   UNL     1       4.375   4.252  19.274  0.00  0.00    +0.000 OA
BRANCH  13  19
ATOM     14  C   UNL     1       2.028   3.464  19.012  0.00  0.00    +0.000 A 
ATOM     15  C   UNL     1       0.914   2.933  19.694  0.00  0.00    +0.000 A 
ATOM     16  C   UNL     1       0.916   2.755  21.078  0.00  0.00    +0.000 A 
ATOM     17  C   UNL     1       2.050   3.076  21.807  0.00  0.00    +0.000 A 
ATOM     18  C   UNL     1       3.187   3.542  21.147  0.00  0.00    +0.000 A 
ATOM     19  C   UNL     1       3.202   3.717  19.750  0.00  0.00    +0.000 A 
BRANCH  14  21
ATOM     20  C   UNL     1       2.930   3.157  16.595  0.00  0.00    +0.000 C 
ATOM     21  C   UNL     1       1.904   3.777  17.538  0.00  0.00    +0.000 C 
ENDBRANCH  14  21
ENDBRANCH  13  19
ENDBRANCH  12  13
ENDBRANCH   8  12
ENDBRANCH   1  10
BRANCH   6  22
ATOM     22  S   UNL     1       0.639  11.194  19.479  0.00  0.00    +0.000 S 
ATOM     23  O   UNL     1       0.615  11.750  20.811  0.00  0.00    +0.000 OA
ATOM     24  O   UNL     1       1.409  11.800  18.413  0.00  0.00    +0.000 OA
BRANCH  22  25
ATOM     25  N   UNL     1      -0.997  11.046  18.945  0.00  0.00    +0.000 NA
ATOM     26  C   UNL     1      -1.770  12.312  18.903  0.00  0.00    +0.000 C 
ATOM     27  C   UNL     1      -3.234  12.107  19.291  0.00  0.00    +0.000 C 
ATOM     28  C   UNL     1      -4.123  11.557  18.183  0.00  0.00    +0.000 C 
ATOM     29  C   UNL     1      -3.697  10.188  17.672  0.00  0.00    +0.000 C 
ATOM     30  C   UNL     1      -2.365  10.240  16.938  0.00  0.00    +0.000 C 
ATOM     31  C   UNL     1      -1.152  10.067  17.837  0.00  0.00    +0.000 C 
ENDBRANCH  22  25
ENDBRANCH   6  22
TORSDOF 7
ENDMDL
MODEL 7
REMARK VINA RESULT:      -8.0      0.706      2.153
REMARK  Name = 
REMARK  9 active torsions:
REMARK  status: ('A' for Active; 'I' for Inactive)
REMARK    1  A    between atoms: C_1  and  C_2
REMARK    2  A    between atoms: C_2  and  C_3
REMARK    3  A    between atoms: C_8  and  O_9
REMARK    4  A    between atoms: O_9  and  C_10
REMARK    5  A    between atoms: C_10  and  C_11
REMARK    6  A    between atoms: N_13  and  C_14
REMARK    7  A    between atoms: C_17  and  C_18
REMARK    8  A    between atoms: C_19  and  S_20
REMARK    9  A    between atoms: S_20  and  N_23
REMARK                            x       y       z     vdW  Elec       q    Type
REMARK                         _______ _______ _______ _____ _____    ______ ____
ROOT
ATOM      1  C   UNL     1       2.380   7.669  19.072  0.00  0.00    +0.000 A 
ATOM      2  C   UNL     1       1.641   7.561  20.246  0.00  0.00    +0.000 A 
ATOM      3  C   UNL     1       1.296   6.306  20.743  0.00  0.00    +0.000 A 
ATOM      4  C   UNL     1       1.713   5.135  20.092  0.00  0.00    +0.000 A 
ATOM      5  C   UNL     1       1.253   3.806  20.626  0.00  0.00    +0.000 C 
ATOM      6  C   UNL     1       2.519   5.257  18.941  0.00  0.00    +0.000 A 
ATOM      7  C   UNL     1       2.828   6.519  18.417  0.00  0.00    +0.000 A 
ENDROOT
BRANCH   1  10
ATOM      8  C   UNL     1       1.700   9.803  18.051  0.00  0.00    +0.000 C 
ATOM      9  O   UNL     1       2.055  10.787  17.400  0.00  0.00    +0.000 OA
ATOM     10  N   UNL     1       2.653   8.939  18.555  0.00  0.00    +0.000 N 
ATOM     11  H   UNL     1       3.579   9.101  18.174  0.00  0.00    +0.000 HD
BRANCH   8  12
ATOM     12  C   UNL     1       0.229   9.529  18.388  0.00  0.00    +0.000 C 
BRANCH  12  13
ATOM     13  O   UNL     1      -0.443  10.741  18.705  0.00  0.00    +0.000 OA
BRANCH  13  19
ATOM     14  C   UNL     1      -2.764  11.637  18.795  0.00  0.00    +0.000 A 
ATOM     15  C   UNL     1      -4.007  11.669  18.130  0.00  0.00    +0.000 A 
ATOM     16  C   UNL     1      -4.242  10.924  16.975  0.00  0.00    +0.000 A 
ATOM     17  C   UNL     1      -3.222  10.153  16.439  0.00  0.00    +0.000 A 
ATOM     18  C   UNL     1      -1.964  10.156  17.042  0.00  0.00    +0.000 A 
ATOM     19  C   UNL     1      -1.711  10.910  18.203  0.00  0.00    +0.000 A 
BRANCH  14  21
ATOM     20  C   UNL     1      -3.708  13.343  20.511  0.00  0.00    +0.000 C 
ATOM     21  C   UNL     1      -2.625  12.343  20.125  0.00  0.00    +0.000 C 
ENDBRANCH  14  21
ENDBRANCH  13  19
ENDBRANCH  12  13
ENDBRANCH   8  12
ENDBRANCH   1  10
BRANCH   6  22
ATOM     22  S   UNL     1       3.125   3.783  18.128  0.00  0.00    +0.000 S 
ATOM     23  O   UNL     1       3.590   2.889  19.161  0.00  0.00    +0.000 OA
ATOM     24  O   UNL     1       2.089   3.396  17.194  0.00  0.00    +0.000 OA
BRANCH  22  25
ATOM     25  N   UNL     1       4.503   4.298  17.223  0.00  0.00    +0.000 NA
ATOM     26  C   UNL     1       5.765   4.416  17.996  0.00  0.00    +0.000 C 
ATOM     27  C   UNL     1       6.625   5.586  17.520  0.00  0.00    +0.000 C 
ATOM     28  C   UNL     1       7.448   5.313  16.268  0.00  0.00    +0.000 C 
ATOM     29  C   UNL     1       6.613   4.967  15.044  0.00  0.00    +0.000 C 
ATOM     30  C   UNL     1       5.908   3.627  15.191  0.00  0.00    +0.000 C 
ATOM     31  C   UNL     1       4.544   3.710  15.858  0.00  0.00    +0.000 C 
ENDBRANCH  22  25
ENDBRANCH   6  22
TORSDOF 7
ENDMDL
MODEL 8
REMARK VINA RESULT:      -7.9      3.978      8.558
REMARK  Name = 
REMARK  9 active torsions:
REMARK  status: ('A' for Active; 'I' for Inactive)
REMARK    1  A    between atoms: C_1  and  C_2
REMARK    2  A    between atoms: C_2  and  C_3
REMARK    3  A    between atoms: C_8  and  O_9
REMARK    4  A    between atoms: O_9  and  C_10
REMARK    5  A    between atoms: C_10  and  C_11
REMARK    6  A    between atoms: N_13  and  C_14
REMARK    7  A    between atoms: C_17  and  C_18
REMARK    8  A    between atoms: C_19  and  S_20
REMARK    9  A    between atoms: S_20  and  N_23
REMARK                            x       y       z     vdW  Elec       q    Type
REMARK                         _______ _______ _______ _____ _____    ______ ____
ROOT
ATOM      1  C   UNL     1       0.996  10.282  18.213  0.00  0.00    +0.000 A 
ATOM      2  C   UNL     1      -0.307   9.795  18.210  0.00  0.00    +0.000 A 
ATOM      3  C   UNL     1      -1.299  10.446  18.942  0.00  0.00    +0.000 A 
ATOM      4  C   UNL     1      -1.012  11.615  19.662  0.00  0.00    +0.000 A 
ATOM      5  C   UNL     1      -2.098  12.238  20.495  0.00  0.00    +0.000 C 
ATOM      6  C   UNL     1       0.297  12.136  19.602  0.00  0.00    +0.000 A 
ATOM      7  C   UNL     1       1.304  11.457  18.902  0.00  0.00    +0.000 A 
ENDROOT
BRANCH   1  10
ATOM      8  C   UNL     1       2.643   8.463  18.028  0.00  0.00    +0.000 C 
ATOM      9  O   UNL     1       3.662   8.055  17.466  0.00  0.00    +0.000 OA
ATOM     10  N   UNL     1       1.988   9.572  17.529  0.00  0.00    +0.000 N 
ATOM     11  H   UNL     1       2.526  10.073  16.831  0.00  0.00    +0.000 HD
BRANCH   8  12
ATOM     12  C   UNL     1       2.027   7.742  19.234  0.00  0.00    +0.000 C 
BRANCH  12  13
ATOM     13  O   UNL     1       2.870   6.682  19.664  0.00  0.00    +0.000 OA
BRANCH  13  19
ATOM     14  C   UNL     1       2.669   4.509  18.465  0.00  0.00    +0.000 A 
ATOM     15  C   UNL     1       2.059   3.238  18.490  0.00  0.00    +0.000 A 
ATOM     16  C   UNL     1       1.127   2.889  19.467  0.00  0.00    +0.000 A 
ATOM     17  C   UNL     1       0.807   3.799  20.463  0.00  0.00    +0.000 A 
ATOM     18  C   UNL     1       1.445   5.039  20.497  0.00  0.00    +0.000 A 
ATOM     19  C   UNL     1       2.395   5.400  19.523  0.00  0.00    +0.000 A 
BRANCH  14  21
ATOM     20  C   UNL     1       4.579   3.849  16.832  0.00  0.00    +0.000 C 
ATOM     21  C   UNL     1       3.552   4.876  17.293  0.00  0.00    +0.000 C 
ENDBRANCH  14  21
ENDBRANCH  13  19
ENDBRANCH  12  13
ENDBRANCH   8  12
ENDBRANCH   1  10
BRANCH   6  22
ATOM     22  S   UNL     1       0.680  13.663  20.452  0.00  0.00    +0.000 S 
ATOM     23  O   UNL     1      -0.311  14.633  20.048  0.00  0.00    +0.000 OA
ATOM     24  O   UNL     1       0.872  13.302  21.840  0.00  0.00    +0.000 OA
BRANCH  22  25
ATOM     25  N   UNL     1       2.201  14.172  19.810  0.00  0.00    +0.000 NA
ATOM     26  C   UNL     1       2.137  15.271  18.814  0.00  0.00    +0.000 C 
ATOM     27  C   UNL     1       3.184  15.111  17.712  0.00  0.00    +0.000 C 
ATOM     28  C   UNL     1       4.587  15.568  18.087  0.00  0.00    +0.000 C 
ATOM     29  C   UNL     1       5.191  14.810  19.261  0.00  0.00    +0.000 C 
ATOM     30  C   UNL     1       4.463  15.100  20.565  0.00  0.00    +0.000 C 
ATOM     31  C   UNL     1       3.278  14.187  20.835  0.00  0.00    +0.000 C 
ENDBRANCH  22  25
ENDBRANCH   6  22
TORSDOF 7
ENDMDL
MODEL 9
REMARK VINA RESULT:      -7.9      1.637      2.325
REMARK  Name = 
REMARK  9 active torsions:
REMARK  status: ('A' for Active; 'I' for Inactive)
REMARK    1  A    between atoms: C_1  and  C_2
REMARK    2  A    between atoms: C_2  and  C_3
REMARK    3  A    between atoms: C_8  and  O_9
REMARK    4  A    between atoms: O_9  and  C_10
REMARK    5  A    between atoms: C_10  and  C_11
REMARK    6  A    between atoms: N_13  and  C_14
REMARK    7  A    between atoms: C_17  and  C_18
REMARK    8  A    between atoms: C_19  and  S_20
REMARK    9  A    between atoms: S_20  and  N_23
REMARK                            x       y       z     vdW  Elec       q    Type
REMARK                         _______ _______ _______ _____ _____    ______ ____
ROOT
ATOM      1  C   UNL     1       2.619   7.068  18.950  0.00  0.00    +0.000 A 
ATOM      2  C   UNL     1       1.874   7.049  20.125  0.00  0.00    +0.000 A 
ATOM      3  C   UNL     1       1.737   5.865  20.849  0.00  0.00    +0.000 A 
ATOM      4  C   UNL     1       2.372   4.687  20.427  0.00  0.00    +0.000 A 
ATOM      5  C   UNL     1       2.134   3.419  21.200  0.00  0.00    +0.000 C 
ATOM      6  C   UNL     1       3.181   4.736  19.272  0.00  0.00    +0.000 A 
ATOM      7  C   UNL     1       3.281   5.916  18.521  0.00  0.00    +0.000 A 
ENDROOT
BRANCH   1  10
ATOM      8  C   UNL     1       1.755   9.271  18.274  0.00  0.00    +0.000 C 
ATOM      9  O   UNL     1       1.757  10.153  17.413  0.00  0.00    +0.000 OA
ATOM     10  N   UNL     1       2.683   8.250  18.206  0.00  0.00    +0.000 N 
ATOM     11  H   UNL     1       3.179   8.221  17.322  0.00  0.00    +0.000 HD
BRANCH   8  12
ATOM     12  C   UNL     1       0.795   9.295  19.470  0.00  0.00    +0.000 C 
BRANCH  12  13
ATOM     13  O   UNL     1       1.030  10.442  20.274  0.00  0.00    +0.000 OA
BRANCH  13  19
ATOM     14  C   UNL     1      -0.898  11.991  20.558  0.00  0.00    +0.000 A 
ATOM     15  C   UNL     1      -1.925  12.394  21.437  0.00  0.00    +0.000 A 
ATOM     16  C   UNL     1      -2.040  11.869  22.724  0.00  0.00    +0.000 A 
ATOM     17  C   UNL     1      -1.143  10.902  23.150  0.00  0.00    +0.000 A 
ATOM     18  C   UNL     1      -0.158  10.440  22.277  0.00  0.00    +0.000 A 
ATOM     19  C   UNL     1      -0.037  10.955  20.972  0.00  0.00    +0.000 A 
BRANCH  14  21
ATOM     20  C   UNL     1      -1.466  12.138  18.028  0.00  0.00    +0.000 C 
ATOM     21  C   UNL     1      -0.738  12.710  19.238  0.00  0.00    +0.000 C 
ENDBRANCH  14  21
ENDBRANCH  13  19
ENDBRANCH  12  13
ENDBRANCH   8  12
ENDBRANCH   1  10
BRANCH   6  22
ATOM     22  S   UNL     1       4.060   3.270  18.747  0.00  0.00    +0.000 S 
ATOM     23  O   UNL     1       4.825   2.805  19.880  0.00  0.00    +0.000 OA
ATOM     24  O   UNL     1       3.074   2.432  18.098  0.00  0.00    +0.000 OA
BRANCH  22  25
ATOM     25  N   UNL     1       5.179   3.815  17.549  0.00  0.00    +0.000 NA
ATOM     26  C   UNL     1       4.574   4.265  16.271  0.00  0.00    +0.000 C 
ATOM     27  C   UNL     1       5.441   3.904  15.064  0.00  0.00    +0.000 C 
ATOM     28  C   UNL     1       6.612   4.843  14.810  0.00  0.00    +0.000 C 
ATOM     29  C   UNL     1       7.612   4.908  15.957  0.00  0.00    +0.000 C 
ATOM     30  C   UNL     1       7.018   5.559  17.197  0.00  0.00    +0.000 C 
ATOM     31  C   UNL     1       6.306   4.592  18.129  0.00  0.00    +0.000 C 
ENDBRANCH  22  25
ENDBRANCH   6  22
TORSDOF 7
ENDMDL
