MODEL 1
REMARK VINA RESULT:      -6.9      0.000      0.000
REMARK  Name = 
REMARK  4 active torsions:
REMARK  status: ('A' for Active; 'I' for Inactive)
REMARK    1  A    between atoms: C_2  and  C_23
REMARK    2  A    between atoms: N_3  and  C_4
REMARK    3  A    between atoms: C_5  and  C_6
REMARK    4  A    between atoms: N_16  and  C_17
REMARK                            x       y       z     vdW  Elec       q    Type
REMARK                         _______ _______ _______ _____ _____    ______ ____
ROOT
ATOM      1  C   UNL     1       4.007   5.100  17.980  0.00  0.00    +0.000 A 
ATOM      2  C   UNL     1       4.972   5.026  16.990  0.00  0.00    +0.000 A 
ATOM      3  C   UNL     1       5.139   3.636  16.803  0.00  0.00    +0.000 A 
ATOM      4  N   UNL     1       4.350   2.896  17.577  0.00  0.00    +0.000 NA
ATOM      5  N   UNL     1       3.650   3.801  18.307  0.00  0.00    +0.000 N 
ENDROOT
BRANCH   2   6
ATOM      6  C   UNL     1       5.719   6.147  16.452  0.00  0.00    +0.000 C 
ATOM      7  O   UNL     1       5.282   6.748  15.474  0.00  0.00    +0.000 OA
ATOM      8  N   UNL     1       6.908   6.526  17.060  0.00  0.00    +0.000 N 
ATOM      9  C   UNL     1       7.727   5.763  18.011  0.00  0.00    +0.000 C 
ATOM     10  C   UNL     1       8.057   6.637  19.222  0.00  0.00    +0.000 C 
ATOM     11  O   UNL     1       8.731   7.836  18.805  0.00  0.00    +0.000 OA
ATOM     12  C   UNL     1       7.918   8.601  17.896  0.00  0.00    +0.000 C 
ATOM     13  C   UNL     1       7.554   7.779  16.653  0.00  0.00    +0.000 C 
ENDBRANCH   2   6
BRANCH   5  14
ATOM     14  C   UNL     1       2.671   3.361  19.232  0.00  0.00    +0.000 A 
ATOM     15  C   UNL     1       3.024   3.267  20.583  0.00  0.00    +0.000 A 
ATOM     16  C   UNL     1       2.086   2.875  21.518  0.00  0.00    +0.000 A 
ATOM     17  C   UNL     1       0.794   2.536  21.107  0.00  0.00    +0.000 A 
ATOM     18  C   UNL     1       0.447   2.600  19.757  0.00  0.00    +0.000 A 
ATOM     19  C   UNL     1       1.376   3.029  18.810  0.00  0.00    +0.000 A 
ENDBRANCH   5  14
BRANCH   1  22
ATOM     20  O   UNL     1       1.561   6.232  17.464  0.00  0.00    +0.000 OA
ATOM     21  C   UNL     1       2.263   6.778  18.293  0.00  0.00    +0.000 C 
ATOM     22  N   UNL     1       3.572   6.267  18.595  0.00  0.00    +0.000 N 
ATOM     23  H   UNL     1       4.111   6.646  19.362  0.00  0.00    +0.000 HD
BRANCH  21  24
ATOM     24  C   UNL     1       1.855   8.013  19.015  0.00  0.00    +0.000 A 
ATOM     25  C   UNL     1       1.786   9.237  18.336  0.00  0.00    +0.000 A 
ATOM     26  C   UNL     1       1.418  10.395  19.028  0.00  0.00    +0.000 A 
ATOM     27  C   UNL     1       1.123  10.337  20.392  0.00  0.00    +0.000 A 
ATOM     28  C   UNL     1       1.191   9.122  21.069  0.00  0.00    +0.000 A 
ATOM     29  C   UNL     1       1.554   7.974  20.379  0.00  0.00    +0.000 A 
ATOM     30  F   UNL     1       1.618   6.816  21.058  0.00  0.00    +0.000 F 
ENDBRANCH  21  24
ENDBRANCH   1  22
TORSDOF 4
ENDMDL
MODEL 2
REMARK VINA RESULT:      -6.9      0.857      1.240
REMARK  Name = 
REMARK  4 active torsions:
REMARK  status: ('A' for Active; 'I' for Inactive)
REMARK    1  A    between atoms: C_2  and  C_23
REMARK    2  A    between atoms: N_3  and  C_4
REMARK    3  A    between atoms: C_5  and  C_6
REMARK    4  A    between atoms: N_16  and  C_17
REMARK                            x       y       z     vdW  Elec       q    Type
REMARK                         _______ _______ _______ _____ _____    ______ ____
ROOT
ATOM      1  C   UNL     1       3.996   5.093  18.010  0.00  0.00    +0.000 A 
ATOM      2  C   UNL     1       4.939   5.054  16.996  0.00  0.00    +0.000 A 
ATOM      3  C   UNL     1       5.101   3.672  16.757  0.00  0.00    +0.000 A 
ATOM      4  N   UNL     1       4.329   2.905  17.522  0.00  0.00    +0.000 NA
ATOM      5  N   UNL     1       3.646   3.783  18.299  0.00  0.00    +0.000 N 
ENDROOT
BRANCH   2   6
ATOM      6  C   UNL     1       5.673   6.194  16.481  0.00  0.00    +0.000 C 
ATOM      7  O   UNL     1       5.215   6.828  15.533  0.00  0.00    +0.000 OA
ATOM      8  N   UNL     1       6.874   6.554  17.077  0.00  0.00    +0.000 N 
ATOM      9  C   UNL     1       7.714   5.759  17.983  0.00  0.00    +0.000 C 
ATOM     10  C   UNL     1       8.069   6.592  19.216  0.00  0.00    +0.000 C 
ATOM     11  O   UNL     1       8.734   7.805  18.826  0.00  0.00    +0.000 OA
ATOM     12  C   UNL     1       7.901   8.600  17.961  0.00  0.00    +0.000 C 
ATOM     13  C   UNL     1       7.512   7.821  16.699  0.00  0.00    +0.000 C 
ENDBRANCH   2   6
BRANCH   5  14
ATOM     14  C   UNL     1       2.687   3.311  19.230  0.00  0.00    +0.000 A 
ATOM     15  C   UNL     1       3.058   3.208  20.575  0.00  0.00    +0.000 A 
ATOM     16  C   UNL     1       2.141   2.785  21.517  0.00  0.00    +0.000 A 
ATOM     17  C   UNL     1       0.851   2.422  21.116  0.00  0.00    +0.000 A 
ATOM     18  C   UNL     1       0.488   2.494  19.772  0.00  0.00    +0.000 A 
ATOM     19  C   UNL     1       1.396   2.955  18.819  0.00  0.00    +0.000 A 
ENDBRANCH   5  14
BRANCH   1  22
ATOM     20  O   UNL     1       1.523   6.217  17.621  0.00  0.00    +0.000 OA
ATOM     21  C   UNL     1       2.251   6.745  18.438  0.00  0.00    +0.000 C 
ATOM     22  N   UNL     1       3.575   6.238  18.674  0.00  0.00    +0.000 N 
ATOM     23  H   UNL     1       4.139   6.600  19.431  0.00  0.00    +0.000 HD
BRANCH  21  24
ATOM     24  C   UNL     1       1.861   7.954  19.210  0.00  0.00    +0.000 A 
ATOM     25  C   UNL     1       1.640   7.869  20.592  0.00  0.00    +0.000 A 
ATOM     26  C   UNL     1       1.256   9.009  21.305  0.00  0.00    +0.000 A 
ATOM     27  C   UNL     1       1.089  10.229  20.646  0.00  0.00    +0.000 A 
ATOM     28  C   UNL     1       1.307  10.317  19.274  0.00  0.00    +0.000 A 
ATOM     29  C   UNL     1       1.691   9.184  18.569  0.00  0.00    +0.000 A 
ATOM     30  F   UNL     1       1.888   9.295  17.245  0.00  0.00    +0.000 F 
ENDBRANCH  21  24
ENDBRANCH   1  22
TORSDOF 4
ENDMDL
MODEL 3
REMARK VINA RESULT:      -6.7      4.901      8.107
REMARK  Name = 
REMARK  4 active torsions:
REMARK  status: ('A' for Active; 'I' for Inactive)
REMARK    1  A    between atoms: C_2  and  C_23
REMARK    2  A    between atoms: N_3  and  C_4
REMARK    3  A    between atoms: C_5  and  C_6
REMARK    4  A    between atoms: N_16  and  C_17
REMARK                            x       y       z     vdW  Elec       q    Type
REMARK                         _______ _______ _______ _____ _____    ______ ____
ROOT
ATOM      1  C   UNL     1       0.046   9.705  21.090  0.00  0.00    +0.000 A 
ATOM      2  C   UNL     1       0.023  10.395  22.291  0.00  0.00    +0.000 A 
ATOM      3  C   UNL     1       1.155   9.897  22.972  0.00  0.00    +0.000 A 
ATOM      4  N   UNL     1       1.843   8.996  22.276  0.00  0.00    +0.000 NA
ATOM      5  N   UNL     1       1.156   8.874  21.112  0.00  0.00    +0.000 N 
ENDROOT
BRANCH   2   6
ATOM      6  C   UNL     1      -1.042  11.271  22.743  0.00  0.00    +0.000 C 
ATOM      7  O   UNL     1      -1.984  10.797  23.373  0.00  0.00    +0.000 OA
ATOM      8  N   UNL     1      -0.969  12.628  22.465  0.00  0.00    +0.000 N 
ATOM      9  C   UNL     1      -0.112  13.311  21.486  0.00  0.00    +0.000 C 
ATOM     10  C   UNL     1       0.600  14.487  22.158  0.00  0.00    +0.000 C 
ATOM     11  O   UNL     1      -0.359  15.392  22.728  0.00  0.00    +0.000 OA
ATOM     12  C   UNL     1      -1.180  14.733  23.709  0.00  0.00    +0.000 C 
ATOM     13  C   UNL     1      -1.928  13.542  23.095  0.00  0.00    +0.000 C 
ENDBRANCH   2   6
BRANCH   5  14
ATOM     14  C   UNL     1       1.629   8.008  20.096  0.00  0.00    +0.000 A 
ATOM     15  C   UNL     1       1.762   6.646  20.390  0.00  0.00    +0.000 A 
ATOM     16  C   UNL     1       2.188   5.765  19.415  0.00  0.00    +0.000 A 
ATOM     17  C   UNL     1       2.522   6.243  18.145  0.00  0.00    +0.000 A 
ATOM     18  C   UNL     1       2.419   7.603  17.857  0.00  0.00    +0.000 A 
ATOM     19  C   UNL     1       1.956   8.495  18.823  0.00  0.00    +0.000 A 
ENDBRANCH   5  14
BRANCH   1  22
ATOM     20  O   UNL     1       0.182  11.424  18.956  0.00  0.00    +0.000 OA
ATOM     21  C   UNL     1      -0.772  10.672  19.004  0.00  0.00    +0.000 C 
ATOM     22  N   UNL     1      -0.935   9.766  20.109  0.00  0.00    +0.000 N 
ATOM     23  H   UNL     1      -1.660   9.062  20.096  0.00  0.00    +0.000 HD
BRANCH  21  24
ATOM     24  C   UNL     1      -1.846  10.658  17.976  0.00  0.00    +0.000 A 
ATOM     25  C   UNL     1      -1.733   9.834  16.848  0.00  0.00    +0.000 A 
ATOM     26  C   UNL     1      -2.740   9.841  15.879  0.00  0.00    +0.000 A 
ATOM     27  C   UNL     1      -3.856  10.668  16.029  0.00  0.00    +0.000 A 
ATOM     28  C   UNL     1      -3.971  11.488  17.148  0.00  0.00    +0.000 A 
ATOM     29  C   UNL     1      -2.971  11.476  18.110  0.00  0.00    +0.000 A 
ATOM     30  F   UNL     1      -3.104  12.282  19.177  0.00  0.00    +0.000 F 
ENDBRANCH  21  24
ENDBRANCH   1  22
TORSDOF 4
ENDMDL
MODEL 4
REMARK VINA RESULT:      -6.7      5.916      9.711
REMARK  Name = 
REMARK  4 active torsions:
REMARK  status: ('A' for Active; 'I' for Inactive)
REMARK    1  A    between atoms: C_2  and  C_23
REMARK    2  A    between atoms: N_3  and  C_4
REMARK    3  A    between atoms: C_5  and  C_6
REMARK    4  A    between atoms: N_16  and  C_17
REMARK                            x       y       z     vdW  Elec       q    Type
REMARK                         _______ _______ _______ _____ _____    ______ ____
ROOT
ATOM      1  C   UNL     1       0.038  11.783  21.225  0.00  0.00    +0.000 A 
ATOM      2  C   UNL     1      -0.686  12.017  22.382  0.00  0.00    +0.000 A 
ATOM      3  C   UNL     1      -0.960  10.716  22.860  0.00  0.00    +0.000 A 
ATOM      4  N   UNL     1      -0.449   9.750  22.102  0.00  0.00    +0.000 NA
ATOM      5  N   UNL     1       0.167  10.410  21.087  0.00  0.00    +0.000 N 
ENDROOT
BRANCH   2   6
ATOM      6  C   UNL     1      -1.166  13.309  22.833  0.00  0.00    +0.000 C 
ATOM      7  O   UNL     1      -0.357  14.152  23.214  0.00  0.00    +0.000 OA
ATOM      8  N   UNL     1      -2.529  13.572  22.814  0.00  0.00    +0.000 N 
ATOM      9  C   UNL     1      -3.638  12.616  22.697  0.00  0.00    +0.000 C 
ATOM     10  C   UNL     1      -4.605  13.082  21.607  0.00  0.00    +0.000 C 
ATOM     11  O   UNL     1      -5.089  14.403  21.899  0.00  0.00    +0.000 OA
ATOM     12  C   UNL     1      -4.006  15.348  21.985  0.00  0.00    +0.000 C 
ATOM     13  C   UNL     1      -2.999  14.939  23.067  0.00  0.00    +0.000 C 
ENDBRANCH   2   6
BRANCH   5  14
ATOM     14  C   UNL     1       0.863   9.684  20.089  0.00  0.00    +0.000 A 
ATOM     15  C   UNL     1       1.475   8.477  20.447  0.00  0.00    +0.000 A 
ATOM     16  C   UNL     1       2.133   7.725  19.493  0.00  0.00    +0.000 A 
ATOM     17  C   UNL     1       2.218   8.190  18.178  0.00  0.00    +0.000 A 
ATOM     18  C   UNL     1       1.634   9.406  17.824  0.00  0.00    +0.000 A 
ATOM     19  C   UNL     1       0.937  10.156  18.771  0.00  0.00    +0.000 A 
ENDBRANCH   5  14
BRANCH   1  22
ATOM     20  O   UNL     1       2.450  13.076  21.434  0.00  0.00    +0.000 OA
ATOM     21  C   UNL     1       1.746  13.364  20.486  0.00  0.00    +0.000 C 
ATOM     22  N   UNL     1       0.452  12.757  20.325  0.00  0.00    +0.000 N 
ATOM     23  H   UNL     1      -0.085  12.904  19.482  0.00  0.00    +0.000 HD
BRANCH  21  24
ATOM     24  C   UNL     1       2.133  14.373  19.466  0.00  0.00    +0.000 A 
ATOM     25  C   UNL     1       3.137  14.083  18.532  0.00  0.00    +0.000 A 
ATOM     26  C   UNL     1       3.505  15.046  17.587  0.00  0.00    +0.000 A 
ATOM     27  C   UNL     1       2.879  16.295  17.573  0.00  0.00    +0.000 A 
ATOM     28  C   UNL     1       1.882  16.585  18.500  0.00  0.00    +0.000 A 
ATOM     29  C   UNL     1       1.516  15.627  19.435  0.00  0.00    +0.000 A 
ATOM     30  F   UNL     1       0.556  15.936  20.322  0.00  0.00    +0.000 F 
ENDBRANCH  21  24
ENDBRANCH   1  22
TORSDOF 4
ENDMDL
MODEL 5
REMARK VINA RESULT:      -6.7      2.617      6.000
REMARK  Name = 
REMARK  4 active torsions:
REMARK  status: ('A' for Active; 'I' for Inactive)
REMARK    1  A    between atoms: C_2  and  C_23
REMARK    2  A    between atoms: N_3  and  C_4
REMARK    3  A    between atoms: C_5  and  C_6
REMARK    4  A    between atoms: N_16  and  C_17
REMARK                            x       y       z     vdW  Elec       q    Type
REMARK                         _______ _______ _______ _____ _____    ______ ____
ROOT
ATOM      1  C   UNL     1       2.031   7.065  19.385  0.00  0.00    +0.000 A 
ATOM      2  C   UNL     1       1.675   8.368  19.692  0.00  0.00    +0.000 A 
ATOM      3  C   UNL     1       0.926   8.227  20.881  0.00  0.00    +0.000 A 
ATOM      4  N   UNL     1       0.827   6.969  21.303  0.00  0.00    +0.000 NA
ATOM      5  N   UNL     1       1.509   6.249  20.376  0.00  0.00    +0.000 N 
ENDROOT
BRANCH   2   6
ATOM      6  C   UNL     1       1.900   9.528  18.850  0.00  0.00    +0.000 C 
ATOM      7  O   UNL     1       2.399   9.376  17.738  0.00  0.00    +0.000 OA
ATOM      8  N   UNL     1       1.535  10.784  19.313  0.00  0.00    +0.000 N 
ATOM      9  C   UNL     1       1.228  11.192  20.690  0.00  0.00    +0.000 C 
ATOM     10  C   UNL     1      -0.094  11.962  20.715  0.00  0.00    +0.000 C 
ATOM     11  O   UNL     1      -0.026  13.100  19.841  0.00  0.00    +0.000 OA
ATOM     12  C   UNL     1       0.245  12.701  18.485  0.00  0.00    +0.000 C 
ATOM     13  C   UNL     1       1.565  11.925  18.391  0.00  0.00    +0.000 C 
ENDBRANCH   2   6
BRANCH   5  14
ATOM     14  C   UNL     1       1.644   4.846  20.526  0.00  0.00    +0.000 A 
ATOM     15  C   UNL     1       1.078   4.015  19.553  0.00  0.00    +0.000 A 
ATOM     16  C   UNL     1       1.218   2.644  19.646  0.00  0.00    +0.000 A 
ATOM     17  C   UNL     1       1.894   2.088  20.737  0.00  0.00    +0.000 A 
ATOM     18  C   UNL     1       2.433   2.912  21.724  0.00  0.00    +0.000 A 
ATOM     19  C   UNL     1       2.328   4.298  21.619  0.00  0.00    +0.000 A 
ENDBRANCH   5  14
BRANCH   1  22
ATOM     20  O   UNL     1       4.514   5.898  19.424  0.00  0.00    +0.000 OA
ATOM     21  C   UNL     1       3.979   6.029  18.340  0.00  0.00    +0.000 C 
ATOM     22  N   UNL     1       2.693   6.663  18.232  0.00  0.00    +0.000 N 
ATOM     23  H   UNL     1       2.193   6.671  17.353  0.00  0.00    +0.000 HD
BRANCH  21  24
ATOM     24  C   UNL     1       4.610   5.597  17.066  0.00  0.00    +0.000 A 
ATOM     25  C   UNL     1       5.030   6.549  16.127  0.00  0.00    +0.000 A 
ATOM     26  C   UNL     1       5.606   6.130  14.924  0.00  0.00    +0.000 A 
ATOM     27  C   UNL     1       5.763   4.769  14.653  0.00  0.00    +0.000 A 
ATOM     28  C   UNL     1       5.347   3.821  15.584  0.00  0.00    +0.000 A 
ATOM     29  C   UNL     1       4.777   4.239  16.779  0.00  0.00    +0.000 A 
ATOM     30  F   UNL     1       4.378   3.303  17.656  0.00  0.00    +0.000 F 
ENDBRANCH  21  24
ENDBRANCH   1  22
TORSDOF 4
ENDMDL
MODEL 6
REMARK VINA RESULT:      -6.5      5.871      9.759
REMARK  Name = 
REMARK  4 active torsions:
REMARK  status: ('A' for Active; 'I' for Inactive)
REMARK    1  A    between atoms: C_2  and  C_23
REMARK    2  A    between atoms: N_3  and  C_4
REMARK    3  A    between atoms: C_5  and  C_6
REMARK    4  A    between atoms: N_16  and  C_17
REMARK                            x       y       z     vdW  Elec       q    Type
REMARK                         _______ _______ _______ _____ _____    ______ ____
ROOT
ATOM      1  C   UNL     1       0.044  11.888  21.244  0.00  0.00    +0.000 A 
ATOM      2  C   UNL     1      -0.687  12.103  22.400  0.00  0.00    +0.000 A 
ATOM      3  C   UNL     1      -0.971  10.796  22.852  0.00  0.00    +0.000 A 
ATOM      4  N   UNL     1      -0.460   9.841  22.079  0.00  0.00    +0.000 NA
ATOM      5  N   UNL     1       0.167  10.517  21.082  0.00  0.00    +0.000 N 
ENDROOT
BRANCH   2   6
ATOM      6  C   UNL     1      -1.164  13.389  22.872  0.00  0.00    +0.000 C 
ATOM      7  O   UNL     1      -0.351  14.234  23.242  0.00  0.00    +0.000 OA
ATOM      8  N   UNL     1      -2.528  13.645  22.885  0.00  0.00    +0.000 N 
ATOM      9  C   UNL     1      -3.634  12.685  22.785  0.00  0.00    +0.000 C 
ATOM     10  C   UNL     1      -4.627  13.154  21.720  0.00  0.00    +0.000 C 
ATOM     11  O   UNL     1      -5.111  14.470  22.034  0.00  0.00    +0.000 OA
ATOM     12  C   UNL     1      -4.032  15.420  22.104  0.00  0.00    +0.000 C 
ATOM     13  C   UNL     1      -2.999  15.007  23.161  0.00  0.00    +0.000 C 
ENDBRANCH   2   6
BRANCH   5  14
ATOM     14  C   UNL     1       0.865   9.806  20.074  0.00  0.00    +0.000 A 
ATOM     15  C   UNL     1       0.977  10.386  18.805  0.00  0.00    +0.000 A 
ATOM     16  C   UNL     1       1.680   9.740  17.808  0.00  0.00    +0.000 A 
ATOM     17  C   UNL     1       2.248   8.486  18.058  0.00  0.00    +0.000 A 
ATOM     18  C   UNL     1       2.112   7.892  19.312  0.00  0.00    +0.000 A 
ATOM     19  C   UNL     1       1.435   8.553  20.336  0.00  0.00    +0.000 A 
ENDBRANCH   5  14
BRANCH   1  22
ATOM     20  O   UNL     1       2.488  13.117  21.456  0.00  0.00    +0.000 OA
ATOM     21  C   UNL     1       1.778  13.448  20.526  0.00  0.00    +0.000 C 
ATOM     22  N   UNL     1       0.469  12.876  20.365  0.00  0.00    +0.000 N 
ATOM     23  H   UNL     1      -0.076  13.059  19.534  0.00  0.00    +0.000 HD
BRANCH  21  24
ATOM     24  C   UNL     1       2.176  14.476  19.528  0.00  0.00    +0.000 A 
ATOM     25  C   UNL     1       1.816  15.817  19.714  0.00  0.00    +0.000 A 
ATOM     26  C   UNL     1       2.180  16.772  18.760  0.00  0.00    +0.000 A 
ATOM     27  C   UNL     1       2.896  16.395  17.622  0.00  0.00    +0.000 A 
ATOM     28  C   UNL     1       3.255  15.063  17.434  0.00  0.00    +0.000 A 
ATOM     29  C   UNL     1       2.894  14.117  18.384  0.00  0.00    +0.000 A 
ATOM     30  F   UNL     1       3.247  12.838  18.174  0.00  0.00    +0.000 F 
ENDBRANCH  21  24
ENDBRANCH   1  22
TORSDOF 4
ENDMDL
MODEL 7
REMARK VINA RESULT:      -6.5      4.866      8.138
REMARK  Name = 
REMARK  4 active torsions:
REMARK  status: ('A' for Active; 'I' for Inactive)
REMARK    1  A    between atoms: C_2  and  C_23
REMARK    2  A    between atoms: N_3  and  C_4
REMARK    3  A    between atoms: C_5  and  C_6
REMARK    4  A    between atoms: N_16  and  C_17
REMARK                            x       y       z     vdW  Elec       q    Type
REMARK                         _______ _______ _______ _____ _____    ______ ____
ROOT
ATOM      1  C   UNL     1       0.003   9.757  21.123  0.00  0.00    +0.000 A 
ATOM      2  C   UNL     1      -0.029  10.429  22.333  0.00  0.00    +0.000 A 
ATOM      3  C   UNL     1       1.106   9.933  23.010  0.00  0.00    +0.000 A 
ATOM      4  N   UNL     1       1.806   9.051  22.302  0.00  0.00    +0.000 NA
ATOM      5  N   UNL     1       1.122   8.939  21.134  0.00  0.00    +0.000 N 
ENDROOT
BRANCH   2   6
ATOM      6  C   UNL     1      -1.105  11.286  22.796  0.00  0.00    +0.000 C 
ATOM      7  O   UNL     1      -2.046  10.792  23.411  0.00  0.00    +0.000 OA
ATOM      8  N   UNL     1      -1.043  12.650  22.543  0.00  0.00    +0.000 N 
ATOM      9  C   UNL     1      -0.188  13.359  21.582  0.00  0.00    +0.000 C 
ATOM     10  C   UNL     1       0.509  14.528  22.280  0.00  0.00    +0.000 C 
ATOM     11  O   UNL     1      -0.461  15.414  22.862  0.00  0.00    +0.000 OA
ATOM     12  C   UNL     1      -1.281  14.728  23.826  0.00  0.00    +0.000 C 
ATOM     13  C   UNL     1      -2.014  13.543  23.186  0.00  0.00    +0.000 C 
ENDBRANCH   2   6
BRANCH   5  14
ATOM     14  C   UNL     1       1.608   8.093  20.106  0.00  0.00    +0.000 A 
ATOM     15  C   UNL     1       1.791   6.735  20.392  0.00  0.00    +0.000 A 
ATOM     16  C   UNL     1       2.229   5.873  19.406  0.00  0.00    +0.000 A 
ATOM     17  C   UNL     1       2.526   6.367  18.133  0.00  0.00    +0.000 A 
ATOM     18  C   UNL     1       2.373   7.724  17.853  0.00  0.00    +0.000 A 
ATOM     19  C   UNL     1       1.897   8.596  18.831  0.00  0.00    +0.000 A 
ENDBRANCH   5  14
BRANCH   1  22
ATOM     20  O   UNL     1       0.092  11.553  19.050  0.00  0.00    +0.000 OA
ATOM     21  C   UNL     1      -0.839  10.771  19.068  0.00  0.00    +0.000 C 
ATOM     22  N   UNL     1      -0.976   9.822  20.139  0.00  0.00    +0.000 N 
ATOM     23  H   UNL     1      -1.679   9.097  20.100  0.00  0.00    +0.000 HD
BRANCH  21  24
ATOM     24  C   UNL     1      -1.908  10.759  18.036  0.00  0.00    +0.000 A 
ATOM     25  C   UNL     1      -3.031  11.588  18.172  0.00  0.00    +0.000 A 
ATOM     26  C   UNL     1      -4.039  11.556  17.205  0.00  0.00    +0.000 A 
ATOM     27  C   UNL     1      -3.934  10.700  16.105  0.00  0.00    +0.000 A 
ATOM     28  C   UNL     1      -2.820   9.876  15.968  0.00  0.00    +0.000 A 
ATOM     29  C   UNL     1      -1.820   9.911  16.929  0.00  0.00    +0.000 A 
ATOM     30  F   UNL     1      -0.760   9.100  16.774  0.00  0.00    +0.000 F 
ENDBRANCH  21  24
ENDBRANCH   1  22
TORSDOF 4
ENDMDL
MODEL 8
REMARK VINA RESULT:      -6.5      8.394     12.073
REMARK  Name = 
REMARK  4 active torsions:
REMARK  status: ('A' for Active; 'I' for Inactive)
REMARK    1  A    between atoms: C_2  and  C_23
REMARK    2  A    between atoms: N_3  and  C_4
REMARK    3  A    between atoms: C_5  and  C_6
REMARK    4  A    between atoms: N_16  and  C_17
REMARK                            x       y       z     vdW  Elec       q    Type
REMARK                         _______ _______ _______ _____ _____    ______ ____
ROOT
ATOM      1  C   UNL     1      -3.970  14.101  21.332  0.00  0.00    +0.000 A 
ATOM      2  C   UNL     1      -3.753  13.721  22.647  0.00  0.00    +0.000 A 
ATOM      3  C   UNL     1      -4.262  14.811  23.386  0.00  0.00    +0.000 A 
ATOM      4  N   UNL     1      -4.770  15.779  22.628  0.00  0.00    +0.000 NA
ATOM      5  N   UNL     1      -4.587  15.342  21.357  0.00  0.00    +0.000 N 
ENDROOT
BRANCH   2   6
ATOM      6  C   UNL     1      -3.011  12.552  23.078  0.00  0.00    +0.000 C 
ATOM      7  O   UNL     1      -3.601  11.646  23.662  0.00  0.00    +0.000 OA
ATOM      8  N   UNL     1      -1.651  12.474  22.811  0.00  0.00    +0.000 N 
ATOM      9  C   UNL     1      -0.738  13.556  22.419  0.00  0.00    +0.000 C 
ATOM     10  C   UNL     1       0.071  13.126  21.194  0.00  0.00    +0.000 C 
ATOM     11  O   UNL     1       0.793  11.915  21.471  0.00  0.00    +0.000 OA
ATOM     12  C   UNL     1      -0.102  10.845  21.826  0.00  0.00    +0.000 C 
ATOM     13  C   UNL     1      -0.943  11.212  23.056  0.00  0.00    +0.000 C 
ENDBRANCH   2   6
BRANCH   5  14
ATOM     14  C   UNL     1      -5.048  16.120  20.266  0.00  0.00    +0.000 A 
ATOM     15  C   UNL     1      -4.388  17.320  19.978  0.00  0.00    +0.000 A 
ATOM     16  C   UNL     1      -4.787  18.088  18.901  0.00  0.00    +0.000 A 
ATOM     17  C   UNL     1      -5.875  17.682  18.123  0.00  0.00    +0.000 A 
ATOM     18  C   UNL     1      -6.553  16.502  18.425  0.00  0.00    +0.000 A 
ATOM     19  C   UNL     1      -6.136  15.702  19.488  0.00  0.00    +0.000 A 
ENDBRANCH   5  14
BRANCH   1  22
ATOM     20  O   UNL     1      -5.422  12.070  20.194  0.00  0.00    +0.000 OA
ATOM     21  C   UNL     1      -4.374  12.372  19.657  0.00  0.00    +0.000 C 
ATOM     22  N   UNL     1      -3.538  13.402  20.212  0.00  0.00    +0.000 N 
ATOM     23  H   UNL     1      -2.728  13.737  19.709  0.00  0.00    +0.000 HD
BRANCH  21  24
ATOM     24  C   UNL     1      -3.861  11.692  18.439  0.00  0.00    +0.000 A 
ATOM     25  C   UNL     1      -2.609  11.061  18.457  0.00  0.00    +0.000 A 
ATOM     26  C   UNL     1      -2.129  10.439  17.300  0.00  0.00    +0.000 A 
ATOM     27  C   UNL     1      -2.889  10.447  16.128  0.00  0.00    +0.000 A 
ATOM     28  C   UNL     1      -4.132  11.073  16.108  0.00  0.00    +0.000 A 
ATOM     29  C   UNL     1      -4.608  11.688  17.258  0.00  0.00    +0.000 A 
ATOM     30  F   UNL     1      -5.808  12.290  17.208  0.00  0.00    +0.000 F 
ENDBRANCH  21  24
ENDBRANCH   1  22
TORSDOF 4
ENDMDL
MODEL 9
REMARK VINA RESULT:      -6.4      5.790     10.557
REMARK  Name = 
REMARK  4 active torsions:
REMARK  status: ('A' for Active; 'I' for Inactive)
REMARK    1  A    between atoms: C_2  and  C_23
REMARK    2  A    between atoms: N_3  and  C_4
REMARK    3  A    between atoms: C_5  and  C_6
REMARK    4  A    between atoms: N_16  and  C_17
REMARK                            x       y       z     vdW  Elec       q    Type
REMARK                         _______ _______ _______ _____ _____    ______ ____
ROOT
ATOM      1  C   UNL     1       0.876  13.374  21.021  0.00  0.00    +0.000 A 
ATOM      2  C   UNL     1      -0.183  13.671  21.862  0.00  0.00    +0.000 A 
ATOM      3  C   UNL     1      -0.138  15.079  21.956  0.00  0.00    +0.000 A 
ATOM      4  N   UNL     1       0.836  15.630  21.237  0.00  0.00    +0.000 NA
ATOM      5  N   UNL     1       1.466  14.576  20.659  0.00  0.00    +0.000 N 
ENDROOT
BRANCH   2   6
ATOM      6  C   UNL     1      -0.990  12.702  22.580  0.00  0.00    +0.000 C 
ATOM      7  O   UNL     1      -0.446  11.726  23.092  0.00  0.00    +0.000 OA
ATOM      8  N   UNL     1      -2.359  12.902  22.684  0.00  0.00    +0.000 N 
ATOM      9  C   UNL     1      -3.208  13.808  21.899  0.00  0.00    +0.000 C 
ATOM     10  C   UNL     1      -4.082  14.639  22.841  0.00  0.00    +0.000 C 
ATOM     11  O   UNL     1      -4.875  13.780  23.676  0.00  0.00    +0.000 OA
ATOM     12  C   UNL     1      -4.044  12.912  24.469  0.00  0.00    +0.000 C 
ATOM     13  C   UNL     1      -3.143  12.045  23.581  0.00  0.00    +0.000 C 
ENDBRANCH   2   6
BRANCH   5  14
ATOM     14  C   UNL     1       2.554  14.795  19.779  0.00  0.00    +0.000 A 
ATOM     15  C   UNL     1       3.844  14.863  20.318  0.00  0.00    +0.000 A 
ATOM     16  C   UNL     1       4.933  15.041  19.488  0.00  0.00    +0.000 A 
ATOM     17  C   UNL     1       4.740  15.191  18.111  0.00  0.00    +0.000 A 
ATOM     18  C   UNL     1       3.454  15.153  17.574  0.00  0.00    +0.000 A 
ATOM     19  C   UNL     1       2.351  14.938  18.400  0.00  0.00    +0.000 A 
ENDBRANCH   5  14
BRANCH   1  22
ATOM     20  O   UNL     1      -0.156  11.920  18.936  0.00  0.00    +0.000 OA
ATOM     21  C   UNL     1       0.746  11.413  19.573  0.00  0.00    +0.000 C 
ATOM     22  N   UNL     1       1.317  12.096  20.702  0.00  0.00    +0.000 N 
ATOM     23  H   UNL     1       2.141  11.734  21.162  0.00  0.00    +0.000 HD
BRANCH  21  24
ATOM     24  C   UNL     1       1.292  10.063  19.274  0.00  0.00    +0.000 A 
ATOM     25  C   UNL     1       1.850   9.789  18.018  0.00  0.00    +0.000 A 
ATOM     26  C   UNL     1       2.344   8.511  17.742  0.00  0.00    +0.000 A 
ATOM     27  C   UNL     1       2.281   7.506  18.711  0.00  0.00    +0.000 A 
ATOM     28  C   UNL     1       1.728   7.776  19.960  0.00  0.00    +0.000 A 
ATOM     29  C   UNL     1       1.240   9.046  20.232  0.00  0.00    +0.000 A 
ATOM     30  F   UNL     1       0.705   9.277  21.442  0.00  0.00    +0.000 F 
ENDBRANCH  21  24
ENDBRANCH   1  22
TORSDOF 4
ENDMDL
