MODEL 1
REMARK VINA RESULT:      -7.3      0.000      0.000
REMARK  Name = 
REMARK  9 active torsions:
REMARK  status: ('A' for Active; 'I' for Inactive)
REMARK    1  A    between atoms: C_1  and  C_2
REMARK    2  A    between atoms: C_5  and  C_6
REMARK    3  A    between atoms: C_7  and  O_8
REMARK    4  A    between atoms: O_8  and  C_9
REMARK    5  A    between atoms: C_9  and  C_10
REMARK    6  A    between atoms: C_13  and  S_14
REMARK    7  A    between atoms: S_14  and  C_15
REMARK    8  A    between atoms: C_15  and  C_16
REMARK    9  A    between atoms: N_20  and  C_21
REMARK                            x       y       z     vdW  Elec       q    Type
REMARK                         _______ _______ _______ _____ _____    ______ ____
ROOT
ATOM      1  C   UNL     1       1.930   4.640  20.740  0.00  0.00    +0.000 A 
ATOM      2  N   UNL     1       2.207   3.737  21.661  0.00  0.00    +0.000 NA
ATOM      3  N   UNL     1       2.785   2.673  21.000  0.00  0.00    +0.000 NA
ATOM      4  C   UNL     1       2.837   2.998  19.724  0.00  0.00    +0.000 A 
ATOM      5  O   UNL     1       2.309   4.244  19.482  0.00  0.00    +0.000 OA
ENDROOT
BRANCH   1   6
ATOM      6  C   UNL     1       1.340   5.999  20.906  0.00  0.00    +0.000 C 
BRANCH   6   7
ATOM      7  O   UNL     1       2.277   6.945  20.393  0.00  0.00    +0.000 OA
BRANCH   7  14
ATOM      8  C   UNL     1      -0.370  11.174  20.508  0.00  0.00    +0.000 C 
ATOM      9  C   UNL     1       0.519  10.184  19.809  0.00  0.00    +0.000 A 
ATOM     10  C   UNL     1       0.914  10.405  18.487  0.00  0.00    +0.000 A 
ATOM     11  C   UNL     1       1.736   9.487  17.839  0.00  0.00    +0.000 A 
ATOM     12  C   UNL     1       2.178   8.331  18.501  0.00  0.00    +0.000 A 
ATOM     13  C   UNL     1       3.060   7.354  17.776  0.00  0.00    +0.000 C 
ATOM     14  C   UNL     1       1.791   8.103  19.833  0.00  0.00    +0.000 A 
ATOM     15  C   UNL     1       0.961   9.027  20.480  0.00  0.00    +0.000 A 
ENDBRANCH   7  14
ENDBRANCH   6   7
ENDBRANCH   1   6
BRANCH   4  16
ATOM     16  S   UNL     1       3.530   1.987  18.479  0.00  0.00    +0.000 S 
BRANCH  16  17
ATOM     17  C   UNL     1       3.667   3.214  17.145  0.00  0.00    +0.000 C 
BRANCH  17  18
ATOM     18  C   UNL     1       5.054   3.837  16.897  0.00  0.00    +0.000 C 
ATOM     19  C   UNL     1       5.192   4.647  15.599  0.00  0.00    +0.000 C 
ATOM     20  C   UNL     1       6.659   5.035  15.403  0.00  0.00    +0.000 C 
ATOM     21  C   UNL     1       7.242   5.735  16.637  0.00  0.00    +0.000 C 
ATOM     22  N   UNL     1       6.996   4.979  17.874  0.00  0.00    +0.000 NA
ATOM     23  C   UNL     1       7.544   5.691  19.029  0.00  0.00    +0.000 C 
ATOM     24  C   UNL     1       5.564   4.693  18.068  0.00  0.00    +0.000 C 
ENDBRANCH  17  18
ENDBRANCH  16  17
ENDBRANCH   4  16
TORSDOF 6
ENDMDL
MODEL 2
REMARK VINA RESULT:      -7.2      5.468      7.318
REMARK  Name = 
REMARK  9 active torsions:
REMARK  status: ('A' for Active; 'I' for Inactive)
REMARK    1  A    between atoms: C_1  and  C_2
REMARK    2  A    between atoms: C_5  and  C_6
REMARK    3  A    between atoms: C_7  and  O_8
REMARK    4  A    between atoms: O_8  and  C_9
REMARK    5  A    between atoms: C_9  and  C_10
REMARK    6  A    between atoms: C_13  and  S_14
REMARK    7  A    between atoms: S_14  and  C_15
REMARK    8  A    between atoms: C_15  and  C_16
REMARK    9  A    between atoms: N_20  and  C_21
REMARK                            x       y       z     vdW  Elec       q    Type
REMARK                         _______ _______ _______ _____ _____    ______ ____
ROOT
ATOM      1  C   UNL     1       8.312   8.635  18.266  0.00  0.00    +0.000 A 
ATOM      2  N   UNL     1       7.550   8.742  17.196  0.00  0.00    +0.000 NA
ATOM      3  N   UNL     1       7.078   7.474  16.926  0.00  0.00    +0.000 NA
ATOM      4  C   UNL     1       7.570   6.678  17.854  0.00  0.00    +0.000 A 
ATOM      5  O   UNL     1       8.369   7.351  18.748  0.00  0.00    +0.000 OA
ENDROOT
BRANCH   1   6
ATOM      6  C   UNL     1       9.034   9.703  19.015  0.00  0.00    +0.000 C 
BRANCH   6   7
ATOM      7  O   UNL     1       9.717  10.516  18.061  0.00  0.00    +0.000 OA
BRANCH   7  14
ATOM      8  C   UNL     1       7.337  14.889  17.712  0.00  0.00    +0.000 C 
ATOM      9  C   UNL     1       8.543  14.058  18.052  0.00  0.00    +0.000 A 
ATOM     10  C   UNL     1       9.701  14.667  18.544  0.00  0.00    +0.000 A 
ATOM     11  C   UNL     1      10.818  13.897  18.857  0.00  0.00    +0.000 A 
ATOM     12  C   UNL     1      10.798  12.505  18.684  0.00  0.00    +0.000 A 
ATOM     13  C   UNL     1      12.020  11.698  19.024  0.00  0.00    +0.000 C 
ATOM     14  C   UNL     1       9.636  11.882  18.195  0.00  0.00    +0.000 A 
ATOM     15  C   UNL     1       8.516  12.660  17.878  0.00  0.00    +0.000 A 
ENDBRANCH   7  14
ENDBRANCH   6   7
ENDBRANCH   1   6
BRANCH   4  16
ATOM     16  S   UNL     1       7.223   4.970  17.970  0.00  0.00    +0.000 S 
BRANCH  16  17
ATOM     17  C   UNL     1       5.988   4.829  16.643  0.00  0.00    +0.000 C 
BRANCH  17  18
ATOM     18  C   UNL     1       4.504   4.826  17.055  0.00  0.00    +0.000 C 
ATOM     19  C   UNL     1       3.872   3.438  17.237  0.00  0.00    +0.000 C 
ATOM     20  C   UNL     1       2.365   3.598  17.456  0.00  0.00    +0.000 C 
ATOM     21  C   UNL     1       2.046   4.580  18.591  0.00  0.00    +0.000 C 
ATOM     22  N   UNL     1       2.755   5.859  18.435  0.00  0.00    +0.000 NA
ATOM     23  C   UNL     1       2.444   6.757  19.548  0.00  0.00    +0.000 C 
ATOM     24  C   UNL     1       4.210   5.670  18.307  0.00  0.00    +0.000 C 
ENDBRANCH  17  18
ENDBRANCH  16  17
ENDBRANCH   4  16
TORSDOF 6
ENDMDL
MODEL 3
REMARK VINA RESULT:      -7.2      4.945      7.604
REMARK  Name = 
REMARK  9 active torsions:
REMARK  status: ('A' for Active; 'I' for Inactive)
REMARK    1  A    between atoms: C_1  and  C_2
REMARK    2  A    between atoms: C_5  and  C_6
REMARK    3  A    between atoms: C_7  and  O_8
REMARK    4  A    between atoms: O_8  and  C_9
REMARK    5  A    between atoms: C_9  and  C_10
REMARK    6  A    between atoms: C_13  and  S_14
REMARK    7  A    between atoms: S_14  and  C_15
REMARK    8  A    between atoms: C_15  and  C_16
REMARK    9  A    between atoms: N_20  and  C_21
REMARK                            x       y       z     vdW  Elec       q    Type
REMARK                         _______ _______ _______ _____ _____    ______ ____
ROOT
ATOM      1  C   UNL     1       7.845   8.172  17.763  0.00  0.00    +0.000 A 
ATOM      2  N   UNL     1       8.211   7.206  18.582  0.00  0.00    +0.000 NA
ATOM      3  N   UNL     1       7.436   6.110  18.260  0.00  0.00    +0.000 NA
ATOM      4  C   UNL     1       6.659   6.472  17.258  0.00  0.00    +0.000 A 
ATOM      5  O   UNL     1       6.866   7.779  16.885  0.00  0.00    +0.000 OA
ENDROOT
BRANCH   1   6
ATOM      6  C   UNL     1       8.387   9.556  17.644  0.00  0.00    +0.000 C 
BRANCH   6   7
ATOM      7  O   UNL     1       8.820   9.967  18.939  0.00  0.00    +0.000 OA
BRANCH   7  14
ATOM      8  C   UNL     1      12.182  13.116  17.019  0.00  0.00    +0.000 C 
ATOM      9  C   UNL     1      11.372  12.576  18.165  0.00  0.00    +0.000 A 
ATOM     10  C   UNL     1      11.505  13.130  19.442  0.00  0.00    +0.000 A 
ATOM     11  C   UNL     1      10.757  12.628  20.503  0.00  0.00    +0.000 A 
ATOM     12  C   UNL     1       9.864  11.563  20.308  0.00  0.00    +0.000 A 
ATOM     13  C   UNL     1       9.072  11.037  21.473  0.00  0.00    +0.000 C 
ATOM     14  C   UNL     1       9.720  11.004  19.026  0.00  0.00    +0.000 A 
ATOM     15  C   UNL     1      10.476  11.509  17.962  0.00  0.00    +0.000 A 
ENDBRANCH   7  14
ENDBRANCH   6   7
ENDBRANCH   1   6
BRANCH   4  16
ATOM     16  S   UNL     1       5.523   5.411  16.462  0.00  0.00    +0.000 S 
BRANCH  16  17
ATOM     17  C   UNL     1       5.406   4.105  17.721  0.00  0.00    +0.000 C 
BRANCH  17  18
ATOM     18  C   UNL     1       4.003   3.764  18.258  0.00  0.00    +0.000 C 
ATOM     19  C   UNL     1       3.788   2.297  18.659  0.00  0.00    +0.000 C 
ATOM     20  C   UNL     1       2.309   2.078  18.986  0.00  0.00    +0.000 C 
ATOM     21  C   UNL     1       1.790   3.087  20.019  0.00  0.00    +0.000 C 
ATOM     22  N   UNL     1       2.110   4.474  19.651  0.00  0.00    +0.000 NA
ATOM     23  C   UNL     1       1.621   5.402  20.671  0.00  0.00    +0.000 C 
ATOM     24  C   UNL     1       3.552   4.664  19.421  0.00  0.00    +0.000 C 
ENDBRANCH  17  18
ENDBRANCH  16  17
ENDBRANCH   4  16
TORSDOF 6
ENDMDL
MODEL 4
REMARK VINA RESULT:      -7.0      4.663      6.869
REMARK  Name = 
REMARK  9 active torsions:
REMARK  status: ('A' for Active; 'I' for Inactive)
REMARK    1  A    between atoms: C_1  and  C_2
REMARK    2  A    between atoms: C_5  and  C_6
REMARK    3  A    between atoms: C_7  and  O_8
REMARK    4  A    between atoms: O_8  and  C_9
REMARK    5  A    between atoms: C_9  and  C_10
REMARK    6  A    between atoms: C_13  and  S_14
REMARK    7  A    between atoms: S_14  and  C_15
REMARK    8  A    between atoms: C_15  and  C_16
REMARK    9  A    between atoms: N_20  and  C_21
REMARK                            x       y       z     vdW  Elec       q    Type
REMARK                         _______ _______ _______ _____ _____    ______ ____
ROOT
ATOM      1  C   UNL     1       6.517   5.359  18.014  0.00  0.00    +0.000 A 
ATOM      2  N   UNL     1       7.452   5.279  18.941  0.00  0.00    +0.000 NA
ATOM      3  N   UNL     1       8.121   6.485  18.923  0.00  0.00    +0.000 NA
ATOM      4  C   UNL     1       7.545   7.228  17.999  0.00  0.00    +0.000 A 
ATOM      5  O   UNL     1       6.509   6.573  17.375  0.00  0.00    +0.000 OA
ENDROOT
BRANCH   1   6
ATOM      6  C   UNL     1       5.479   4.356  17.639  0.00  0.00    +0.000 C 
BRANCH   6   7
ATOM      7  O   UNL     1       5.059   3.699  18.833  0.00  0.00    +0.000 OA
BRANCH   7  14
ATOM      8  C   UNL     1       1.485   6.544  20.844  0.00  0.00    +0.000 C 
ATOM      9  C   UNL     1       1.981   5.249  20.262  0.00  0.00    +0.000 A 
ATOM     10  C   UNL     1       1.119   4.154  20.150  0.00  0.00    +0.000 A 
ATOM     11  C   UNL     1       1.579   2.954  19.613  0.00  0.00    +0.000 A 
ATOM     12  C   UNL     1       2.907   2.827  19.181  0.00  0.00    +0.000 A 
ATOM     13  C   UNL     1       3.379   1.518  18.611  0.00  0.00    +0.000 C 
ATOM     14  C   UNL     1       3.780   3.924  19.285  0.00  0.00    +0.000 A 
ATOM     15  C   UNL     1       3.315   5.128  19.828  0.00  0.00    +0.000 A 
ENDBRANCH   7  14
ENDBRANCH   6   7
ENDBRANCH   1   6
BRANCH   4  16
ATOM     16  S   UNL     1       8.009   8.870  17.627  0.00  0.00    +0.000 S 
BRANCH  16  17
ATOM     17  C   UNL     1       8.962   9.255  19.127  0.00  0.00    +0.000 C 
BRANCH  17  18
ATOM     18  C   UNL     1       9.655  10.630  19.191  0.00  0.00    +0.000 C 
ATOM     19  C   UNL     1       9.595  11.460  17.902  0.00  0.00    +0.000 C 
ATOM     20  C   UNL     1      10.481  12.698  18.060  0.00  0.00    +0.000 C 
ATOM     21  C   UNL     1      10.143  13.493  19.327  0.00  0.00    +0.000 C 
ATOM     22  N   UNL     1      10.106  12.641  20.525  0.00  0.00    +0.000 NA
ATOM     23  C   UNL     1       9.756  13.431  21.707  0.00  0.00    +0.000 C 
ATOM     24  C   UNL     1       9.183  11.505  20.364  0.00  0.00    +0.000 C 
ENDBRANCH  17  18
ENDBRANCH  16  17
ENDBRANCH   4  16
TORSDOF 6
ENDMDL
MODEL 5
REMARK VINA RESULT:      -6.9      0.712      1.454
REMARK  Name = 
REMARK  9 active torsions:
REMARK  status: ('A' for Active; 'I' for Inactive)
REMARK    1  A    between atoms: C_1  and  C_2
REMARK    2  A    between atoms: C_5  and  C_6
REMARK    3  A    between atoms: C_7  and  O_8
REMARK    4  A    between atoms: O_8  and  C_9
REMARK    5  A    between atoms: C_9  and  C_10
REMARK    6  A    between atoms: C_13  and  S_14
REMARK    7  A    between atoms: S_14  and  C_15
REMARK    8  A    between atoms: C_15  and  C_16
REMARK    9  A    between atoms: N_20  and  C_21
REMARK                            x       y       z     vdW  Elec       q    Type
REMARK                         _______ _______ _______ _____ _____    ______ ____
ROOT
ATOM      1  C   UNL     1       2.086   4.573  20.980  0.00  0.00    +0.000 A 
ATOM      2  N   UNL     1       2.199   3.650  21.914  0.00  0.00    +0.000 NA
ATOM      3  N   UNL     1       2.828   2.573  21.323  0.00  0.00    +0.000 NA
ATOM      4  C   UNL     1       3.070   2.912  20.072  0.00  0.00    +0.000 A 
ATOM      5  O   UNL     1       2.625   4.179  19.780  0.00  0.00    +0.000 OA
ENDROOT
BRANCH   1   6
ATOM      6  C   UNL     1       1.525   5.950  21.084  0.00  0.00    +0.000 C 
BRANCH   6   7
ATOM      7  O   UNL     1       2.358   6.818  20.316  0.00  0.00    +0.000 OA
BRANCH   7  14
ATOM      8  C   UNL     1      -0.595  10.833  20.563  0.00  0.00    +0.000 C 
ATOM      9  C   UNL     1       0.381   9.946  19.841  0.00  0.00    +0.000 A 
ATOM     10  C   UNL     1       0.789  10.261  18.542  0.00  0.00    +0.000 A 
ATOM     11  C   UNL     1       1.691   9.438  17.874  0.00  0.00    +0.000 A 
ATOM     12  C   UNL     1       2.202   8.286  18.491  0.00  0.00    +0.000 A 
ATOM     13  C   UNL     1       3.170   7.412  17.744  0.00  0.00    +0.000 C 
ATOM     14  C   UNL     1       1.801   7.965  19.800  0.00  0.00    +0.000 A 
ATOM     15  C   UNL     1       0.891   8.793  20.468  0.00  0.00    +0.000 A 
ENDBRANCH   7  14
ENDBRANCH   6   7
ENDBRANCH   1   6
BRANCH   4  16
ATOM     16  S   UNL     1       3.898   1.892  18.921  0.00  0.00    +0.000 S 
BRANCH  16  17
ATOM     17  C   UNL     1       3.692   2.907  17.426  0.00  0.00    +0.000 C 
BRANCH  17  18
ATOM     18  C   UNL     1       4.725   4.023  17.181  0.00  0.00    +0.000 C 
ATOM     19  C   UNL     1       5.636   4.352  18.372  0.00  0.00    +0.000 C 
ATOM     20  C   UNL     1       6.466   5.595  18.040  0.00  0.00    +0.000 C 
ATOM     21  C   UNL     1       7.212   5.453  16.707  0.00  0.00    +0.000 C 
ATOM     22  N   UNL     1       6.324   5.033  15.614  0.00  0.00    +0.000 NA
ATOM     23  C   UNL     1       7.076   4.885  14.368  0.00  0.00    +0.000 C 
ATOM     24  C   UNL     1       5.601   3.790  15.939  0.00  0.00    +0.000 C 
ENDBRANCH  17  18
ENDBRANCH  16  17
ENDBRANCH   4  16
TORSDOF 6
ENDMDL
MODEL 6
REMARK VINA RESULT:      -6.9      5.663      7.612
REMARK  Name = 
REMARK  9 active torsions:
REMARK  status: ('A' for Active; 'I' for Inactive)
REMARK    1  A    between atoms: C_1  and  C_2
REMARK    2  A    between atoms: C_5  and  C_6
REMARK    3  A    between atoms: C_7  and  O_8
REMARK    4  A    between atoms: O_8  and  C_9
REMARK    5  A    between atoms: C_9  and  C_10
REMARK    6  A    between atoms: C_13  and  S_14
REMARK    7  A    between atoms: S_14  and  C_15
REMARK    8  A    between atoms: C_15  and  C_16
REMARK    9  A    between atoms: N_20  and  C_21
REMARK                            x       y       z     vdW  Elec       q    Type
REMARK                         _______ _______ _______ _____ _____    ______ ____
ROOT
ATOM      1  C   UNL     1       8.486   8.813  18.386  0.00  0.00    +0.000 A 
ATOM      2  N   UNL     1       7.722   9.041  17.337  0.00  0.00    +0.000 NA
ATOM      3  N   UNL     1       7.176   7.825  16.981  0.00  0.00    +0.000 NA
ATOM      4  C   UNL     1       7.630   6.936  17.842  0.00  0.00    +0.000 A 
ATOM      5  O   UNL     1       8.473   7.496  18.772  0.00  0.00    +0.000 OA
ENDROOT
BRANCH   1   6
ATOM      6  C   UNL     1       9.275   9.780  19.202  0.00  0.00    +0.000 C 
BRANCH   6   7
ATOM      7  O   UNL     1       9.041  11.085  18.674  0.00  0.00    +0.000 OA
BRANCH   7  14
ATOM      8  C   UNL     1       9.208  14.264  22.518  0.00  0.00    +0.000 C 
ATOM      9  C   UNL     1       9.704  13.757  21.192  0.00  0.00    +0.000 A 
ATOM     10  C   UNL     1      10.771  14.394  20.551  0.00  0.00    +0.000 A 
ATOM     11  C   UNL     1      11.229  13.925  19.323  0.00  0.00    +0.000 A 
ATOM     12  C   UNL     1      10.629  12.814  18.712  0.00  0.00    +0.000 A 
ATOM     13  C   UNL     1      11.140  12.333  17.383  0.00  0.00    +0.000 C 
ATOM     14  C   UNL     1       9.559  12.163  19.352  0.00  0.00    +0.000 A 
ATOM     15  C   UNL     1       9.099  12.639  20.586  0.00  0.00    +0.000 A 
ENDBRANCH   7  14
ENDBRANCH   6   7
ENDBRANCH   1   6
BRANCH   4  16
ATOM     16  S   UNL     1       7.186   5.247  17.836  0.00  0.00    +0.000 S 
BRANCH  16  17
ATOM     17  C   UNL     1       6.096   5.223  19.291  0.00  0.00    +0.000 C 
BRANCH  17  18
ATOM     18  C   UNL     1       4.585   5.054  19.039  0.00  0.00    +0.000 C 
ATOM     19  C   UNL     1       3.929   6.157  18.197  0.00  0.00    +0.000 C 
ATOM     20  C   UNL     1       2.412   5.953  18.198  0.00  0.00    +0.000 C 
ATOM     21  C   UNL     1       2.020   4.531  17.774  0.00  0.00    +0.000 C 
ATOM     22  N   UNL     1       2.750   3.504  18.532  0.00  0.00    +0.000 NA
ATOM     23  C   UNL     1       2.367   2.165  18.082  0.00  0.00    +0.000 C 
ATOM     24  C   UNL     1       4.208   3.687  18.442  0.00  0.00    +0.000 C 
ENDBRANCH  17  18
ENDBRANCH  16  17
ENDBRANCH   4  16
TORSDOF 6
ENDMDL
MODEL 7
REMARK VINA RESULT:      -6.8      1.054      1.103
REMARK  Name = 
REMARK  9 active torsions:
REMARK  status: ('A' for Active; 'I' for Inactive)
REMARK    1  A    between atoms: C_1  and  C_2
REMARK    2  A    between atoms: C_5  and  C_6
REMARK    3  A    between atoms: C_7  and  O_8
REMARK    4  A    between atoms: O_8  and  C_9
REMARK    5  A    between atoms: C_9  and  C_10
REMARK    6  A    between atoms: C_13  and  S_14
REMARK    7  A    between atoms: S_14  and  C_15
REMARK    8  A    between atoms: C_15  and  C_16
REMARK    9  A    between atoms: N_20  and  C_21
REMARK                            x       y       z     vdW  Elec       q    Type
REMARK                         _______ _______ _______ _____ _____    ______ ____
ROOT
ATOM      1  C   UNL     1       1.629   5.168  20.593  0.00  0.00    +0.000 A 
ATOM      2  N   UNL     1       0.787   4.167  20.433  0.00  0.00    +0.000 NA
ATOM      3  N   UNL     1       1.533   3.099  19.979  0.00  0.00    +0.000 NA
ATOM      4  C   UNL     1       2.783   3.511  19.905  0.00  0.00    +0.000 A 
ATOM      5  O   UNL     1       2.922   4.825  20.284  0.00  0.00    +0.000 OA
ENDROOT
BRANCH   1   6
ATOM      6  C   UNL     1       1.367   6.544  21.106  0.00  0.00    +0.000 C 
BRANCH   6   7
ATOM      7  O   UNL     1       2.036   7.463  20.244  0.00  0.00    +0.000 OA
BRANCH   7  14
ATOM      8  C   UNL     1      -0.825  11.392  21.377  0.00  0.00    +0.000 C 
ATOM      9  C   UNL     1       0.019  10.597  20.420  0.00  0.00    +0.000 A 
ATOM     10  C   UNL     1       0.214  11.050  19.112  0.00  0.00    +0.000 A 
ATOM     11  C   UNL     1       0.994  10.312  18.226  0.00  0.00    +0.000 A 
ATOM     12  C   UNL     1       1.593   9.109  18.630  0.00  0.00    +0.000 A 
ATOM     13  C   UNL     1       2.426   8.330  17.651  0.00  0.00    +0.000 C 
ATOM     14  C   UNL     1       1.408   8.650  19.946  0.00  0.00    +0.000 A 
ATOM     15  C   UNL     1       0.620   9.392  20.834  0.00  0.00    +0.000 A 
ENDBRANCH   7  14
ENDBRANCH   6   7
ENDBRANCH   1   6
BRANCH   4  16
ATOM     16  S   UNL     1       4.123   2.501  19.420  0.00  0.00    +0.000 S 
BRANCH  16  17
ATOM     17  C   UNL     1       4.227   2.969  17.666  0.00  0.00    +0.000 C 
BRANCH  17  18
ATOM     18  C   UNL     1       5.113   4.177  17.307  0.00  0.00    +0.000 C 
ATOM     19  C   UNL     1       4.374   5.382  16.707  0.00  0.00    +0.000 C 
ATOM     20  C   UNL     1       5.399   6.414  16.231  0.00  0.00    +0.000 C 
ATOM     21  C   UNL     1       6.400   6.784  17.334  0.00  0.00    +0.000 C 
ATOM     22  N   UNL     1       7.006   5.599  17.956  0.00  0.00    +0.000 NA
ATOM     23  C   UNL     1       7.934   5.993  19.017  0.00  0.00    +0.000 C 
ATOM     24  C   UNL     1       5.989   4.667  18.473  0.00  0.00    +0.000 C 
ENDBRANCH  17  18
ENDBRANCH  16  17
ENDBRANCH   4  16
TORSDOF 6
ENDMDL
MODEL 8
REMARK VINA RESULT:      -6.8      4.965      7.126
REMARK  Name = 
REMARK  9 active torsions:
REMARK  status: ('A' for Active; 'I' for Inactive)
REMARK    1  A    between atoms: C_1  and  C_2
REMARK    2  A    between atoms: C_5  and  C_6
REMARK    3  A    between atoms: C_7  and  O_8
REMARK    4  A    between atoms: O_8  and  C_9
REMARK    5  A    between atoms: C_9  and  C_10
REMARK    6  A    between atoms: C_13  and  S_14
REMARK    7  A    between atoms: S_14  and  C_15
REMARK    8  A    between atoms: C_15  and  C_16
REMARK    9  A    between atoms: N_20  and  C_21
REMARK                            x       y       z     vdW  Elec       q    Type
REMARK                         _______ _______ _______ _____ _____    ______ ____
ROOT
ATOM      1  C   UNL     1       6.759   5.709  17.494  0.00  0.00    +0.000 A 
ATOM      2  N   UNL     1       7.205   6.230  16.368  0.00  0.00    +0.000 NA
ATOM      3  N   UNL     1       7.905   7.367  16.716  0.00  0.00    +0.000 NA
ATOM      4  C   UNL     1       7.854   7.459  18.029  0.00  0.00    +0.000 A 
ATOM      5  O   UNL     1       7.138   6.431  18.597  0.00  0.00    +0.000 OA
ENDROOT
BRANCH   1   6
ATOM      6  C   UNL     1       5.982   4.453  17.704  0.00  0.00    +0.000 C 
BRANCH   6   7
ATOM      7  O   UNL     1       4.610   4.743  17.444  0.00  0.00    +0.000 OA
BRANCH   7  14
ATOM      8  C   UNL     1       2.228   3.126  21.521  0.00  0.00    +0.000 C 
ATOM      9  C   UNL     1       2.565   4.192  20.516  0.00  0.00    +0.000 A 
ATOM     10  C   UNL     1       2.002   5.467  20.629  0.00  0.00    +0.000 A 
ATOM     11  C   UNL     1       2.313   6.453  19.696  0.00  0.00    +0.000 A 
ATOM     12  C   UNL     1       3.190   6.184  18.635  0.00  0.00    +0.000 A 
ATOM     13  C   UNL     1       3.503   7.266  17.639  0.00  0.00    +0.000 C 
ATOM     14  C   UNL     1       3.765   4.906  18.516  0.00  0.00    +0.000 A 
ATOM     15  C   UNL     1       3.448   3.915  19.453  0.00  0.00    +0.000 A 
ENDBRANCH   7  14
ENDBRANCH   6   7
ENDBRANCH   1   6
BRANCH   4  16
ATOM     16  S   UNL     1       8.636   8.716  18.957  0.00  0.00    +0.000 S 
BRANCH  16  17
ATOM     17  C   UNL     1       8.641  10.042  17.714  0.00  0.00    +0.000 C 
BRANCH  17  18
ATOM     18  C   UNL     1       9.244  11.398  18.129  0.00  0.00    +0.000 C 
ATOM     19  C   UNL     1      10.713  11.614  17.739  0.00  0.00    +0.000 C 
ATOM     20  C   UNL     1      11.217  12.909  18.380  0.00  0.00    +0.000 C 
ATOM     21  C   UNL     1      10.307  14.103  18.062  0.00  0.00    +0.000 C 
ATOM     22  N   UNL     1       8.894  13.818  18.350  0.00  0.00    +0.000 NA
ATOM     23  C   UNL     1       8.058  14.970  18.011  0.00  0.00    +0.000 C 
ATOM     24  C   UNL     1       8.424  12.609  17.653  0.00  0.00    +0.000 C 
ENDBRANCH  17  18
ENDBRANCH  16  17
ENDBRANCH   4  16
TORSDOF 6
ENDMDL
MODEL 9
REMARK VINA RESULT:      -6.7      4.113      8.390
REMARK  Name = 
REMARK  9 active torsions:
REMARK  status: ('A' for Active; 'I' for Inactive)
REMARK    1  A    between atoms: C_1  and  C_2
REMARK    2  A    between atoms: C_5  and  C_6
REMARK    3  A    between atoms: C_7  and  O_8
REMARK    4  A    between atoms: O_8  and  C_9
REMARK    5  A    between atoms: C_9  and  C_10
REMARK    6  A    between atoms: C_13  and  S_14
REMARK    7  A    between atoms: S_14  and  C_15
REMARK    8  A    between atoms: C_15  and  C_16
REMARK    9  A    between atoms: N_20  and  C_21
REMARK                            x       y       z     vdW  Elec       q    Type
REMARK                         _______ _______ _______ _____ _____    ______ ____
ROOT
ATOM      1  C   UNL     1       1.574   8.421  20.055  0.00  0.00    +0.000 A 
ATOM      2  N   UNL     1       1.144   8.135  21.268  0.00  0.00    +0.000 NA
ATOM      3  N   UNL     1       0.457   9.247  21.710  0.00  0.00    +0.000 NA
ATOM      4  C   UNL     1       0.499  10.134  20.736  0.00  0.00    +0.000 A 
ATOM      5  O   UNL     1       1.196   9.675  19.643  0.00  0.00    +0.000 OA
ENDROOT
BRANCH   1   6
ATOM      6  C   UNL     1       2.331   7.563  19.099  0.00  0.00    +0.000 C 
BRANCH   6   7
ATOM      7  O   UNL     1       2.512   6.287  19.712  0.00  0.00    +0.000 OA
BRANCH   7  14
ATOM      8  C   UNL     1       4.993   3.988  16.043  0.00  0.00    +0.000 C 
ATOM      9  C   UNL     1       3.947   4.017  17.122  0.00  0.00    +0.000 A 
ATOM     10  C   UNL     1       3.155   2.891  17.364  0.00  0.00    +0.000 A 
ATOM     11  C   UNL     1       2.184   2.919  18.362  0.00  0.00    +0.000 A 
ATOM     12  C   UNL     1       1.987   4.073  19.135  0.00  0.00    +0.000 A 
ATOM     13  C   UNL     1       0.928   4.078  20.202  0.00  0.00    +0.000 C 
ATOM     14  C   UNL     1       2.783   5.209  18.902  0.00  0.00    +0.000 A 
ATOM     15  C   UNL     1       3.755   5.178  17.896  0.00  0.00    +0.000 A 
ENDBRANCH   7  14
ENDBRANCH   6   7
ENDBRANCH   1   6
BRANCH   4  16
ATOM     16  S   UNL     1      -0.272  11.700  20.799  0.00  0.00    +0.000 S 
BRANCH  16  17
ATOM     17  C   UNL     1      -0.327  12.074  19.020  0.00  0.00    +0.000 C 
BRANCH  17  18
ATOM     18  C   UNL     1      -1.593  11.656  18.248  0.00  0.00    +0.000 C 
ATOM     19  C   UNL     1      -1.584  10.224  17.693  0.00  0.00    +0.000 C 
ATOM     20  C   UNL     1      -2.810  10.025  16.799  0.00  0.00    +0.000 C 
ATOM     21  C   UNL     1      -4.114  10.407  17.513  0.00  0.00    +0.000 C 
ATOM     22  N   UNL     1      -4.043  11.743  18.123  0.00  0.00    +0.000 NA
ATOM     23  C   UNL     1      -5.294  12.059  18.813  0.00  0.00    +0.000 C 
ATOM     24  C   UNL     1      -2.895  11.871  19.037  0.00  0.00    +0.000 C 
ENDBRANCH  17  18
ENDBRANCH  16  17
ENDBRANCH   4  16
TORSDOF 6
ENDMDL
