MODEL 1
REMARK VINA RESULT:      -7.9      0.000      0.000
REMARK  Name = 
REMARK  6 active torsions:
REMARK  status: ('A' for Active; 'I' for Inactive)
REMARK    1  A    between atoms: C_1  and  O_2
REMARK    2  A    between atoms: O_2  and  C_3
REMARK    3  A    between atoms: C_9  and  C_10
REMARK    4  A    between atoms: C_10  and  C_11
REMARK    5  A    between atoms: C_11  and  N_12
REMARK    6  A    between atoms: C_13  and  C_15
REMARK                            x       y       z     vdW  Elec       q    Type
REMARK                         _______ _______ _______ _____ _____    ______ ____
ROOT
ATOM      1  C   UNL     1       4.792   4.707  16.958  0.00  0.00    +0.000 C 
ATOM      2  C   UNL     1       5.250   4.664  18.465  0.00  0.00    +0.000 C 
ATOM      3  C   UNL     1       4.152   5.685  18.803  0.00  0.00    +0.000 C 
ATOM      4  C   UNL     1       4.154   6.101  17.324  0.00  0.00    +0.000 C 
ENDROOT
BRANCH   1  11
ATOM      5  C   UNL     1       5.619   3.402  12.381  0.00  0.00    +0.000 A 
ATOM      6  C   UNL     1       6.817   3.927  11.905  0.00  0.00    +0.000 A 
ATOM      7  C   UNL     1       7.637   4.695  12.732  0.00  0.00    +0.000 A 
ATOM      8  C   UNL     1       7.216   4.926  14.046  0.00  0.00    +0.000 A 
ATOM      9  N   UNL     1       7.830   5.656  15.034  0.00  0.00    +0.000 N 
ATOM     10  C   UNL     1       7.057   5.674  16.158  0.00  0.00    +0.000 A 
ATOM     11  C   UNL     1       5.933   4.906  15.921  0.00  0.00    +0.000 A 
ATOM     12  C   UNL     1       6.015   4.431  14.569  0.00  0.00    +0.000 A 
ATOM     13  C   UNL     1       5.206   3.666  13.697  0.00  0.00    +0.000 A 
ATOM     14  H   UNL     1       8.712   6.135  14.924  0.00  0.00    +0.000 HD
BRANCH   5  16
ATOM     15  C   UNL     1       3.740   3.388  10.943  0.00  0.00    +0.000 C 
ATOM     16  O   UNL     1       4.746   2.654  11.634  0.00  0.00    +0.000 OA
ENDBRANCH   5  16
ENDBRANCH   1  11
BRANCH   1  17
ATOM     17  C   UNL     1       3.697   3.691  16.611  0.00  0.00    +0.000 C 
BRANCH  17  18
ATOM     18  N   UNL     1       3.035   3.238  17.823  0.00  0.00    +0.000 N 
ATOM     19  C   UNL     1       1.697   3.514  18.026  0.00  0.00    +0.000 C 
ATOM     20  O   UNL     1       1.042   4.146  17.193  0.00  0.00    +0.000 OA
ATOM     21  H   UNL     1       3.541   2.677  18.495  0.00  0.00    +0.000 HD
BRANCH  19  22
ATOM     22  C   UNL     1       1.112   2.990  19.358  0.00  0.00    +0.000 C 
ATOM     23  C   UNL     1       2.068   2.173  20.278  0.00  0.00    +0.000 C 
ATOM     24  C   UNL     1       1.314   2.770  21.478  0.00  0.00    +0.000 C 
ATOM     25  C   UNL     1       0.951   3.956  20.562  0.00  0.00    +0.000 C 
ENDBRANCH  19  22
ENDBRANCH  17  18
ENDBRANCH   1  17
TORSDOF 5
ENDMDL
MODEL 2
REMARK VINA RESULT:      -7.9      1.968      7.186
REMARK  Name = 
REMARK  6 active torsions:
REMARK  status: ('A' for Active; 'I' for Inactive)
REMARK    1  A    between atoms: C_1  and  O_2
REMARK    2  A    between atoms: O_2  and  C_3
REMARK    3  A    between atoms: C_9  and  C_10
REMARK    4  A    between atoms: C_10  and  C_11
REMARK    5  A    between atoms: C_11  and  N_12
REMARK    6  A    between atoms: C_13  and  C_15
REMARK                            x       y       z     vdW  Elec       q    Type
REMARK                         _______ _______ _______ _____ _____    ______ ____
ROOT
ATOM      1  C   UNL     1       5.368   4.835  17.131  0.00  0.00    +0.000 C 
ATOM      2  C   UNL     1       4.843   6.126  16.395  0.00  0.00    +0.000 C 
ATOM      3  C   UNL     1       5.902   6.953  17.141  0.00  0.00    +0.000 C 
ATOM      4  C   UNL     1       5.958   5.837  18.196  0.00  0.00    +0.000 C 
ENDROOT
BRANCH   1  11
ATOM      5  C   UNL     1       1.786   5.507  20.302  0.00  0.00    +0.000 A 
ATOM      6  C   UNL     1       1.043   4.346  20.493  0.00  0.00    +0.000 A 
ATOM      7  C   UNL     1       1.387   3.164  19.836  0.00  0.00    +0.000 A 
ATOM      8  C   UNL     1       2.491   3.186  18.977  0.00  0.00    +0.000 A 
ATOM      9  N   UNL     1       3.011   2.170  18.213  0.00  0.00    +0.000 N 
ATOM     10  C   UNL     1       4.064   2.625  17.475  0.00  0.00    +0.000 A 
ATOM     11  C   UNL     1       4.271   3.953  17.791  0.00  0.00    +0.000 A 
ATOM     12  C   UNL     1       3.264   4.330  18.742  0.00  0.00    +0.000 A 
ATOM     13  C   UNL     1       2.877   5.510  19.418  0.00  0.00    +0.000 A 
ATOM     14  H   UNL     1       2.638   1.231  18.183  0.00  0.00    +0.000 HD
BRANCH   5  16
ATOM     15  C   UNL     1       1.858   7.866  20.132  0.00  0.00    +0.000 C 
ATOM     16  O   UNL     1       1.509   6.714  20.892  0.00  0.00    +0.000 OA
ENDBRANCH   5  16
ENDBRANCH   1  11
BRANCH   1  17
ATOM     17  C   UNL     1       6.499   4.113  16.390  0.00  0.00    +0.000 C 
BRANCH  17  18
ATOM     18  N   UNL     1       6.088   3.806  15.030  0.00  0.00    +0.000 N 
ATOM     19  C   UNL     1       6.692   4.442  13.963  0.00  0.00    +0.000 C 
ATOM     20  O   UNL     1       7.584   5.277  14.139  0.00  0.00    +0.000 OA
ATOM     21  H   UNL     1       5.394   3.090  14.861  0.00  0.00    +0.000 HD
BRANCH  19  22
ATOM     22  C   UNL     1       6.159   4.039  12.569  0.00  0.00    +0.000 C 
ATOM     23  C   UNL     1       6.486   2.597  12.076  0.00  0.00    +0.000 C 
ATOM     24  C   UNL     1       5.128   2.608  11.353  0.00  0.00    +0.000 C 
ATOM     25  C   UNL     1       4.667   3.644  12.399  0.00  0.00    +0.000 C 
ENDBRANCH  19  22
ENDBRANCH  17  18
ENDBRANCH   1  17
TORSDOF 5
ENDMDL
MODEL 3
REMARK VINA RESULT:      -7.9      2.124      6.351
REMARK  Name = 
REMARK  6 active torsions:
REMARK  status: ('A' for Active; 'I' for Inactive)
REMARK    1  A    between atoms: C_1  and  O_2
REMARK    2  A    between atoms: O_2  and  C_3
REMARK    3  A    between atoms: C_9  and  C_10
REMARK    4  A    between atoms: C_10  and  C_11
REMARK    5  A    between atoms: C_11  and  N_12
REMARK    6  A    between atoms: C_13  and  C_15
REMARK                            x       y       z     vdW  Elec       q    Type
REMARK                         _______ _______ _______ _____ _____    ______ ____
ROOT
ATOM      1  C   UNL     1       6.615   5.723  17.719  0.00  0.00    +0.000 C 
ATOM      2  C   UNL     1       7.447   7.059  17.634  0.00  0.00    +0.000 C 
ATOM      3  C   UNL     1       8.234   6.619  18.879  0.00  0.00    +0.000 C 
ATOM      4  C   UNL     1       7.062   5.690  19.230  0.00  0.00    +0.000 C 
ENDROOT
BRANCH   1  11
ATOM      5  C   UNL     1       2.742   2.962  18.568  0.00  0.00    +0.000 A 
ATOM      6  C   UNL     1       1.558   3.667  18.382  0.00  0.00    +0.000 A 
ATOM      7  C   UNL     1       1.578   4.998  17.962  0.00  0.00    +0.000 A 
ATOM      8  C   UNL     1       2.822   5.599  17.742  0.00  0.00    +0.000 A 
ATOM      9  N   UNL     1       3.101   6.885  17.348  0.00  0.00    +0.000 N 
ATOM     10  C   UNL     1       4.451   7.082  17.303  0.00  0.00    +0.000 A 
ATOM     11  C   UNL     1       5.072   5.893  17.631  0.00  0.00    +0.000 A 
ATOM     12  C   UNL     1       4.043   4.937  17.926  0.00  0.00    +0.000 A 
ATOM     13  C   UNL     1       3.980   3.594  18.363  0.00  0.00    +0.000 A 
ATOM     14  H   UNL     1       2.402   7.587  17.155  0.00  0.00    +0.000 HD
BRANCH   5  16
ATOM     15  C   UNL     1       3.999   0.959  18.635  0.00  0.00    +0.000 C 
ATOM     16  O   UNL     1       2.815   1.661  18.996  0.00  0.00    +0.000 OA
ENDBRANCH   5  16
ENDBRANCH   1  11
BRANCH   1  17
ATOM     17  C   UNL     1       7.238   4.551  16.950  0.00  0.00    +0.000 C 
BRANCH  17  18
ATOM     18  N   UNL     1       6.513   4.328  15.711  0.00  0.00    +0.000 N 
ATOM     19  C   UNL     1       6.977   4.871  14.529  0.00  0.00    +0.000 C 
ATOM     20  O   UNL     1       8.006   5.553  14.500  0.00  0.00    +0.000 OA
ATOM     21  H   UNL     1       5.696   3.732  15.703  0.00  0.00    +0.000 HD
BRANCH  19  22
ATOM     22  C   UNL     1       6.113   4.572  13.282  0.00  0.00    +0.000 C 
ATOM     23  C   UNL     1       6.746   3.668  12.183  0.00  0.00    +0.000 C 
ATOM     24  C   UNL     1       5.332   3.128  11.907  0.00  0.00    +0.000 C 
ATOM     25  C   UNL     1       4.988   3.505  13.363  0.00  0.00    +0.000 C 
ENDBRANCH  19  22
ENDBRANCH  17  18
ENDBRANCH   1  17
TORSDOF 5
ENDMDL
MODEL 4
REMARK VINA RESULT:      -7.7      3.318      5.733
REMARK  Name = 
REMARK  6 active torsions:
REMARK  status: ('A' for Active; 'I' for Inactive)
REMARK    1  A    between atoms: C_1  and  O_2
REMARK    2  A    between atoms: O_2  and  C_3
REMARK    3  A    between atoms: C_9  and  C_10
REMARK    4  A    between atoms: C_10  and  C_11
REMARK    5  A    between atoms: C_11  and  N_12
REMARK    6  A    between atoms: C_13  and  C_15
REMARK                            x       y       z     vdW  Elec       q    Type
REMARK                         _______ _______ _______ _____ _____    ______ ____
ROOT
ATOM      1  C   UNL     1       2.147   3.991  20.326  0.00  0.00    +0.000 C 
ATOM      2  C   UNL     1       0.788   3.221  20.538  0.00  0.00    +0.000 C 
ATOM      3  C   UNL     1       1.415   2.496  21.740  0.00  0.00    +0.000 C 
ATOM      4  C   UNL     1       2.796   2.812  21.147  0.00  0.00    +0.000 C 
ENDROOT
BRANCH   1  11
ATOM      5  C   UNL     1       6.427   4.710  18.205  0.00  0.00    +0.000 A 
ATOM      6  C   UNL     1       6.360   4.508  16.831  0.00  0.00    +0.000 A 
ATOM      7  C   UNL     1       5.151   4.179  16.216  0.00  0.00    +0.000 A 
ATOM      8  C   UNL     1       4.017   4.050  17.024  0.00  0.00    +0.000 A 
ATOM      9  N   UNL     1       2.734   3.719  16.663  0.00  0.00    +0.000 N 
ATOM     10  C   UNL     1       1.935   3.651  17.768  0.00  0.00    +0.000 A 
ATOM     11  C   UNL     1       2.695   3.984  18.871  0.00  0.00    +0.000 A 
ATOM     12  C   UNL     1       4.033   4.231  18.413  0.00  0.00    +0.000 A 
ATOM     13  C   UNL     1       5.279   4.554  18.999  0.00  0.00    +0.000 A 
ATOM     14  H   UNL     1       2.439   3.524  15.717  0.00  0.00    +0.000 HD
BRANCH   5  16
ATOM     15  C   UNL     1       7.986   6.379  18.826  0.00  0.00    +0.000 C 
ATOM     16  O   UNL     1       7.574   5.018  18.892  0.00  0.00    +0.000 OA
ENDBRANCH   5  16
ENDBRANCH   1  11
BRANCH   1  17
ATOM     17  C   UNL     1       2.245   5.306  21.108  0.00  0.00    +0.000 C 
BRANCH  17  18
ATOM     18  N   UNL     1       2.341   6.427  20.188  0.00  0.00    +0.000 N 
ATOM     19  C   UNL     1       1.752   7.636  20.504  0.00  0.00    +0.000 C 
ATOM     20  O   UNL     1       1.136   7.789  21.563  0.00  0.00    +0.000 OA
ATOM     21  H   UNL     1       2.882   6.339  19.338  0.00  0.00    +0.000 HD
BRANCH  19  22
ATOM     22  C   UNL     1       1.914   8.745  19.439  0.00  0.00    +0.000 C 
ATOM     23  C   UNL     1       1.985   8.292  17.950  0.00  0.00    +0.000 C 
ATOM     24  C   UNL     1       1.269   9.604  17.586  0.00  0.00    +0.000 C 
ATOM     25  C   UNL     1       0.682   9.589  19.013  0.00  0.00    +0.000 C 
ENDBRANCH  19  22
ENDBRANCH  17  18
ENDBRANCH   1  17
TORSDOF 5
ENDMDL
MODEL 5
REMARK VINA RESULT:      -7.7      4.009      8.057
REMARK  Name = 
REMARK  6 active torsions:
REMARK  status: ('A' for Active; 'I' for Inactive)
REMARK    1  A    between atoms: C_1  and  O_2
REMARK    2  A    between atoms: O_2  and  C_3
REMARK    3  A    between atoms: C_9  and  C_10
REMARK    4  A    between atoms: C_10  and  C_11
REMARK    5  A    between atoms: C_11  and  N_12
REMARK    6  A    between atoms: C_13  and  C_15
REMARK                            x       y       z     vdW  Elec       q    Type
REMARK                         _______ _______ _______ _____ _____    ______ ____
ROOT
ATOM      1  C   UNL     1       2.667   5.692  19.379  0.00  0.00    +0.000 C 
ATOM      2  C   UNL     1       1.785   5.059  20.522  0.00  0.00    +0.000 C 
ATOM      3  C   UNL     1       1.636   3.789  19.669  0.00  0.00    +0.000 C 
ATOM      4  C   UNL     1       1.973   4.638  18.434  0.00  0.00    +0.000 C 
ENDROOT
BRANCH   1  11
ATOM      5  C   UNL     1       0.843   9.604  21.548  0.00  0.00    +0.000 A 
ATOM      6  C   UNL     1       0.740  10.678  20.669  0.00  0.00    +0.000 A 
ATOM      7  C   UNL     1       1.106  10.541  19.329  0.00  0.00    +0.000 A 
ATOM      8  C   UNL     1       1.585   9.298  18.902  0.00  0.00    +0.000 A 
ATOM      9  N   UNL     1       2.020   8.923  17.655  0.00  0.00    +0.000 N 
ATOM     10  C   UNL     1       2.456   7.630  17.676  0.00  0.00    +0.000 A 
ATOM     11  C   UNL     1       2.264   7.130  18.948  0.00  0.00    +0.000 A 
ATOM     12  C   UNL     1       1.719   8.190  19.749  0.00  0.00    +0.000 A 
ATOM     13  C   UNL     1       1.347   8.372  21.101  0.00  0.00    +0.000 A 
ATOM     14  H   UNL     1       2.042   9.534  16.851  0.00  0.00    +0.000 HD
BRANCH   5  16
ATOM     15  C   UNL     1      -0.777  10.148  23.184  0.00  0.00    +0.000 C 
ATOM     16  O   UNL     1       0.523   9.656  22.880  0.00  0.00    +0.000 OA
ENDBRANCH   5  16
ENDBRANCH   1  11
BRANCH   1  17
ATOM     17  C   UNL     1       4.165   5.391  19.510  0.00  0.00    +0.000 C 
BRANCH  17  18
ATOM     18  N   UNL     1       4.731   5.105  18.203  0.00  0.00    +0.000 N 
ATOM     19  C   UNL     1       6.072   4.795  18.081  0.00  0.00    +0.000 C 
ATOM     20  O   UNL     1       6.810   4.756  19.069  0.00  0.00    +0.000 OA
ATOM     21  H   UNL     1       4.134   5.083  17.387  0.00  0.00    +0.000 HD
BRANCH  19  22
ATOM     22  C   UNL     1       6.556   4.523  16.638  0.00  0.00    +0.000 C 
ATOM     23  C   UNL     1       5.709   3.535  15.782  0.00  0.00    +0.000 C 
ATOM     24  C   UNL     1       6.089   4.379  14.553  0.00  0.00    +0.000 C 
ATOM     25  C   UNL     1       6.275   5.565  15.522  0.00  0.00    +0.000 C 
ENDBRANCH  19  22
ENDBRANCH  17  18
ENDBRANCH   1  17
TORSDOF 5
ENDMDL
MODEL 6
REMARK VINA RESULT:      -7.6      0.982      1.027
REMARK  Name = 
REMARK  6 active torsions:
REMARK  status: ('A' for Active; 'I' for Inactive)
REMARK    1  A    between atoms: C_1  and  O_2
REMARK    2  A    between atoms: O_2  and  C_3
REMARK    3  A    between atoms: C_9  and  C_10
REMARK    4  A    between atoms: C_10  and  C_11
REMARK    5  A    between atoms: C_11  and  N_12
REMARK    6  A    between atoms: C_13  and  C_15
REMARK                            x       y       z     vdW  Elec       q    Type
REMARK                         _______ _______ _______ _____ _____    ______ ____
ROOT
ATOM      1  C   UNL     1       4.821   4.686  16.977  0.00  0.00    +0.000 C 
ATOM      2  C   UNL     1       5.278   4.744  18.484  0.00  0.00    +0.000 C 
ATOM      3  C   UNL     1       4.119   5.713  18.772  0.00  0.00    +0.000 C 
ATOM      4  C   UNL     1       4.099   6.056  17.275  0.00  0.00    +0.000 C 
ENDROOT
BRANCH   1  11
ATOM      5  C   UNL     1       5.614   3.425  12.382  0.00  0.00    +0.000 A 
ATOM      6  C   UNL     1       6.802   3.963  11.898  0.00  0.00    +0.000 A 
ATOM      7  C   UNL     1       7.624   4.732  12.723  0.00  0.00    +0.000 A 
ATOM      8  C   UNL     1       7.214   4.948  14.043  0.00  0.00    +0.000 A 
ATOM      9  N   UNL     1       7.832   5.675  15.031  0.00  0.00    +0.000 N 
ATOM     10  C   UNL     1       7.070   5.678  16.162  0.00  0.00    +0.000 A 
ATOM     11  C   UNL     1       5.950   4.903  15.931  0.00  0.00    +0.000 A 
ATOM     12  C   UNL     1       6.022   4.439  14.574  0.00  0.00    +0.000 A 
ATOM     13  C   UNL     1       5.211   3.675  13.704  0.00  0.00    +0.000 A 
ATOM     14  H   UNL     1       8.709   6.163  14.916  0.00  0.00    +0.000 HD
BRANCH   5  16
ATOM     15  C   UNL     1       3.787   3.413  10.877  0.00  0.00    +0.000 C 
ATOM     16  O   UNL     1       4.739   2.676  11.637  0.00  0.00    +0.000 OA
ENDBRANCH   5  16
ENDBRANCH   1  11
BRANCH   1  17
ATOM     17  C   UNL     1       3.790   3.591  16.681  0.00  0.00    +0.000 C 
BRANCH  17  18
ATOM     18  N   UNL     1       2.936   3.384  17.838  0.00  0.00    +0.000 N 
ATOM     19  C   UNL     1       2.988   2.192  18.534  0.00  0.00    +0.000 C 
ATOM     20  O   UNL     1       3.753   1.286  18.192  0.00  0.00    +0.000 OA
ATOM     21  H   UNL     1       2.338   4.131  18.166  0.00  0.00    +0.000 HD
BRANCH  19  22
ATOM     22  C   UNL     1       2.023   2.089  19.738  0.00  0.00    +0.000 C 
ATOM     23  C   UNL     1       2.574   2.531  21.126  0.00  0.00    +0.000 C 
ATOM     24  C   UNL     1       1.153   3.013  21.463  0.00  0.00    +0.000 C 
ATOM     25  C   UNL     1       0.932   3.173  19.945  0.00  0.00    +0.000 C 
ENDBRANCH  19  22
ENDBRANCH  17  18
ENDBRANCH   1  17
TORSDOF 5
ENDMDL
MODEL 7
REMARK VINA RESULT:      -7.6      2.226      7.133
REMARK  Name = 
REMARK  6 active torsions:
REMARK  status: ('A' for Active; 'I' for Inactive)
REMARK    1  A    between atoms: C_1  and  O_2
REMARK    2  A    between atoms: O_2  and  C_3
REMARK    3  A    between atoms: C_9  and  C_10
REMARK    4  A    between atoms: C_10  and  C_11
REMARK    5  A    between atoms: C_11  and  N_12
REMARK    6  A    between atoms: C_13  and  C_15
REMARK                            x       y       z     vdW  Elec       q    Type
REMARK                         _______ _______ _______ _____ _____    ______ ____
ROOT
ATOM      1  C   UNL     1       5.624   5.950  17.362  0.00  0.00    +0.000 C 
ATOM      2  C   UNL     1       6.917   6.261  18.207  0.00  0.00    +0.000 C 
ATOM      3  C   UNL     1       7.480   4.887  17.806  0.00  0.00    +0.000 C 
ATOM      4  C   UNL     1       6.039   4.437  17.518  0.00  0.00    +0.000 C 
ENDROOT
BRANCH   1  11
ATOM      5  C   UNL     1       2.912   3.602  20.598  0.00  0.00    +0.000 A 
ATOM      6  C   UNL     1       1.795   4.344  20.969  0.00  0.00    +0.000 A 
ATOM      7  C   UNL     1       1.545   5.591  20.394  0.00  0.00    +0.000 A 
ATOM      8  C   UNL     1       2.453   6.072  19.445  0.00  0.00    +0.000 A 
ATOM      9  N   UNL     1       2.437   7.263  18.761  0.00  0.00    +0.000 N 
ATOM     10  C   UNL     1       3.540   7.365  17.964  0.00  0.00    +0.000 A 
ATOM     11  C   UNL     1       4.275   6.202  18.093  0.00  0.00    +0.000 A 
ATOM     12  C   UNL     1       3.598   5.370  19.047  0.00  0.00    +0.000 A 
ATOM     13  C   UNL     1       3.821   4.115  19.659  0.00  0.00    +0.000 A 
ATOM     14  H   UNL     1       1.724   7.970  18.864  0.00  0.00    +0.000 HD
BRANCH   5  16
ATOM     15  C   UNL     1       4.503   1.855  20.719  0.00  0.00    +0.000 C 
ATOM     16  O   UNL     1       3.243   2.379  21.123  0.00  0.00    +0.000 OA
ENDBRANCH   5  16
ENDBRANCH   1  11
BRANCH   1  17
ATOM     17  C   UNL     1       5.720   6.383  15.895  0.00  0.00    +0.000 C 
BRANCH  17  18
ATOM     18  N   UNL     1       5.546   5.234  15.023  0.00  0.00    +0.000 N 
ATOM     19  C   UNL     1       6.591   4.803  14.229  0.00  0.00    +0.000 C 
ATOM     20  O   UNL     1       7.683   5.378  14.242  0.00  0.00    +0.000 OA
ATOM     21  H   UNL     1       4.676   4.718  15.033  0.00  0.00    +0.000 HD
BRANCH  19  22
ATOM     22  C   UNL     1       6.278   3.579  13.337  0.00  0.00    +0.000 C 
ATOM     23  C   UNL     1       4.865   3.523  12.683  0.00  0.00    +0.000 C 
ATOM     24  C   UNL     1       5.521   2.818  11.484  0.00  0.00    +0.000 C 
ATOM     25  C   UNL     1       6.833   3.520  11.888  0.00  0.00    +0.000 C 
ENDBRANCH  19  22
ENDBRANCH  17  18
ENDBRANCH   1  17
TORSDOF 5
ENDMDL
MODEL 8
REMARK VINA RESULT:      -7.6      3.224      7.164
REMARK  Name = 
REMARK  6 active torsions:
REMARK  status: ('A' for Active; 'I' for Inactive)
REMARK    1  A    between atoms: C_1  and  O_2
REMARK    2  A    between atoms: O_2  and  C_3
REMARK    3  A    between atoms: C_9  and  C_10
REMARK    4  A    between atoms: C_10  and  C_11
REMARK    5  A    between atoms: C_11  and  N_12
REMARK    6  A    between atoms: C_13  and  C_15
REMARK                            x       y       z     vdW  Elec       q    Type
REMARK                         _______ _______ _______ _____ _____    ______ ____
ROOT
ATOM      1  C   UNL     1       3.293   4.163  18.202  0.00  0.00    +0.000 C 
ATOM      2  C   UNL     1       4.024   2.864  18.712  0.00  0.00    +0.000 C 
ATOM      3  C   UNL     1       3.191   2.036  17.720  0.00  0.00    +0.000 C 
ATOM      4  C   UNL     1       2.166   3.181  17.702  0.00  0.00    +0.000 C 
ENDROOT
BRANCH   1  11
ATOM      5  C   UNL     1       1.890   8.774  18.536  0.00  0.00    +0.000 A 
ATOM      6  C   UNL     1       1.387   9.068  19.799  0.00  0.00    +0.000 A 
ATOM      7  C   UNL     1       1.364   8.098  20.802  0.00  0.00    +0.000 A 
ATOM      8  C   UNL     1       1.854   6.824  20.495  0.00  0.00    +0.000 A 
ATOM      9  N   UNL     1       1.920   5.709  21.294  0.00  0.00    +0.000 N 
ATOM     10  C   UNL     1       2.419   4.652  20.590  0.00  0.00    +0.000 A 
ATOM     11  C   UNL     1       2.726   5.088  19.317  0.00  0.00    +0.000 A 
ATOM     12  C   UNL     1       2.359   6.474  19.236  0.00  0.00    +0.000 A 
ATOM     13  C   UNL     1       2.355   7.481  18.245  0.00  0.00    +0.000 A 
ATOM     14  H   UNL     1       1.611   5.678  22.256  0.00  0.00    +0.000 HD
BRANCH   5  16
ATOM     15  C   UNL     1       2.187  11.016  17.839  0.00  0.00    +0.000 C 
ATOM     16  O   UNL     1       1.933   9.660  17.490  0.00  0.00    +0.000 OA
ENDBRANCH   5  16
ENDBRANCH   1  11
BRANCH   1  17
ATOM     17  C   UNL     1       3.982   4.839  17.012  0.00  0.00    +0.000 C 
BRANCH  17  18
ATOM     18  N   UNL     1       5.202   5.497  17.449  0.00  0.00    +0.000 N 
ATOM     19  C   UNL     1       6.267   5.630  16.580  0.00  0.00    +0.000 C 
ATOM     20  O   UNL     1       6.208   5.197  15.426  0.00  0.00    +0.000 OA
ATOM     21  H   UNL     1       5.254   5.902  18.374  0.00  0.00    +0.000 HD
BRANCH  19  22
ATOM     22  C   UNL     1       7.511   6.336  17.167  0.00  0.00    +0.000 C 
ATOM     23  C   UNL     1       7.430   7.883  17.341  0.00  0.00    +0.000 C 
ATOM     24  C   UNL     1       8.324   7.722  18.583  0.00  0.00    +0.000 C 
ATOM     25  C   UNL     1       7.776   6.285  18.696  0.00  0.00    +0.000 C 
ENDBRANCH  19  22
ENDBRANCH  17  18
ENDBRANCH   1  17
TORSDOF 5
ENDMDL
MODEL 9
REMARK VINA RESULT:      -7.6      4.065      8.156
REMARK  Name = 
REMARK  6 active torsions:
REMARK  status: ('A' for Active; 'I' for Inactive)
REMARK    1  A    between atoms: C_1  and  O_2
REMARK    2  A    between atoms: O_2  and  C_3
REMARK    3  A    between atoms: C_9  and  C_10
REMARK    4  A    between atoms: C_10  and  C_11
REMARK    5  A    between atoms: C_11  and  N_12
REMARK    6  A    between atoms: C_13  and  C_15
REMARK                            x       y       z     vdW  Elec       q    Type
REMARK                         _______ _______ _______ _____ _____    ______ ____
ROOT
ATOM      1  C   UNL     1       2.382   5.423  19.321  0.00  0.00    +0.000 C 
ATOM      2  C   UNL     1       1.190   4.666  20.021  0.00  0.00    +0.000 C 
ATOM      3  C   UNL     1       1.365   3.514  19.019  0.00  0.00    +0.000 C 
ATOM      4  C   UNL     1       2.069   4.505  18.079  0.00  0.00    +0.000 C 
ENDROOT
BRANCH   1  11
ATOM      5  C   UNL     1       0.694   9.321  21.623  0.00  0.00    +0.000 A 
ATOM      6  C   UNL     1       0.720  10.449  20.810  0.00  0.00    +0.000 A 
ATOM      7  C   UNL     1       1.160  10.366  19.487  0.00  0.00    +0.000 A 
ATOM      8  C   UNL     1       1.579   9.119  19.011  0.00  0.00    +0.000 A 
ATOM      9  N   UNL     1       2.065   8.788  17.770  0.00  0.00    +0.000 N 
ATOM     10  C   UNL     1       2.410   7.469  17.734  0.00  0.00    +0.000 A 
ATOM     11  C   UNL     1       2.106   6.909  18.960  0.00  0.00    +0.000 A 
ATOM     12  C   UNL     1       1.584   7.956  19.792  0.00  0.00    +0.000 A 
ATOM     13  C   UNL     1       1.141   8.084  21.129  0.00  0.00    +0.000 A 
ATOM     14  H   UNL     1       2.179   9.443  17.009  0.00  0.00    +0.000 HD
BRANCH   5  16
ATOM     15  C   UNL     1      -0.799  10.168  23.250  0.00  0.00    +0.000 C 
ATOM     16  O   UNL     1       0.296   9.316  22.935  0.00  0.00    +0.000 OA
ENDBRANCH   5  16
ENDBRANCH   1  11
BRANCH   1  17
ATOM     17  C   UNL     1       3.760   5.086  19.903  0.00  0.00    +0.000 C 
BRANCH  17  18
ATOM     18  N   UNL     1       4.801   5.747  19.135  0.00  0.00    +0.000 N 
ATOM     19  C   UNL     1       5.920   5.044  18.734  0.00  0.00    +0.000 C 
ATOM     20  O   UNL     1       6.059   3.850  19.017  0.00  0.00    +0.000 OA
ATOM     21  H   UNL     1       4.684   6.711  18.850  0.00  0.00    +0.000 HD
BRANCH  19  22
ATOM     22  C   UNL     1       6.960   5.861  17.934  0.00  0.00    +0.000 C 
ATOM     23  C   UNL     1       6.469   7.190  17.286  0.00  0.00    +0.000 C 
ATOM     24  C   UNL     1       7.878   7.755  17.536  0.00  0.00    +0.000 C 
ATOM     25  C   UNL     1       7.997   6.736  18.688  0.00  0.00    +0.000 C 
ENDBRANCH  19  22
ENDBRANCH  17  18
ENDBRANCH   1  17
TORSDOF 5
ENDMDL
