MODEL 1
REMARK VINA RESULT:      -6.8      0.000      0.000
REMARK  Name = 
REMARK  5 active torsions:
REMARK  status: ('A' for Active; 'I' for Inactive)
REMARK    1  A    between atoms: C_1  and  C_2
REMARK    2  A    between atoms: C_2  and  C_4
REMARK    3  A    between atoms: N_9  and  C_10
REMARK    4  A    between atoms: C_10  and  C_11
REMARK    5  A    between atoms: C_11  and  C_12
REMARK                            x       y       z     vdW  Elec       q    Type
REMARK                         _______ _______ _______ _____ _____    ______ ____
ROOT
ATOM      1  C   UNL     1       6.147   5.186  18.648  0.00  0.00    +0.000 A 
ATOM      2  C   UNL     1       5.503   5.930  17.551  0.00  0.00    +0.000 A 
ATOM      3  C   UNL     1       4.446   5.353  16.980  0.00  0.00    +0.000 A 
ATOM      4  C   UNL     1       3.943   4.047  17.453  0.00  0.00    +0.000 A 
ATOM      5  O   UNL     1       2.977   3.540  16.888  0.00  0.00    +0.000 OA
ATOM      6  N   UNL     1       4.604   3.502  18.551  0.00  0.00    +0.000 N 
ATOM      7  N   UNL     1       5.731   4.056  19.130  0.00  0.00    +0.000 NA
ENDROOT
BRANCH   1   9
ATOM      8  C   UNL     1       8.012   6.946  18.477  0.00  0.00    +0.000 C 
ATOM      9  C   UNL     1       7.398   5.811  19.243  0.00  0.00    +0.000 C 
ATOM     10  O   UNL     1       7.831   5.392  20.308  0.00  0.00    +0.000 OA
ENDBRANCH   1   9
BRANCH   6  11
ATOM     11  C   UNL     1       4.102   2.271  19.152  0.00  0.00    +0.000 C 
BRANCH  11  12
ATOM     12  C   UNL     1       3.673   2.425  20.609  0.00  0.00    +0.000 C 
BRANCH  12  13
ATOM     13  C   UNL     1       2.182   2.181  20.872  0.00  0.00    +0.000 C 
ATOM     14  C   UNL     1       1.434   3.356  21.488  0.00  0.00    +0.000 C 
ATOM     15  C   UNL     1       0.979   4.133  20.279  0.00  0.00    +0.000 C 
ATOM     16  C   UNL     1       0.658   3.026  19.302  0.00  0.00    +0.000 C 
ATOM     17  O   UNL     1       1.550   1.941  19.594  0.00  0.00    +0.000 OA
ENDBRANCH  12  13
ENDBRANCH  11  12
ENDBRANCH   6  11
TORSDOF 4
ENDMDL
MODEL 2
REMARK VINA RESULT:      -6.7      2.433      3.367
REMARK  Name = 
REMARK  5 active torsions:
REMARK  status: ('A' for Active; 'I' for Inactive)
REMARK    1  A    between atoms: C_1  and  C_2
REMARK    2  A    between atoms: C_2  and  C_4
REMARK    3  A    between atoms: N_9  and  C_10
REMARK    4  A    between atoms: C_10  and  C_11
REMARK    5  A    between atoms: C_11  and  C_12
REMARK                            x       y       z     vdW  Elec       q    Type
REMARK                         _______ _______ _______ _____ _____    ______ ____
ROOT
ATOM      1  C   UNL     1       6.458   4.902  16.002  0.00  0.00    +0.000 A 
ATOM      2  C   UNL     1       7.140   5.941  16.794  0.00  0.00    +0.000 A 
ATOM      3  C   UNL     1       6.738   6.088  18.056  0.00  0.00    +0.000 A 
ATOM      4  C   UNL     1       5.682   5.226  18.625  0.00  0.00    +0.000 A 
ATOM      5  O   UNL     1       5.328   5.405  19.786  0.00  0.00    +0.000 OA
ATOM      6  N   UNL     1       5.187   4.234  17.782  0.00  0.00    +0.000 N 
ATOM      7  N   UNL     1       5.551   4.092  16.455  0.00  0.00    +0.000 NA
ENDROOT
BRANCH   1   9
ATOM      8  C   UNL     1       6.030   3.894  13.677  0.00  0.00    +0.000 C 
ATOM      9  C   UNL     1       6.864   4.792  14.542  0.00  0.00    +0.000 C 
ATOM     10  O   UNL     1       7.817   5.443  14.133  0.00  0.00    +0.000 OA
ENDBRANCH   1   9
BRANCH   6  11
ATOM     11  C   UNL     1       4.223   3.268  18.298  0.00  0.00    +0.000 C 
BRANCH  11  12
ATOM     12  C   UNL     1       2.964   3.136  17.446  0.00  0.00    +0.000 C 
BRANCH  12  13
ATOM     13  C   UNL     1       1.708   3.781  18.045  0.00  0.00    +0.000 C 
ATOM     14  C   UNL     1       0.741   2.813  18.714  0.00  0.00    +0.000 C 
ATOM     15  C   UNL     1       1.252   2.757  20.131  0.00  0.00    +0.000 C 
ATOM     16  C   UNL     1       1.700   4.183  20.356  0.00  0.00    +0.000 C 
ATOM     17  O   UNL     1       2.140   4.686  19.086  0.00  0.00    +0.000 OA
ENDBRANCH  12  13
ENDBRANCH  11  12
ENDBRANCH   6  11
TORSDOF 4
ENDMDL
MODEL 3
REMARK VINA RESULT:      -6.7      2.511      3.573
REMARK  Name = 
REMARK  5 active torsions:
REMARK  status: ('A' for Active; 'I' for Inactive)
REMARK    1  A    between atoms: C_1  and  C_2
REMARK    2  A    between atoms: C_2  and  C_4
REMARK    3  A    between atoms: N_9  and  C_10
REMARK    4  A    between atoms: C_10  and  C_11
REMARK    5  A    between atoms: C_11  and  C_12
REMARK                            x       y       z     vdW  Elec       q    Type
REMARK                         _______ _______ _______ _____ _____    ______ ____
ROOT
ATOM      1  C   UNL     1       6.400   5.018  15.965  0.00  0.00    +0.000 A 
ATOM      2  C   UNL     1       7.388   4.554  16.956  0.00  0.00    +0.000 A 
ATOM      3  C   UNL     1       7.082   4.749  18.238  0.00  0.00    +0.000 A 
ATOM      4  C   UNL     1       5.802   5.373  18.629  0.00  0.00    +0.000 A 
ATOM      5  O   UNL     1       5.566   5.551  19.821  0.00  0.00    +0.000 OA
ATOM      6  N   UNL     1       4.933   5.685  17.587  0.00  0.00    +0.000 N 
ATOM      7  N   UNL     1       5.246   5.539  16.248  0.00  0.00    +0.000 NA
ENDROOT
BRANCH   1   9
ATOM      8  C   UNL     1       6.000   3.876  13.698  0.00  0.00    +0.000 C 
ATOM      9  C   UNL     1       6.789   4.865  14.504  0.00  0.00    +0.000 C 
ATOM     10  O   UNL     1       7.691   5.555  14.047  0.00  0.00    +0.000 OA
ENDBRANCH   1   9
BRANCH   6  11
ATOM     11  C   UNL     1       3.603   6.201  17.891  0.00  0.00    +0.000 C 
BRANCH  11  12
ATOM     12  C   UNL     1       2.488   5.171  17.728  0.00  0.00    +0.000 C 
BRANCH  12  13
ATOM     13  C   UNL     1       2.760   3.816  18.394  0.00  0.00    +0.000 C 
ATOM     14  C   UNL     1       2.449   3.755  19.883  0.00  0.00    +0.000 C 
ATOM     15  C   UNL     1       0.998   3.348  19.906  0.00  0.00    +0.000 C 
ATOM     16  C   UNL     1       0.925   2.395  18.735  0.00  0.00    +0.000 C 
ATOM     17  O   UNL     1       1.889   2.845  17.771  0.00  0.00    +0.000 OA
ENDBRANCH  12  13
ENDBRANCH  11  12
ENDBRANCH   6  11
TORSDOF 4
ENDMDL
MODEL 4
REMARK VINA RESULT:      -6.5      2.531      6.198
REMARK  Name = 
REMARK  5 active torsions:
REMARK  status: ('A' for Active; 'I' for Inactive)
REMARK    1  A    between atoms: C_1  and  C_2
REMARK    2  A    between atoms: C_2  and  C_4
REMARK    3  A    between atoms: N_9  and  C_10
REMARK    4  A    between atoms: C_10  and  C_11
REMARK    5  A    between atoms: C_11  and  C_12
REMARK                            x       y       z     vdW  Elec       q    Type
REMARK                         _______ _______ _______ _____ _____    ______ ____
ROOT
ATOM      1  C   UNL     1       2.865   4.055  18.513  0.00  0.00    +0.000 A 
ATOM      2  C   UNL     1       3.530   3.223  19.532  0.00  0.00    +0.000 A 
ATOM      3  C   UNL     1       4.827   3.454  19.735  0.00  0.00    +0.000 A 
ATOM      4  C   UNL     1       5.538   4.512  18.988  0.00  0.00    +0.000 A 
ATOM      5  O   UNL     1       6.737   4.681  19.191  0.00  0.00    +0.000 OA
ATOM      6  N   UNL     1       4.760   5.271  18.117  0.00  0.00    +0.000 N 
ATOM      7  N   UNL     1       3.426   5.020  17.853  0.00  0.00    +0.000 NA
ENDROOT
BRANCH   1   9
ATOM      8  C   UNL     1       0.668   2.968  19.288  0.00  0.00    +0.000 C 
ATOM      9  C   UNL     1       1.406   3.734  18.230  0.00  0.00    +0.000 C 
ATOM     10  O   UNL     1       0.897   4.125  17.188  0.00  0.00    +0.000 OA
ENDBRANCH   1   9
BRANCH   6  11
ATOM     11  C   UNL     1       5.358   6.407  17.425  0.00  0.00    +0.000 C 
BRANCH  11  12
ATOM     12  C   UNL     1       5.615   6.161  15.941  0.00  0.00    +0.000 C 
BRANCH  12  13
ATOM     13  C   UNL     1       6.693   5.112  15.639  0.00  0.00    +0.000 C 
ATOM     14  C   UNL     1       6.168   3.764  15.165  0.00  0.00    +0.000 C 
ATOM     15  C   UNL     1       6.084   3.944  13.670  0.00  0.00    +0.000 C 
ATOM     16  C   UNL     1       7.297   4.802  13.394  0.00  0.00    +0.000 C 
ATOM     17  O   UNL     1       7.501   5.622  14.554  0.00  0.00    +0.000 OA
ENDBRANCH  12  13
ENDBRANCH  11  12
ENDBRANCH   6  11
TORSDOF 4
ENDMDL
MODEL 5
REMARK VINA RESULT:      -6.5      1.491      2.080
REMARK  Name = 
REMARK  5 active torsions:
REMARK  status: ('A' for Active; 'I' for Inactive)
REMARK    1  A    between atoms: C_1  and  C_2
REMARK    2  A    between atoms: C_2  and  C_4
REMARK    3  A    between atoms: N_9  and  C_10
REMARK    4  A    between atoms: C_10  and  C_11
REMARK    5  A    between atoms: C_11  and  C_12
REMARK                            x       y       z     vdW  Elec       q    Type
REMARK                         _______ _______ _______ _____ _____    ______ ____
ROOT
ATOM      1  C   UNL     1       5.902   5.309  17.967  0.00  0.00    +0.000 A 
ATOM      2  C   UNL     1       6.034   4.312  16.890  0.00  0.00    +0.000 A 
ATOM      3  C   UNL     1       4.912   3.711  16.494  0.00  0.00    +0.000 A 
ATOM      4  C   UNL     1       3.608   4.058  17.095  0.00  0.00    +0.000 A 
ATOM      5  O   UNL     1       2.601   3.468  16.715  0.00  0.00    +0.000 OA
ATOM      6  N   UNL     1       3.628   5.076  18.045  0.00  0.00    +0.000 N 
ATOM      7  N   UNL     1       4.783   5.681  18.508  0.00  0.00    +0.000 NA
ENDROOT
BRANCH   1   9
ATOM      8  C   UNL     1       7.640   7.193  17.788  0.00  0.00    +0.000 C 
ATOM      9  C   UNL     1       7.193   5.933  18.469  0.00  0.00    +0.000 C 
ATOM     10  O   UNL     1       7.790   5.411  19.402  0.00  0.00    +0.000 OA
ENDBRANCH   1   9
BRANCH   6  11
ATOM     11  C   UNL     1       2.372   5.558  18.607  0.00  0.00    +0.000 C 
BRANCH  11  12
ATOM     12  C   UNL     1       2.346   5.582  20.133  0.00  0.00    +0.000 C 
BRANCH  12  13
ATOM     13  C   UNL     1       1.404   4.559  20.779  0.00  0.00    +0.000 C 
ATOM     14  C   UNL     1       0.923   3.449  19.854  0.00  0.00    +0.000 C 
ATOM     15  C   UNL     1       1.991   2.397  20.011  0.00  0.00    +0.000 C 
ATOM     16  C   UNL     1       2.337   2.523  21.477  0.00  0.00    +0.000 C 
ATOM     17  O   UNL     1       2.139   3.899  21.834  0.00  0.00    +0.000 OA
ENDBRANCH  12  13
ENDBRANCH  11  12
ENDBRANCH   6  11
TORSDOF 4
ENDMDL
MODEL 6
REMARK VINA RESULT:      -6.4      4.151      5.630
REMARK  Name = 
REMARK  5 active torsions:
REMARK  status: ('A' for Active; 'I' for Inactive)
REMARK    1  A    between atoms: C_1  and  C_2
REMARK    2  A    between atoms: C_2  and  C_4
REMARK    3  A    between atoms: N_9  and  C_10
REMARK    4  A    between atoms: C_10  and  C_11
REMARK    5  A    between atoms: C_11  and  C_12
REMARK                            x       y       z     vdW  Elec       q    Type
REMARK                         _______ _______ _______ _____ _____    ______ ____
ROOT
ATOM      1  C   UNL     1       5.930   3.486  12.714  0.00  0.00    +0.000 A 
ATOM      2  C   UNL     1       7.062   4.311  12.255  0.00  0.00    +0.000 A 
ATOM      3  C   UNL     1       7.637   5.095  13.167  0.00  0.00    +0.000 A 
ATOM      4  C   UNL     1       7.168   5.102  14.568  0.00  0.00    +0.000 A 
ATOM      5  O   UNL     1       7.712   5.852  15.374  0.00  0.00    +0.000 OA
ATOM      6  N   UNL     1       6.143   4.210  14.872  0.00  0.00    +0.000 N 
ATOM      7  N   UNL     1       5.498   3.424  13.935  0.00  0.00    +0.000 NA
ENDROOT
BRANCH   1   9
ATOM      8  C   UNL     1       3.952   3.212  11.096  0.00  0.00    +0.000 C 
ATOM      9  C   UNL     1       5.229   2.654  11.652  0.00  0.00    +0.000 C 
ATOM     10  O   UNL     1       5.733   1.601  11.284  0.00  0.00    +0.000 OA
ENDBRANCH   1   9
BRANCH   6  11
ATOM     11  C   UNL     1       5.697   4.073  16.254  0.00  0.00    +0.000 C 
BRANCH  11  12
ATOM     12  C   UNL     1       4.556   5.014  16.632  0.00  0.00    +0.000 C 
BRANCH  12  13
ATOM     13  C   UNL     1       3.896   4.719  17.984  0.00  0.00    +0.000 C 
ATOM     14  C   UNL     1       2.516   5.332  18.177  0.00  0.00    +0.000 C 
ATOM     15  C   UNL     1       1.598   4.270  17.625  0.00  0.00    +0.000 C 
ATOM     16  C   UNL     1       2.299   3.002  18.052  0.00  0.00    +0.000 C 
ATOM     17  O   UNL     1       3.705   3.288  18.069  0.00  0.00    +0.000 OA
ENDBRANCH  12  13
ENDBRANCH  11  12
ENDBRANCH   6  11
TORSDOF 4
ENDMDL
MODEL 7
REMARK VINA RESULT:      -6.4      1.686      3.195
REMARK  Name = 
REMARK  5 active torsions:
REMARK  status: ('A' for Active; 'I' for Inactive)
REMARK    1  A    between atoms: C_1  and  C_2
REMARK    2  A    between atoms: C_2  and  C_4
REMARK    3  A    between atoms: N_9  and  C_10
REMARK    4  A    between atoms: C_10  and  C_11
REMARK    5  A    between atoms: C_11  and  C_12
REMARK                            x       y       z     vdW  Elec       q    Type
REMARK                         _______ _______ _______ _____ _____    ______ ____
ROOT
ATOM      1  C   UNL     1       6.034   5.672  16.716  0.00  0.00    +0.000 A 
ATOM      2  C   UNL     1       7.290   6.370  17.044  0.00  0.00    +0.000 A 
ATOM      3  C   UNL     1       7.720   6.263  18.301  0.00  0.00    +0.000 A 
ATOM      4  C   UNL     1       6.978   5.460  19.294  0.00  0.00    +0.000 A 
ATOM      5  O   UNL     1       7.398   5.402  20.446  0.00  0.00    +0.000 OA
ATOM      6  N   UNL     1       5.853   4.792  18.818  0.00  0.00    +0.000 N 
ATOM      7  N   UNL     1       5.359   4.925  17.533  0.00  0.00    +0.000 NA
ENDROOT
BRANCH   1   9
ATOM      8  C   UNL     1       5.560   4.666  14.399  0.00  0.00    +0.000 C 
ATOM      9  C   UNL     1       5.507   5.862  15.302  0.00  0.00    +0.000 C 
ATOM     10  O   UNL     1       5.050   6.949  14.973  0.00  0.00    +0.000 OA
ENDBRANCH   1   9
BRANCH   6  11
ATOM     11  C   UNL     1       5.126   3.888  19.703  0.00  0.00    +0.000 C 
BRANCH  11  12
ATOM     12  C   UNL     1       3.969   3.158  19.026  0.00  0.00    +0.000 C 
BRANCH  12  13
ATOM     13  C   UNL     1       2.954   2.528  19.987  0.00  0.00    +0.000 C 
ATOM     14  C   UNL     1       2.297   3.498  20.961  0.00  0.00    +0.000 C 
ATOM     15  C   UNL     1       1.097   3.983  20.189  0.00  0.00    +0.000 C 
ATOM     16  C   UNL     1       0.682   2.736  19.444  0.00  0.00    +0.000 C 
ATOM     17  O   UNL     1       1.878   1.987  19.188  0.00  0.00    +0.000 OA
ENDBRANCH  12  13
ENDBRANCH  11  12
ENDBRANCH   6  11
TORSDOF 4
ENDMDL
MODEL 8
REMARK VINA RESULT:      -6.3      2.298      3.630
REMARK  Name = 
REMARK  5 active torsions:
REMARK  status: ('A' for Active; 'I' for Inactive)
REMARK    1  A    between atoms: C_1  and  C_2
REMARK    2  A    between atoms: C_2  and  C_4
REMARK    3  A    between atoms: N_9  and  C_10
REMARK    4  A    between atoms: C_10  and  C_11
REMARK    5  A    between atoms: C_11  and  C_12
REMARK                            x       y       z     vdW  Elec       q    Type
REMARK                         _______ _______ _______ _____ _____    ______ ____
ROOT
ATOM      1  C   UNL     1       6.217   4.562  15.758  0.00  0.00    +0.000 A 
ATOM      2  C   UNL     1       7.528   4.588  16.432  0.00  0.00    +0.000 A 
ATOM      3  C   UNL     1       7.515   4.757  17.753  0.00  0.00    +0.000 A 
ATOM      4  C   UNL     1       6.242   4.883  18.493  0.00  0.00    +0.000 A 
ATOM      5  O   UNL     1       6.273   5.057  19.708  0.00  0.00    +0.000 OA
ATOM      6  N   UNL     1       5.081   4.759  17.732  0.00  0.00    +0.000 N 
ATOM      7  N   UNL     1       5.068   4.632  16.355  0.00  0.00    +0.000 NA
ENDROOT
BRANCH   1   9
ATOM      8  C   UNL     1       7.471   4.953  13.549  0.00  0.00    +0.000 C 
ATOM      9  C   UNL     1       6.241   4.448  14.242  0.00  0.00    +0.000 C 
ATOM     10  O   UNL     1       5.290   3.939  13.663  0.00  0.00    +0.000 OA
ENDBRANCH   1   9
BRANCH   6  11
ATOM     11  C   UNL     1       3.784   4.759  18.398  0.00  0.00    +0.000 C 
BRANCH  11  12
ATOM     12  C   UNL     1       2.750   3.852  17.737  0.00  0.00    +0.000 C 
BRANCH  12  13
ATOM     13  C   UNL     1       1.370   3.851  18.405  0.00  0.00    +0.000 C 
ATOM     14  C   UNL     1       0.896   2.495  18.909  0.00  0.00    +0.000 C 
ATOM     15  C   UNL     1       1.450   2.446  20.310  0.00  0.00    +0.000 C 
ATOM     16  C   UNL     1       1.306   3.885  20.750  0.00  0.00    +0.000 C 
ATOM     17  O   UNL     1       1.454   4.696  19.575  0.00  0.00    +0.000 OA
ENDBRANCH  12  13
ENDBRANCH  11  12
ENDBRANCH   6  11
TORSDOF 4
ENDMDL
MODEL 9
REMARK VINA RESULT:      -6.3      1.147      1.209
REMARK  Name = 
REMARK  5 active torsions:
REMARK  status: ('A' for Active; 'I' for Inactive)
REMARK    1  A    between atoms: C_1  and  C_2
REMARK    2  A    between atoms: C_2  and  C_4
REMARK    3  A    between atoms: N_9  and  C_10
REMARK    4  A    between atoms: C_10  and  C_11
REMARK    5  A    between atoms: C_11  and  C_12
REMARK                            x       y       z     vdW  Elec       q    Type
REMARK                         _______ _______ _______ _____ _____    ______ ____
ROOT
ATOM      1  C   UNL     1       6.026   4.390  17.799  0.00  0.00    +0.000 A 
ATOM      2  C   UNL     1       5.311   5.094  16.719  0.00  0.00    +0.000 A 
ATOM      3  C   UNL     1       4.072   4.681  16.457  0.00  0.00    +0.000 A 
ATOM      4  C   UNL     1       3.452   3.590  17.237  0.00  0.00    +0.000 A 
ATOM      5  O   UNL     1       2.315   3.226  16.951  0.00  0.00    +0.000 OA
ATOM      6  N   UNL     1       4.219   3.075  18.279  0.00  0.00    +0.000 N 
ATOM      7  N   UNL     1       5.523   3.452  18.540  0.00  0.00    +0.000 NA
ENDROOT
BRANCH   1   9
ATOM      8  C   UNL     1       7.684   5.926  19.023  0.00  0.00    +0.000 C 
ATOM      9  C   UNL     1       7.466   4.813  18.041  0.00  0.00    +0.000 C 
ATOM     10  O   UNL     1       8.370   4.228  17.458  0.00  0.00    +0.000 OA
ENDBRANCH   1   9
BRANCH   6  11
ATOM     11  C   UNL     1       3.641   2.074  19.168  0.00  0.00    +0.000 C 
BRANCH  11  12
ATOM     12  C   UNL     1       3.770   2.416  20.650  0.00  0.00    +0.000 C 
BRANCH  12  13
ATOM     13  C   UNL     1       2.458   2.815  21.337  0.00  0.00    +0.000 C 
ATOM     14  C   UNL     1       2.291   4.306  21.596  0.00  0.00    +0.000 C 
ATOM     15  C   UNL     1       1.644   4.796  20.326  0.00  0.00    +0.000 C 
ATOM     16  C   UNL     1       0.736   3.641  19.975  0.00  0.00    +0.000 C 
ATOM     17  O   UNL     1       1.376   2.448  20.450  0.00  0.00    +0.000 OA
ENDBRANCH  12  13
ENDBRANCH  11  12
ENDBRANCH   6  11
TORSDOF 4
ENDMDL
