MODEL 1
REMARK VINA RESULT:      -7.7      0.000      0.000
REMARK  Name = 
REMARK  6 active torsions:
REMARK  status: ('A' for Active; 'I' for Inactive)
REMARK    1  A    between atoms: C_1  and  O_2
REMARK    2  A    between atoms: O_2  and  C_3
REMARK    3  A    between atoms: C_3  and  C_5
REMARK    4  A    between atoms: C_9  and  N_10
REMARK    5  A    between atoms: C_11  and  C_13
REMARK    6  A    between atoms: C_17  and  N_18
REMARK                            x       y       z     vdW  Elec       q    Type
REMARK                         _______ _______ _______ _____ _____    ______ ____
ROOT
ATOM      1  N   UNL     1       2.839   7.095  18.431  0.00  0.00    +0.000 N 
ATOM      2  C   UNL     1       2.147   7.106  19.635  0.00  0.00    +0.000 C 
ATOM      3  O   UNL     1       2.108   6.181  20.443  0.00  0.00    +0.000 OA
ATOM      4  H   UNL     1       3.008   7.974  17.963  0.00  0.00    +0.000 HD
ENDROOT
BRANCH   1   9
ATOM      5  C   UNL     1       5.531   4.871  17.091  0.00  0.00    +0.000 A 
ATOM      6  C   UNL     1       4.826   3.677  16.885  0.00  0.00    +0.000 A 
ATOM      7  C   UNL     1       3.469   3.617  17.167  0.00  0.00    +0.000 A 
ATOM      8  C   UNL     1       2.814   4.742  17.664  0.00  0.00    +0.000 A 
ATOM      9  C   UNL     1       3.495   5.941  17.907  0.00  0.00    +0.000 A 
ATOM     10  C   UNL     1       4.864   6.004  17.604  0.00  0.00    +0.000 A 
BRANCH   5  11
ATOM     11  C   UNL     1       6.982   4.963  16.765  0.00  0.00    +0.000 C 
ATOM     12  O   UNL     1       7.866   4.479  17.455  0.00  0.00    +0.000 OA
BRANCH  11  14
ATOM     13  C   UNL     1       7.064   4.919  14.413  0.00  0.00    +0.000 C 
ATOM     14  O   UNL     1       7.158   5.674  15.622  0.00  0.00    +0.000 OA
ENDBRANCH  11  14
ENDBRANCH   5  11
ENDBRANCH   1   9
BRANCH   2  15
ATOM     15  C   UNL     1       1.415   8.338  20.034  0.00  0.00    +0.000 A 
ATOM     16  C   UNL     1       1.349   9.362  19.070  0.00  0.00    +0.000 A 
ATOM     17  C   UNL     1       0.844  10.622  19.384  0.00  0.00    +0.000 A 
ATOM     18  C   UNL     1       0.396  10.877  20.675  0.00  0.00    +0.000 A 
ATOM     19  C   UNL     1       0.446   9.858  21.637  0.00  0.00    +0.000 A 
ATOM     20  C   UNL     1       0.948   8.577  21.329  0.00  0.00    +0.000 A 
BRANCH  19  21
ATOM     21  N   UNL     1      -0.005  10.153  23.006  0.00  0.00    +0.000 N 
ATOM     22  O   UNL     1       0.513   9.519  23.936  0.00  0.00    +0.000 OA
ATOM     23  O   UNL     1      -0.877  11.023  23.147  0.00  0.00    +0.000 OA
ENDBRANCH  19  21
ENDBRANCH   2  15
TORSDOF 5
ENDMDL
MODEL 2
REMARK VINA RESULT:      -7.5      1.874      2.450
REMARK  Name = 
REMARK  6 active torsions:
REMARK  status: ('A' for Active; 'I' for Inactive)
REMARK    1  A    between atoms: C_1  and  O_2
REMARK    2  A    between atoms: O_2  and  C_3
REMARK    3  A    between atoms: C_3  and  C_5
REMARK    4  A    between atoms: C_9  and  N_10
REMARK    5  A    between atoms: C_11  and  C_13
REMARK    6  A    between atoms: C_17  and  N_18
REMARK                            x       y       z     vdW  Elec       q    Type
REMARK                         _______ _______ _______ _____ _____    ______ ____
ROOT
ATOM      1  N   UNL     1       4.572   7.017  17.996  0.00  0.00    +0.000 N 
ATOM      2  C   UNL     1       3.305   6.592  18.375  0.00  0.00    +0.000 C 
ATOM      3  O   UNL     1       2.935   5.423  18.441  0.00  0.00    +0.000 OA
ATOM      4  H   UNL     1       4.847   7.966  18.206  0.00  0.00    +0.000 HD
ENDROOT
BRANCH   1   9
ATOM      5  C   UNL     1       6.675   5.054  15.606  0.00  0.00    +0.000 A 
ATOM      6  C   UNL     1       7.574   4.427  16.479  0.00  0.00    +0.000 A 
ATOM      7  C   UNL     1       7.471   4.636  17.847  0.00  0.00    +0.000 A 
ATOM      8  C   UNL     1       6.478   5.477  18.346  0.00  0.00    +0.000 A 
ATOM      9  C   UNL     1       5.582   6.141  17.499  0.00  0.00    +0.000 A 
ATOM     10  C   UNL     1       5.679   5.913  16.117  0.00  0.00    +0.000 A 
BRANCH   5  11
ATOM     11  C   UNL     1       6.752   4.819  14.136  0.00  0.00    +0.000 C 
ATOM     12  O   UNL     1       7.585   5.334  13.408  0.00  0.00    +0.000 OA
BRANCH  11  14
ATOM     13  C   UNL     1       5.920   3.400  12.453  0.00  0.00    +0.000 C 
ATOM     14  O   UNL     1       5.758   3.980  13.747  0.00  0.00    +0.000 OA
ENDBRANCH  11  14
ENDBRANCH   5  11
ENDBRANCH   1   9
BRANCH   2  15
ATOM     15  C   UNL     1       2.297   7.608  18.782  0.00  0.00    +0.000 A 
ATOM     16  C   UNL     1       1.926   8.545  17.798  0.00  0.00    +0.000 A 
ATOM     17  C   UNL     1       1.127   9.644  18.108  0.00  0.00    +0.000 A 
ATOM     18  C   UNL     1       0.686   9.822  19.415  0.00  0.00    +0.000 A 
ATOM     19  C   UNL     1       1.040   8.886  20.397  0.00  0.00    +0.000 A 
ATOM     20  C   UNL     1       1.843   7.767  20.094  0.00  0.00    +0.000 A 
BRANCH  19  21
ATOM     21  N   UNL     1       0.590   9.105  21.780  0.00  0.00    +0.000 N 
ATOM     22  O   UNL     1       1.347   9.718  22.545  0.00  0.00    +0.000 OA
ATOM     23  O   UNL     1      -0.525   8.663  22.096  0.00  0.00    +0.000 OA
ENDBRANCH  19  21
ENDBRANCH   2  15
TORSDOF 5
ENDMDL
MODEL 3
REMARK VINA RESULT:      -7.4      2.227      3.207
REMARK  Name = 
REMARK  6 active torsions:
REMARK  status: ('A' for Active; 'I' for Inactive)
REMARK    1  A    between atoms: C_1  and  O_2
REMARK    2  A    between atoms: O_2  and  C_3
REMARK    3  A    between atoms: C_3  and  C_5
REMARK    4  A    between atoms: C_9  and  N_10
REMARK    5  A    between atoms: C_11  and  C_13
REMARK    6  A    between atoms: C_17  and  N_18
REMARK                            x       y       z     vdW  Elec       q    Type
REMARK                         _______ _______ _______ _____ _____    ______ ____
ROOT
ATOM      1  N   UNL     1       2.167   7.785  19.074  0.00  0.00    +0.000 N 
ATOM      2  C   UNL     1       1.722   8.990  18.545  0.00  0.00    +0.000 C 
ATOM      3  O   UNL     1       1.802   9.322  17.365  0.00  0.00    +0.000 OA
ATOM      4  H   UNL     1       1.841   7.509  19.990  0.00  0.00    +0.000 HD
ENDROOT
BRANCH   1   9
ATOM      5  C   UNL     1       3.226   4.503  17.626  0.00  0.00    +0.000 A 
ATOM      6  C   UNL     1       4.330   4.885  16.853  0.00  0.00    +0.000 A 
ATOM      7  C   UNL     1       4.733   6.213  16.829  0.00  0.00    +0.000 A 
ATOM      8  C   UNL     1       4.029   7.163  17.567  0.00  0.00    +0.000 A 
ATOM      9  C   UNL     1       2.905   6.819  18.328  0.00  0.00    +0.000 A 
ATOM     10  C   UNL     1       2.512   5.472  18.363  0.00  0.00    +0.000 A 
BRANCH   5  11
ATOM     11  C   UNL     1       2.797   3.077  17.688  0.00  0.00    +0.000 C 
ATOM     12  O   UNL     1       3.572   2.133  17.682  0.00  0.00    +0.000 OA
BRANCH  11  14
ATOM     13  C   UNL     1       0.901   2.303  18.848  0.00  0.00    +0.000 C 
ATOM     14  O   UNL     1       1.442   3.000  17.726  0.00  0.00    +0.000 OA
ENDBRANCH  11  14
ENDBRANCH   5  11
ENDBRANCH   1   9
BRANCH   2  15
ATOM     15  C   UNL     1       1.051   9.967  19.444  0.00  0.00    +0.000 A 
ATOM     16  C   UNL     1       1.081  11.313  19.032  0.00  0.00    +0.000 A 
ATOM     17  C   UNL     1       0.641  12.337  19.868  0.00  0.00    +0.000 A 
ATOM     18  C   UNL     1       0.164  12.027  21.137  0.00  0.00    +0.000 A 
ATOM     19  C   UNL     1       0.119  10.687  21.549  0.00  0.00    +0.000 A 
ATOM     20  C   UNL     1       0.555   9.642  20.709  0.00  0.00    +0.000 A 
BRANCH  19  21
ATOM     21  N   UNL     1      -0.361  10.379  22.905  0.00  0.00    +0.000 N 
ATOM     22  O   UNL     1       0.368   9.695  23.636  0.00  0.00    +0.000 OA
ATOM     23  O   UNL     1      -1.470  10.825  23.235  0.00  0.00    +0.000 OA
ENDBRANCH  19  21
ENDBRANCH   2  15
TORSDOF 5
ENDMDL
MODEL 4
REMARK VINA RESULT:      -7.4      3.156      8.846
REMARK  Name = 
REMARK  6 active torsions:
REMARK  status: ('A' for Active; 'I' for Inactive)
REMARK    1  A    between atoms: C_1  and  O_2
REMARK    2  A    between atoms: O_2  and  C_3
REMARK    3  A    between atoms: C_3  and  C_5
REMARK    4  A    between atoms: C_9  and  N_10
REMARK    5  A    between atoms: C_11  and  C_13
REMARK    6  A    between atoms: C_17  and  N_18
REMARK                            x       y       z     vdW  Elec       q    Type
REMARK                         _______ _______ _______ _____ _____    ______ ____
ROOT
ATOM      1  N   UNL     1       4.450   4.307  16.428  0.00  0.00    +0.000 N 
ATOM      2  C   UNL     1       5.757   4.634  16.087  0.00  0.00    +0.000 C 
ATOM      3  O   UNL     1       6.590   5.125  16.845  0.00  0.00    +0.000 OA
ATOM      4  H   UNL     1       3.930   3.695  15.816  0.00  0.00    +0.000 HD
ENDROOT
BRANCH   1   9
ATOM      5  C   UNL     1       2.758   6.254  19.136  0.00  0.00    +0.000 A 
ATOM      6  C   UNL     1       2.671   5.294  20.154  0.00  0.00    +0.000 A 
ATOM      7  C   UNL     1       3.186   4.022  19.951  0.00  0.00    +0.000 A 
ATOM      8  C   UNL     1       3.781   3.701  18.733  0.00  0.00    +0.000 A 
ATOM      9  C   UNL     1       3.859   4.628  17.686  0.00  0.00    +0.000 A 
ATOM     10  C   UNL     1       3.352   5.920  17.901  0.00  0.00    +0.000 A 
BRANCH   5  11
ATOM     11  C   UNL     1       2.236   7.634  19.346  0.00  0.00    +0.000 C 
ATOM     12  O   UNL     1       1.680   8.003  20.368  0.00  0.00    +0.000 OA
BRANCH  11  14
ATOM     13  C   UNL     1       1.422   9.323  17.922  0.00  0.00    +0.000 C 
ATOM     14  O   UNL     1       2.453   8.386  18.236  0.00  0.00    +0.000 OA
ENDBRANCH  11  14
ENDBRANCH   5  11
ENDBRANCH   1   9
BRANCH   2  15
ATOM     15  C   UNL     1       6.236   4.342  14.709  0.00  0.00    +0.000 A 
ATOM     16  C   UNL     1       7.294   5.141  14.236  0.00  0.00    +0.000 A 
ATOM     17  C   UNL     1       7.711   5.080  12.908  0.00  0.00    +0.000 A 
ATOM     18  C   UNL     1       7.071   4.213  12.029  0.00  0.00    +0.000 A 
ATOM     19  C   UNL     1       6.025   3.404  12.497  0.00  0.00    +0.000 A 
ATOM     20  C   UNL     1       5.599   3.453  13.840  0.00  0.00    +0.000 A 
BRANCH  19  21
ATOM     21  N   UNL     1       5.339   2.514  11.547  0.00  0.00    +0.000 N 
ATOM     22  O   UNL     1       5.917   1.473  11.207  0.00  0.00    +0.000 OA
ATOM     23  O   UNL     1       4.218   2.861  11.145  0.00  0.00    +0.000 OA
ENDBRANCH  19  21
ENDBRANCH   2  15
TORSDOF 5
ENDMDL
MODEL 5
REMARK VINA RESULT:      -7.4      0.631      1.269
REMARK  Name = 
REMARK  6 active torsions:
REMARK  status: ('A' for Active; 'I' for Inactive)
REMARK    1  A    between atoms: C_1  and  O_2
REMARK    2  A    between atoms: O_2  and  C_3
REMARK    3  A    between atoms: C_3  and  C_5
REMARK    4  A    between atoms: C_9  and  N_10
REMARK    5  A    between atoms: C_11  and  C_13
REMARK    6  A    between atoms: C_17  and  N_18
REMARK                            x       y       z     vdW  Elec       q    Type
REMARK                         _______ _______ _______ _____ _____    ______ ____
ROOT
ATOM      1  N   UNL     1       2.589   7.219  18.303  0.00  0.00    +0.000 N 
ATOM      2  C   UNL     1       2.119   7.252  19.609  0.00  0.00    +0.000 C 
ATOM      3  O   UNL     1       2.327   6.394  20.464  0.00  0.00    +0.000 OA
ATOM      4  H   UNL     1       2.572   8.071  17.761  0.00  0.00    +0.000 HD
ENDROOT
BRANCH   1   9
ATOM      5  C   UNL     1       5.236   5.189  16.611  0.00  0.00    +0.000 A 
ATOM      6  C   UNL     1       4.658   3.913  16.625  0.00  0.00    +0.000 A 
ATOM      7  C   UNL     1       3.395   3.731  17.171  0.00  0.00    +0.000 A 
ATOM      8  C   UNL     1       2.711   4.819  17.711  0.00  0.00    +0.000 A 
ATOM      9  C   UNL     1       3.272   6.101  17.738  0.00  0.00    +0.000 A 
ATOM     10  C   UNL     1       4.542   6.284  17.169  0.00  0.00    +0.000 A 
BRANCH   5  11
ATOM     11  C   UNL     1       6.579   5.409  16.003  0.00  0.00    +0.000 C 
ATOM     12  O   UNL     1       6.807   5.312  14.807  0.00  0.00    +0.000 OA
BRANCH  11  14
ATOM     13  C   UNL     1       7.804   4.628  17.855  0.00  0.00    +0.000 C 
ATOM     14  O   UNL     1       7.485   5.702  16.970  0.00  0.00    +0.000 OA
ENDBRANCH  11  14
ENDBRANCH   5  11
ENDBRANCH   1   9
BRANCH   2  15
ATOM     15  C   UNL     1       1.331   8.430  20.061  0.00  0.00    +0.000 A 
ATOM     16  C   UNL     1       1.251   9.509  19.159  0.00  0.00    +0.000 A 
ATOM     17  C   UNL     1       0.691  10.728  19.534  0.00  0.00    +0.000 A 
ATOM     18  C   UNL     1       0.200  10.887  20.826  0.00  0.00    +0.000 A 
ATOM     19  C   UNL     1       0.263   9.812  21.726  0.00  0.00    +0.000 A 
ATOM     20  C   UNL     1       0.822   8.572  21.355  0.00  0.00    +0.000 A 
BRANCH  19  21
ATOM     21  N   UNL     1      -0.234  10.007  23.097  0.00  0.00    +0.000 N 
ATOM     22  O   UNL     1      -1.323  10.577  23.242  0.00  0.00    +0.000 OA
ATOM     23  O   UNL     1       0.471   9.585  24.026  0.00  0.00    +0.000 OA
ENDBRANCH  19  21
ENDBRANCH   2  15
TORSDOF 5
ENDMDL
MODEL 6
REMARK VINA RESULT:      -7.3      1.419      1.882
REMARK  Name = 
REMARK  6 active torsions:
REMARK  status: ('A' for Active; 'I' for Inactive)
REMARK    1  A    between atoms: C_1  and  O_2
REMARK    2  A    between atoms: O_2  and  C_3
REMARK    3  A    between atoms: C_3  and  C_5
REMARK    4  A    between atoms: C_9  and  N_10
REMARK    5  A    between atoms: C_11  and  C_13
REMARK    6  A    between atoms: C_17  and  N_18
REMARK                            x       y       z     vdW  Elec       q    Type
REMARK                         _______ _______ _______ _____ _____    ______ ____
ROOT
ATOM      1  N   UNL     1       2.164   7.412  19.039  0.00  0.00    +0.000 N 
ATOM      2  C   UNL     1       1.835   8.647  18.495  0.00  0.00    +0.000 C 
ATOM      3  O   UNL     1       2.012   8.981  17.326  0.00  0.00    +0.000 OA
ATOM      4  H   UNL     1       1.763   7.153  19.929  0.00  0.00    +0.000 HD
ENDROOT
BRANCH   1   9
ATOM      5  C   UNL     1       4.909   5.690  17.170  0.00  0.00    +0.000 A 
ATOM      6  C   UNL     1       4.339   4.431  16.940  0.00  0.00    +0.000 A 
ATOM      7  C   UNL     1       3.051   4.162  17.381  0.00  0.00    +0.000 A 
ATOM      8  C   UNL     1       2.333   5.144  18.060  0.00  0.00    +0.000 A 
ATOM      9  C   UNL     1       2.883   6.403  18.330  0.00  0.00    +0.000 A 
ATOM     10  C   UNL     1       4.180   6.677  17.867  0.00  0.00    +0.000 A 
BRANCH   5  11
ATOM     11  C   UNL     1       6.279   6.007  16.678  0.00  0.00    +0.000 C 
ATOM     12  O   UNL     1       6.626   5.893  15.513  0.00  0.00    +0.000 OA
BRANCH  11  14
ATOM     13  C   UNL     1       7.668   7.692  17.556  0.00  0.00    +0.000 C 
ATOM     14  O   UNL     1       7.063   6.408  17.711  0.00  0.00    +0.000 OA
ENDBRANCH  11  14
ENDBRANCH   5  11
ENDBRANCH   1   9
BRANCH   2  15
ATOM     15  C   UNL     1       1.174   9.661  19.359  0.00  0.00    +0.000 A 
ATOM     16  C   UNL     1       1.181  10.986  18.881  0.00  0.00    +0.000 A 
ATOM     17  C   UNL     1       0.750  12.046  19.675  0.00  0.00    +0.000 A 
ATOM     18  C   UNL     1       0.303  11.794  20.968  0.00  0.00    +0.000 A 
ATOM     19  C   UNL     1       0.280  10.476  21.447  0.00  0.00    +0.000 A 
ATOM     20  C   UNL     1       0.708   9.395  20.649  0.00  0.00    +0.000 A 
BRANCH  19  21
ATOM     21  N   UNL     1      -0.167  10.230  22.826  0.00  0.00    +0.000 N 
ATOM     22  O   UNL     1      -1.292  10.633  23.150  0.00  0.00    +0.000 OA
ATOM     23  O   UNL     1       0.612   9.632  23.583  0.00  0.00    +0.000 OA
ENDBRANCH  19  21
ENDBRANCH   2  15
TORSDOF 5
ENDMDL
MODEL 7
REMARK VINA RESULT:      -7.3      6.516      9.472
REMARK  Name = 
REMARK  6 active torsions:
REMARK  status: ('A' for Active; 'I' for Inactive)
REMARK    1  A    between atoms: C_1  and  O_2
REMARK    2  A    between atoms: O_2  and  C_3
REMARK    3  A    between atoms: C_3  and  C_5
REMARK    4  A    between atoms: C_9  and  N_10
REMARK    5  A    between atoms: C_11  and  C_13
REMARK    6  A    between atoms: C_17  and  N_18
REMARK                            x       y       z     vdW  Elec       q    Type
REMARK                         _______ _______ _______ _____ _____    ______ ____
ROOT
ATOM      1  N   UNL     1       9.156   9.149  19.043  0.00  0.00    +0.000 N 
ATOM      2  C   UNL     1       8.147   8.844  18.138  0.00  0.00    +0.000 C 
ATOM      3  O   UNL     1       7.554   9.655  17.431  0.00  0.00    +0.000 OA
ATOM      4  H   UNL     1       9.737   8.400  19.389  0.00  0.00    +0.000 HD
ENDROOT
BRANCH   1   9
ATOM      5  C   UNL     1      10.497  12.622  18.679  0.00  0.00    +0.000 A 
ATOM      6  C   UNL     1      10.316  13.125  19.974  0.00  0.00    +0.000 A 
ATOM      7  C   UNL     1       9.775  12.315  20.962  0.00  0.00    +0.000 A 
ATOM      8  C   UNL     1       9.405  11.006  20.660  0.00  0.00    +0.000 A 
ATOM      9  C   UNL     1       9.546  10.482  19.369  0.00  0.00    +0.000 A 
ATOM     10  C   UNL     1      10.110  11.298  18.376  0.00  0.00    +0.000 A 
BRANCH   5  11
ATOM     11  C   UNL     1      11.104  13.467  17.612  0.00  0.00    +0.000 C 
ATOM     12  O   UNL     1      12.033  13.107  16.906  0.00  0.00    +0.000 OA
BRANCH  11  14
ATOM     13  C   UNL     1      11.317  15.771  17.180  0.00  0.00    +0.000 C 
ATOM     14  O   UNL     1      10.488  14.676  17.569  0.00  0.00    +0.000 OA
ENDBRANCH  11  14
ENDBRANCH   5  11
ENDBRANCH   1   9
BRANCH   2  15
ATOM     15  C   UNL     1       7.753   7.422  17.951  0.00  0.00    +0.000 A 
ATOM     16  C   UNL     1       8.055   6.548  19.013  0.00  0.00    +0.000 A 
ATOM     17  C   UNL     1       7.894   5.170  18.887  0.00  0.00    +0.000 A 
ATOM     18  C   UNL     1       7.428   4.643  17.688  0.00  0.00    +0.000 A 
ATOM     19  C   UNL     1       7.112   5.508  16.629  0.00  0.00    +0.000 A 
ATOM     20  C   UNL     1       7.265   6.904  16.748  0.00  0.00    +0.000 A 
BRANCH  19  21
ATOM     21  N   UNL     1       6.648   4.931  15.358  0.00  0.00    +0.000 N 
ATOM     22  O   UNL     1       5.737   4.094  15.400  0.00  0.00    +0.000 OA
ATOM     23  O   UNL     1       7.198   5.322  14.318  0.00  0.00    +0.000 OA
ENDBRANCH  19  21
ENDBRANCH   2  15
TORSDOF 5
ENDMDL
MODEL 8
REMARK VINA RESULT:      -7.3      3.862      8.871
REMARK  Name = 
REMARK  6 active torsions:
REMARK  status: ('A' for Active; 'I' for Inactive)
REMARK    1  A    between atoms: C_1  and  O_2
REMARK    2  A    between atoms: O_2  and  C_3
REMARK    3  A    between atoms: C_3  and  C_5
REMARK    4  A    between atoms: C_9  and  N_10
REMARK    5  A    between atoms: C_11  and  C_13
REMARK    6  A    between atoms: C_17  and  N_18
REMARK                            x       y       z     vdW  Elec       q    Type
REMARK                         _______ _______ _______ _____ _____    ______ ____
ROOT
ATOM      1  N   UNL     1       4.228   4.741  16.426  0.00  0.00    +0.000 N 
ATOM      2  C   UNL     1       5.602   4.711  16.226  0.00  0.00    +0.000 C 
ATOM      3  O   UNL     1       6.453   4.882  17.096  0.00  0.00    +0.000 OA
ATOM      4  H   UNL     1       3.627   4.353  15.713  0.00  0.00    +0.000 HD
ENDROOT
BRANCH   1   9
ATOM      5  C   UNL     1       2.654   4.467  19.808  0.00  0.00    +0.000 A 
ATOM      6  C   UNL     1       2.423   5.814  20.116  0.00  0.00    +0.000 A 
ATOM      7  C   UNL     1       2.767   6.802  19.203  0.00  0.00    +0.000 A 
ATOM      8  C   UNL     1       3.348   6.449  17.987  0.00  0.00    +0.000 A 
ATOM      9  C   UNL     1       3.618   5.114  17.661  0.00  0.00    +0.000 A 
ATOM     10  C   UNL     1       3.253   4.117  18.579  0.00  0.00    +0.000 A 
BRANCH   5  11
ATOM     11  C   UNL     1       2.265   3.391  20.763  0.00  0.00    +0.000 C 
ATOM     12  O   UNL     1       2.332   3.503  21.977  0.00  0.00    +0.000 OA
BRANCH  11  14
ATOM     13  C   UNL     1       0.576   2.394  19.462  0.00  0.00    +0.000 C 
ATOM     14  O   UNL     1       1.858   2.290  20.082  0.00  0.00    +0.000 OA
ENDBRANCH  11  14
ENDBRANCH   5  11
ENDBRANCH   1   9
BRANCH   2  15
ATOM     15  C   UNL     1       6.125   4.406  14.868  0.00  0.00    +0.000 A 
ATOM     16  C   UNL     1       7.251   5.145  14.454  0.00  0.00    +0.000 A 
ATOM     17  C   UNL     1       7.724   5.074  13.146  0.00  0.00    +0.000 A 
ATOM     18  C   UNL     1       7.073   4.259  12.226  0.00  0.00    +0.000 A 
ATOM     19  C   UNL     1       5.960   3.509  12.634  0.00  0.00    +0.000 A 
ATOM     20  C   UNL     1       5.476   3.568  13.957  0.00  0.00    +0.000 A 
BRANCH  19  21
ATOM     21  N   UNL     1       5.265   2.675  11.641  0.00  0.00    +0.000 N 
ATOM     22  O   UNL     1       4.184   3.083  11.197  0.00  0.00    +0.000 OA
ATOM     23  O   UNL     1       5.808   1.611  11.308  0.00  0.00    +0.000 OA
ENDBRANCH  19  21
ENDBRANCH   2  15
TORSDOF 5
ENDMDL
MODEL 9
REMARK VINA RESULT:      -7.3      3.938      9.098
REMARK  Name = 
REMARK  6 active torsions:
REMARK  status: ('A' for Active; 'I' for Inactive)
REMARK    1  A    between atoms: C_1  and  O_2
REMARK    2  A    between atoms: O_2  and  C_3
REMARK    3  A    between atoms: C_3  and  C_5
REMARK    4  A    between atoms: C_9  and  N_10
REMARK    5  A    between atoms: C_11  and  C_13
REMARK    6  A    between atoms: C_17  and  N_18
REMARK                            x       y       z     vdW  Elec       q    Type
REMARK                         _______ _______ _______ _____ _____    ______ ____
ROOT
ATOM      1  N   UNL     1       4.214   4.722  16.196  0.00  0.00    +0.000 N 
ATOM      2  C   UNL     1       5.584   4.516  16.093  0.00  0.00    +0.000 C 
ATOM      3  O   UNL     1       6.371   4.477  17.036  0.00  0.00    +0.000 OA
ATOM      4  H   UNL     1       3.631   4.496  15.403  0.00  0.00    +0.000 HD
ENDROOT
BRANCH   1   9
ATOM      5  C   UNL     1       2.033   4.424  19.219  0.00  0.00    +0.000 A 
ATOM      6  C   UNL     1       2.245   5.664  19.837  0.00  0.00    +0.000 A 
ATOM      7  C   UNL     1       3.086   6.597  19.246  0.00  0.00    +0.000 A 
ATOM      8  C   UNL     1       3.723   6.292  18.045  0.00  0.00    +0.000 A 
ATOM      9  C   UNL     1       3.554   5.052  17.417  0.00  0.00    +0.000 A 
ATOM     10  C   UNL     1       2.689   4.118  18.008  0.00  0.00    +0.000 A 
BRANCH   5  11
ATOM     11  C   UNL     1       1.110   3.422  19.823  0.00  0.00    +0.000 C 
ATOM     12  O   UNL     1       0.445   2.631  19.172  0.00  0.00    +0.000 OA
BRANCH  11  14
ATOM     13  C   UNL     1       1.838   2.536  21.879  0.00  0.00    +0.000 C 
ATOM     14  O   UNL     1       1.111   3.544  21.175  0.00  0.00    +0.000 OA
ENDBRANCH  11  14
ENDBRANCH   5  11
ENDBRANCH   1   9
BRANCH   2  15
ATOM     15  C   UNL     1       6.178   4.278  14.751  0.00  0.00    +0.000 A 
ATOM     16  C   UNL     1       7.225   5.139  14.372  0.00  0.00    +0.000 A 
ATOM     17  C   UNL     1       7.742   5.128  13.078  0.00  0.00    +0.000 A 
ATOM     18  C   UNL     1       7.214   4.249  12.138  0.00  0.00    +0.000 A 
ATOM     19  C   UNL     1       6.180   3.378  12.512  0.00  0.00    +0.000 A 
ATOM     20  C   UNL     1       5.654   3.377  13.820  0.00  0.00    +0.000 A 
BRANCH  19  21
ATOM     21  N   UNL     1       5.612   2.476  11.498  0.00  0.00    +0.000 N 
ATOM     22  O   UNL     1       6.341   1.582  11.046  0.00  0.00    +0.000 OA
ATOM     23  O   UNL     1       4.435   2.665  11.158  0.00  0.00    +0.000 OA
ENDBRANCH  19  21
ENDBRANCH   2  15
TORSDOF 5
ENDMDL
