MODEL 1
REMARK VINA RESULT:      -8.8      0.000      0.000
REMARK  Name = 
REMARK  5 active torsions:
REMARK  status: ('A' for Active; 'I' for Inactive)
REMARK    1  A    between atoms: C_2  and  C_3
REMARK    2  A    between atoms: C_3  and  N_4
REMARK    3  A    between atoms: C_10  and  C_11
REMARK    4  A    between atoms: N_21  and  N_22
REMARK    5  A    between atoms: C_23  and  C_25
REMARK                            x       y       z     vdW  Elec       q    Type
REMARK                         _______ _______ _______ _____ _____    ______ ____
ROOT
ATOM      1  N   UNL     1       2.062   3.596  19.687  0.00  0.00    +0.000 NA
ATOM      2  C   UNL     1       2.071   4.603  20.779  0.00  0.00    +0.000 C 
ATOM      3  C   UNL     1       2.899   5.872  20.514  0.00  0.00    +0.000 C 
ATOM      4  N   UNL     1       2.469   6.505  19.275  0.00  0.00    +0.000 N 
ATOM      5  C   UNL     1       1.944   7.763  19.296  0.00  0.00    +0.000 A 
ATOM      6  N   UNL     1       1.379   8.320  20.352  0.00  0.00    +0.000 NA
ATOM      7  C   UNL     1       0.941   9.611  20.067  0.00  0.00    +0.000 A 
ATOM      8  C   UNL     1       1.268  10.059  18.807  0.00  0.00    +0.000 A 
ATOM      9  S   UNL     1       2.051   8.823  17.927  0.00  0.00    +0.000 S 
ATOM     10  C   UNL     1       2.456   5.641  18.095  0.00  0.00    +0.000 C 
ATOM     11  C   UNL     1       1.779   4.270  18.395  0.00  0.00    +0.000 C 
ENDROOT
BRANCH   7  12
ATOM     12  C   UNL     1       0.211  10.429  21.038  0.00  0.00    +0.000 A 
ATOM     13  C   UNL     1       0.075  11.808  20.845  0.00  0.00    +0.000 A 
ATOM     14  C   UNL     1      -0.625  12.591  21.770  0.00  0.00    +0.000 A 
ATOM     15  C   UNL     1      -1.188  12.007  22.904  0.00  0.00    +0.000 A 
ATOM     16  C   UNL     1      -1.060  10.636  23.111  0.00  0.00    +0.000 A 
ATOM     17  C   UNL     1      -0.365   9.853  22.185  0.00  0.00    +0.000 A 
ENDBRANCH   7  12
BRANCH   1  18
ATOM     18  C   UNL     1       3.286   2.763  19.659  0.00  0.00    +0.000 C 
BRANCH  18  20
ATOM     19  O   UNL     1       3.229   1.742  17.437  0.00  0.00    +0.000 OA
ATOM     20  C   UNL     1       3.769   2.539  18.206  0.00  0.00    +0.000 C 
ATOM     21  N   UNL     1       4.897   3.269  17.881  0.00  0.00    +0.000 N 
ATOM     22  H   UNL     1       5.140   4.058  18.485  0.00  0.00    +0.000 HD
BRANCH  21  23
ATOM     23  N   UNL     1       5.330   3.352  16.545  0.00  0.00    +0.000 N 
ATOM     24  C   UNL     1       5.826   4.568  16.092  0.00  0.00    +0.000 C 
ATOM     25  O   UNL     1       5.787   5.575  16.797  0.00  0.00    +0.000 OA
ATOM     26  H   UNL     1       5.445   2.491  16.014  0.00  0.00    +0.000 HD
BRANCH  24  27
ATOM     27  C   UNL     1       6.385   4.555  14.756  0.00  0.00    +0.000 A 
ATOM     28  C   UNL     1       6.014   3.836  13.633  0.00  0.00    +0.000 A 
ATOM     29  C   UNL     1       6.914   4.191  12.600  0.00  0.00    +0.000 A 
ATOM     30  C   UNL     1       7.778   5.108  13.150  0.00  0.00    +0.000 A 
ATOM     31  O   UNL     1       7.465   5.343  14.453  0.00  0.00    +0.000 OA
ENDBRANCH  24  27
ENDBRANCH  21  23
ENDBRANCH  18  20
ENDBRANCH   1  18
TORSDOF 5
ENDMDL
MODEL 2
REMARK VINA RESULT:      -8.4      0.997      1.370
REMARK  Name = 
REMARK  5 active torsions:
REMARK  status: ('A' for Active; 'I' for Inactive)
REMARK    1  A    between atoms: C_2  and  C_3
REMARK    2  A    between atoms: C_3  and  N_4
REMARK    3  A    between atoms: C_10  and  C_11
REMARK    4  A    between atoms: N_21  and  N_22
REMARK    5  A    between atoms: C_23  and  C_25
REMARK                            x       y       z     vdW  Elec       q    Type
REMARK                         _______ _______ _______ _____ _____    ______ ____
ROOT
ATOM      1  N   UNL     1       2.082   4.309  19.368  0.00  0.00    +0.000 NA
ATOM      2  C   UNL     1       1.831   5.209  20.522  0.00  0.00    +0.000 C 
ATOM      3  C   UNL     1       2.588   6.548  20.504  0.00  0.00    +0.000 C 
ATOM      4  N   UNL     1       2.319   7.263  19.265  0.00  0.00    +0.000 N 
ATOM      5  C   UNL     1       1.699   8.477  19.296  0.00  0.00    +0.000 A 
ATOM      6  N   UNL     1       0.926   8.897  20.281  0.00  0.00    +0.000 NA
ATOM      7  C   UNL     1       0.439  10.178  20.030  0.00  0.00    +0.000 A 
ATOM      8  C   UNL     1       0.933  10.760  18.884  0.00  0.00    +0.000 A 
ATOM      9  S   UNL     1       1.945   9.664  18.055  0.00  0.00    +0.000 S 
ATOM     10  C   UNL     1       2.568   6.513  18.035  0.00  0.00    +0.000 C 
ATOM     11  C   UNL     1       1.963   5.079  18.104  0.00  0.00    +0.000 C 
ENDROOT
BRANCH   7  12
ATOM     12  C   UNL     1      -0.503  10.853  20.924  0.00  0.00    +0.000 A 
ATOM     13  C   UNL     1      -0.552  10.523  22.283  0.00  0.00    +0.000 A 
ATOM     14  C   UNL     1      -1.450  11.169  23.141  0.00  0.00    +0.000 A 
ATOM     15  C   UNL     1      -2.315  12.146  22.649  0.00  0.00    +0.000 A 
ATOM     16  C   UNL     1      -2.278  12.484  21.299  0.00  0.00    +0.000 A 
ATOM     17  C   UNL     1      -1.379  11.842  20.443  0.00  0.00    +0.000 A 
ENDBRANCH   7  12
BRANCH   1  18
ATOM     18  C   UNL     1       3.355   3.563  19.483  0.00  0.00    +0.000 C 
BRANCH  18  20
ATOM     19  O   UNL     1       3.215   2.208  17.451  0.00  0.00    +0.000 OA
ATOM     20  C   UNL     1       3.828   3.058  18.098  0.00  0.00    +0.000 C 
ATOM     21  N   UNL     1       5.030   3.607  17.693  0.00  0.00    +0.000 N 
ATOM     22  H   UNL     1       5.349   4.453  18.170  0.00  0.00    +0.000 HD
BRANCH  21  23
ATOM     23  N   UNL     1       5.485   3.427  16.373  0.00  0.00    +0.000 N 
ATOM     24  C   UNL     1       5.513   4.535  15.535  0.00  0.00    +0.000 C 
ATOM     25  O   UNL     1       5.052   5.617  15.893  0.00  0.00    +0.000 OA
ATOM     26  H   UNL     1       5.950   2.554  16.131  0.00  0.00    +0.000 HD
BRANCH  24  27
ATOM     27  C   UNL     1       6.119   4.319  14.237  0.00  0.00    +0.000 A 
ATOM     28  C   UNL     1       7.256   4.870  13.671  0.00  0.00    +0.000 A 
ATOM     29  C   UNL     1       7.376   4.324  12.372  0.00  0.00    +0.000 A 
ATOM     30  C   UNL     1       6.310   3.468  12.221  0.00  0.00    +0.000 A 
ATOM     31  O   UNL     1       5.545   3.450  13.345  0.00  0.00    +0.000 OA
ENDBRANCH  24  27
ENDBRANCH  21  23
ENDBRANCH  18  20
ENDBRANCH   1  18
TORSDOF 5
ENDMDL
MODEL 3
REMARK VINA RESULT:      -7.2      3.854      6.677
REMARK  Name = 
REMARK  5 active torsions:
REMARK  status: ('A' for Active; 'I' for Inactive)
REMARK    1  A    between atoms: C_2  and  C_3
REMARK    2  A    between atoms: C_3  and  N_4
REMARK    3  A    between atoms: C_10  and  C_11
REMARK    4  A    between atoms: N_21  and  N_22
REMARK    5  A    between atoms: C_23  and  C_25
REMARK                            x       y       z     vdW  Elec       q    Type
REMARK                         _______ _______ _______ _____ _____    ______ ____
ROOT
ATOM      1  N   UNL     1      -0.088   9.412  20.910  0.00  0.00    +0.000 NA
ATOM      2  C   UNL     1      -0.956   9.707  22.079  0.00  0.00    +0.000 C 
ATOM      3  C   UNL     1      -0.761  11.088  22.726  0.00  0.00    +0.000 C 
ATOM      4  N   UNL     1      -0.916  12.138  21.730  0.00  0.00    +0.000 N 
ATOM      5  C   UNL     1      -1.917  13.057  21.855  0.00  0.00    +0.000 A 
ATOM      6  N   UNL     1      -3.029  12.864  22.540  0.00  0.00    +0.000 NA
ATOM      7  C   UNL     1      -3.856  13.984  22.486  0.00  0.00    +0.000 A 
ATOM      8  C   UNL     1      -3.310  15.064  21.829  0.00  0.00    +0.000 A 
ATOM      9  S   UNL     1      -1.783  14.653  21.186  0.00  0.00    +0.000 S 
ATOM     10  C   UNL     1      -0.083  12.006  20.536  0.00  0.00    +0.000 C 
ATOM     11  C   UNL     1      -0.123  10.557  19.965  0.00  0.00    +0.000 C 
ENDROOT
BRANCH   7  12
ATOM     12  C   UNL     1      -5.186  14.012  23.096  0.00  0.00    +0.000 A 
ATOM     13  C   UNL     1      -5.775  12.834  23.569  0.00  0.00    +0.000 A 
ATOM     14  C   UNL     1      -7.045  12.858  24.157  0.00  0.00    +0.000 A 
ATOM     15  C   UNL     1      -7.746  14.058  24.269  0.00  0.00    +0.000 A 
ATOM     16  C   UNL     1      -7.174  15.239  23.802  0.00  0.00    +0.000 A 
ATOM     17  C   UNL     1      -5.903  15.215  23.220  0.00  0.00    +0.000 A 
ENDBRANCH   7  12
BRANCH   1  18
ATOM     18  C   UNL     1       1.284   9.011  21.296  0.00  0.00    +0.000 C 
BRANCH  18  20
ATOM     19  O   UNL     1       2.079   8.112  19.164  0.00  0.00    +0.000 OA
ATOM     20  C   UNL     1       1.824   7.909  20.352  0.00  0.00    +0.000 C 
ATOM     21  N   UNL     1       1.929   6.670  20.955  0.00  0.00    +0.000 N 
ATOM     22  H   UNL     1       1.916   6.638  21.977  0.00  0.00    +0.000 HD
BRANCH  21  23
ATOM     23  N   UNL     1       2.607   5.620  20.309  0.00  0.00    +0.000 N 
ATOM     24  C   UNL     1       1.896   4.462  20.018  0.00  0.00    +0.000 C 
ATOM     25  O   UNL     1       0.740   4.309  20.408  0.00  0.00    +0.000 OA
ATOM     26  H   UNL     1       3.526   5.803  19.911  0.00  0.00    +0.000 HD
BRANCH  24  27
ATOM     27  C   UNL     1       2.607   3.475  19.231  0.00  0.00    +0.000 A 
ATOM     28  C   UNL     1       2.572   2.092  19.278  0.00  0.00    +0.000 A 
ATOM     29  C   UNL     1       3.481   1.624  18.300  0.00  0.00    +0.000 A 
ATOM     30  C   UNL     1       4.014   2.746  17.710  0.00  0.00    +0.000 A 
ATOM     31  O   UNL     1       3.488   3.873  18.259  0.00  0.00    +0.000 OA
ENDBRANCH  24  27
ENDBRANCH  21  23
ENDBRANCH  18  20
ENDBRANCH   1  18
TORSDOF 5
ENDMDL
MODEL 4
REMARK VINA RESULT:      -7.1      4.876     10.084
REMARK  Name = 
REMARK  5 active torsions:
REMARK  status: ('A' for Active; 'I' for Inactive)
REMARK    1  A    between atoms: C_2  and  C_3
REMARK    2  A    between atoms: C_3  and  N_4
REMARK    3  A    between atoms: C_10  and  C_11
REMARK    4  A    between atoms: N_21  and  N_22
REMARK    5  A    between atoms: C_23  and  C_25
REMARK                            x       y       z     vdW  Elec       q    Type
REMARK                         _______ _______ _______ _____ _____    ______ ____
ROOT
ATOM      1  N   UNL     1       0.118  10.926  22.643  0.00  0.00    +0.000 NA
ATOM      2  C   UNL     1      -0.045   9.449  22.629  0.00  0.00    +0.000 C 
ATOM      3  C   UNL     1      -0.355   8.823  21.259  0.00  0.00    +0.000 C 
ATOM      4  N   UNL     1       0.658   9.208  20.288  0.00  0.00    +0.000 N 
ATOM      5  C   UNL     1       1.441   8.256  19.702  0.00  0.00    +0.000 A 
ATOM      6  N   UNL     1       1.685   7.066  20.220  0.00  0.00    +0.000 NA
ATOM      7  C   UNL     1       2.514   6.316  19.389  0.00  0.00    +0.000 A 
ATOM      8  C   UNL     1       2.815   6.919  18.189  0.00  0.00    +0.000 A 
ATOM      9  S   UNL     1       2.136   8.484  18.128  0.00  0.00    +0.000 S 
ATOM     10  C   UNL     1       0.896  10.644  20.156  0.00  0.00    +0.000 C 
ATOM     11  C   UNL     1       1.033  11.333  21.547  0.00  0.00    +0.000 C 
ENDROOT
BRANCH   7  12
ATOM     12  C   UNL     1       3.005   4.986  19.758  0.00  0.00    +0.000 A 
ATOM     13  C   UNL     1       2.317   4.212  20.699  0.00  0.00    +0.000 A 
ATOM     14  C   UNL     1       2.782   2.939  21.051  0.00  0.00    +0.000 A 
ATOM     15  C   UNL     1       3.945   2.430  20.474  0.00  0.00    +0.000 A 
ATOM     16  C   UNL     1       4.641   3.190  19.537  0.00  0.00    +0.000 A 
ATOM     17  C   UNL     1       4.174   4.458  19.182  0.00  0.00    +0.000 A 
ENDBRANCH   7  12
BRANCH   1  18
ATOM     18  C   UNL     1      -1.172  11.649  22.632  0.00  0.00    +0.000 C 
BRANCH  18  20
ATOM     19  O   UNL     1      -0.422  13.929  23.105  0.00  0.00    +0.000 OA
ATOM     20  C   UNL     1      -0.961  13.151  22.318  0.00  0.00    +0.000 C 
ATOM     21  N   UNL     1      -1.493  13.539  21.102  0.00  0.00    +0.000 N 
ATOM     22  H   UNL     1      -1.715  12.804  20.426  0.00  0.00    +0.000 HD
BRANCH  21  23
ATOM     23  N   UNL     1      -1.195  14.806  20.568  0.00  0.00    +0.000 N 
ATOM     24  C   UNL     1      -0.361  14.869  19.458  0.00  0.00    +0.000 C 
ATOM     25  O   UNL     1       0.193  13.863  19.019  0.00  0.00    +0.000 OA
ATOM     26  H   UNL     1      -1.737  15.609  20.882  0.00  0.00    +0.000 HD
BRANCH  24  27
ATOM     27  C   UNL     1      -0.203  16.184  18.871  0.00  0.00    +0.000 A 
ATOM     28  C   UNL     1      -1.093  17.240  18.775  0.00  0.00    +0.000 A 
ATOM     29  C   UNL     1      -0.427  18.279  18.085  0.00  0.00    +0.000 A 
ATOM     30  C   UNL     1       0.832  17.801  17.804  0.00  0.00    +0.000 A 
ATOM     31  O   UNL     1       0.983  16.537  18.280  0.00  0.00    +0.000 OA
ENDBRANCH  24  27
ENDBRANCH  21  23
ENDBRANCH  18  20
ENDBRANCH   1  18
TORSDOF 5
ENDMDL
MODEL 5
REMARK VINA RESULT:      -7.1      2.547      8.560
REMARK  Name = 
REMARK  5 active torsions:
REMARK  status: ('A' for Active; 'I' for Inactive)
REMARK    1  A    between atoms: C_2  and  C_3
REMARK    2  A    between atoms: C_3  and  N_4
REMARK    3  A    between atoms: C_10  and  C_11
REMARK    4  A    between atoms: N_21  and  N_22
REMARK    5  A    between atoms: C_23  and  C_25
REMARK                            x       y       z     vdW  Elec       q    Type
REMARK                         _______ _______ _______ _____ _____    ______ ____
ROOT
ATOM      1  N   UNL     1       2.967   2.191  20.130  0.00  0.00    +0.000 NA
ATOM      2  C   UNL     1       2.599   2.627  18.759  0.00  0.00    +0.000 C 
ATOM      3  C   UNL     1       3.152   3.993  18.318  0.00  0.00    +0.000 C 
ATOM      4  N   UNL     1       4.600   4.020  18.462  0.00  0.00    +0.000 N 
ATOM      5  C   UNL     1       5.393   4.192  17.365  0.00  0.00    +0.000 A 
ATOM      6  N   UNL     1       5.029   3.910  16.127  0.00  0.00    +0.000 NA
ATOM      7  C   UNL     1       6.051   4.194  15.224  0.00  0.00    +0.000 A 
ATOM      8  C   UNL     1       7.160   4.785  15.786  0.00  0.00    +0.000 A 
ATOM      9  S   UNL     1       6.970   4.905  17.478  0.00  0.00    +0.000 S 
ATOM     10  C   UNL     1       5.112   3.658  19.782  0.00  0.00    +0.000 C 
ATOM     11  C   UNL     1       4.428   2.370  20.329  0.00  0.00    +0.000 C 
ENDROOT
BRANCH   7  12
ATOM     12  C   UNL     1       5.941   3.905  13.793  0.00  0.00    +0.000 A 
ATOM     13  C   UNL     1       4.704   3.576  13.228  0.00  0.00    +0.000 A 
ATOM     14  C   UNL     1       4.595   3.302  11.860  0.00  0.00    +0.000 A 
ATOM     15  C   UNL     1       5.724   3.344  11.042  0.00  0.00    +0.000 A 
ATOM     16  C   UNL     1       6.962   3.669  11.590  0.00  0.00    +0.000 A 
ATOM     17  C   UNL     1       7.070   3.946  12.955  0.00  0.00    +0.000 A 
ENDBRANCH   7  12
BRANCH   1  18
ATOM     18  C   UNL     1       2.148   2.835  21.180  0.00  0.00    +0.000 C 
BRANCH  18  20
ATOM     19  O   UNL     1       0.481   4.163  19.978  0.00  0.00    +0.000 OA
ATOM     20  C   UNL     1       1.508   4.145  20.658  0.00  0.00    +0.000 C 
ATOM     21  N   UNL     1       2.236   5.277  20.973  0.00  0.00    +0.000 N 
ATOM     22  H   UNL     1       2.935   5.199  21.715  0.00  0.00    +0.000 HD
BRANCH  21  23
ATOM     23  N   UNL     1       1.685   6.556  20.770  0.00  0.00    +0.000 N 
ATOM     24  C   UNL     1       2.215   7.342  19.754  0.00  0.00    +0.000 C 
ATOM     25  O   UNL     1       3.207   6.983  19.121  0.00  0.00    +0.000 OA
ATOM     26  H   UNL     1       0.810   6.791  21.234  0.00  0.00    +0.000 HD
BRANCH  24  27
ATOM     27  C   UNL     1       1.519   8.587  19.502  0.00  0.00    +0.000 A 
ATOM     28  C   UNL     1       1.365   9.312  18.333  0.00  0.00    +0.000 A 
ATOM     29  C   UNL     1       0.610  10.464  18.658  0.00  0.00    +0.000 A 
ATOM     30  C   UNL     1       0.342  10.373  20.004  0.00  0.00    +0.000 A 
ATOM     31  O   UNL     1       0.880   9.239  20.526  0.00  0.00    +0.000 OA
ENDBRANCH  24  27
ENDBRANCH  21  23
ENDBRANCH  18  20
ENDBRANCH   1  18
TORSDOF 5
ENDMDL
MODEL 6
REMARK VINA RESULT:      -7.1      7.898     11.445
REMARK  Name = 
REMARK  5 active torsions:
REMARK  status: ('A' for Active; 'I' for Inactive)
REMARK    1  A    between atoms: C_2  and  C_3
REMARK    2  A    between atoms: C_3  and  N_4
REMARK    3  A    between atoms: C_10  and  C_11
REMARK    4  A    between atoms: N_21  and  N_22
REMARK    5  A    between atoms: C_23  and  C_25
REMARK                            x       y       z     vdW  Elec       q    Type
REMARK                         _______ _______ _______ _____ _____    ______ ____
ROOT
ATOM      1  N   UNL     1       2.504  15.007  19.491  0.00  0.00    +0.000 NA
ATOM      2  C   UNL     1       3.404  14.287  18.555  0.00  0.00    +0.000 C 
ATOM      3  C   UNL     1       4.409  15.160  17.786  0.00  0.00    +0.000 C 
ATOM      4  N   UNL     1       5.207  15.947  18.715  0.00  0.00    +0.000 N 
ATOM      5  C   UNL     1       6.559  15.769  18.777  0.00  0.00    +0.000 A 
ATOM      6  N   UNL     1       7.186  14.670  18.402  0.00  0.00    +0.000 NA
ATOM      7  C   UNL     1       8.563  14.789  18.580  0.00  0.00    +0.000 A 
ATOM      8  C   UNL     1       8.976  16.031  19.007  0.00  0.00    +0.000 A 
ATOM      9  S   UNL     1       7.627  17.040  19.281  0.00  0.00    +0.000 S 
ATOM     10  C   UNL     1       4.452  16.752  19.674  0.00  0.00    +0.000 C 
ATOM     11  C   UNL     1       3.305  15.931  20.335  0.00  0.00    +0.000 C 
ENDROOT
BRANCH   7  12
ATOM     12  C   UNL     1       9.491  13.688  18.316  0.00  0.00    +0.000 A 
ATOM     13  C   UNL     1       9.298  12.438  18.914  0.00  0.00    +0.000 A 
ATOM     14  C   UNL     1      10.182  11.382  18.660  0.00  0.00    +0.000 A 
ATOM     15  C   UNL     1      11.273  11.567  17.813  0.00  0.00    +0.000 A 
ATOM     16  C   UNL     1      11.479  12.806  17.211  0.00  0.00    +0.000 A 
ATOM     17  C   UNL     1      10.594  13.858  17.461  0.00  0.00    +0.000 A 
ENDBRANCH   7  12
BRANCH   1  18
ATOM     18  C   UNL     1       1.370  15.669  18.808  0.00  0.00    +0.000 C 
BRANCH  18  20
ATOM     19  O   UNL     1      -0.819  14.938  19.619  0.00  0.00    +0.000 OA
ATOM     20  C   UNL     1       0.110  14.769  18.830  0.00  0.00    +0.000 C 
ATOM     21  N   UNL     1       0.163  13.726  17.923  0.00  0.00    +0.000 N 
ATOM     22  H   UNL     1       0.849  13.791  17.167  0.00  0.00    +0.000 HD
BRANCH  21  23
ATOM     23  N   UNL     1      -0.983  12.955  17.659  0.00  0.00    +0.000 N 
ATOM     24  C   UNL     1      -1.140  11.759  18.349  0.00  0.00    +0.000 C 
ATOM     25  O   UNL     1      -0.256  11.327  19.086  0.00  0.00    +0.000 OA
ATOM     26  H   UNL     1      -1.742  13.374  17.125  0.00  0.00    +0.000 HD
BRANCH  24  27
ATOM     27  C   UNL     1      -2.402  11.080  18.139  0.00  0.00    +0.000 A 
ATOM     28  C   UNL     1      -2.672   9.808  17.662  0.00  0.00    +0.000 A 
ATOM     29  C   UNL     1      -4.079   9.666  17.640  0.00  0.00    +0.000 A 
ATOM     30  C   UNL     1      -4.587  10.855  18.109  0.00  0.00    +0.000 A 
ATOM     31  O   UNL     1      -3.583  11.717  18.421  0.00  0.00    +0.000 OA
ENDBRANCH  24  27
ENDBRANCH  21  23
ENDBRANCH  18  20
ENDBRANCH   1  18
TORSDOF 5
ENDMDL
MODEL 7
REMARK VINA RESULT:      -7.0      3.789      6.611
REMARK  Name = 
REMARK  5 active torsions:
REMARK  status: ('A' for Active; 'I' for Inactive)
REMARK    1  A    between atoms: C_2  and  C_3
REMARK    2  A    between atoms: C_3  and  N_4
REMARK    3  A    between atoms: C_10  and  C_11
REMARK    4  A    between atoms: N_21  and  N_22
REMARK    5  A    between atoms: C_23  and  C_25
REMARK                            x       y       z     vdW  Elec       q    Type
REMARK                         _______ _______ _______ _____ _____    ______ ____
ROOT
ATOM      1  N   UNL     1       0.439  10.470  18.956  0.00  0.00    +0.000 NA
ATOM      2  C   UNL     1      -0.577  10.063  19.960  0.00  0.00    +0.000 C 
ATOM      3  C   UNL     1      -0.574  10.857  21.277  0.00  0.00    +0.000 C 
ATOM      4  N   UNL     1      -0.704  12.281  21.006  0.00  0.00    +0.000 N 
ATOM      5  C   UNL     1      -1.786  12.970  21.471  0.00  0.00    +0.000 A 
ATOM      6  N   UNL     1      -2.948  12.421  21.775  0.00  0.00    +0.000 NA
ATOM      7  C   UNL     1      -3.855  13.378  22.226  0.00  0.00    +0.000 A 
ATOM      8  C   UNL     1      -3.331  14.645  22.351  0.00  0.00    +0.000 A 
ATOM      9  S   UNL     1      -1.713  14.670  21.810  0.00  0.00    +0.000 S 
ATOM     10  C   UNL     1       0.267  12.838  20.066  0.00  0.00    +0.000 C 
ATOM     11  C   UNL     1       0.414  11.946  18.797  0.00  0.00    +0.000 C 
ENDROOT
BRANCH   7  12
ATOM     12  C   UNL     1      -5.243  13.053  22.558  0.00  0.00    +0.000 A 
ATOM     13  C   UNL     1      -6.141  12.668  21.556  0.00  0.00    +0.000 A 
ATOM     14  C   UNL     1      -7.469  12.354  21.871  0.00  0.00    +0.000 A 
ATOM     15  C   UNL     1      -7.916  12.430  23.190  0.00  0.00    +0.000 A 
ATOM     16  C   UNL     1      -7.034  12.812  24.198  0.00  0.00    +0.000 A 
ATOM     17  C   UNL     1      -5.708  13.122  23.884  0.00  0.00    +0.000 A 
ENDBRANCH   7  12
BRANCH   1  18
ATOM     18  C   UNL     1       1.787   9.933  19.248  0.00  0.00    +0.000 C 
BRANCH  18  20
ATOM     19  O   UNL     1       1.805   8.327  17.404  0.00  0.00    +0.000 OA
ATOM     20  C   UNL     1       1.978   8.538  18.604  0.00  0.00    +0.000 C 
ATOM     21  N   UNL     1       2.297   7.550  19.517  0.00  0.00    +0.000 N 
ATOM     22  H   UNL     1       2.638   7.845  20.435  0.00  0.00    +0.000 HD
BRANCH  21  23
ATOM     23  N   UNL     1       2.720   6.283  19.074  0.00  0.00    +0.000 N 
ATOM     24  C   UNL     1       2.168   5.160  19.678  0.00  0.00    +0.000 C 
ATOM     25  O   UNL     1       1.416   5.262  20.646  0.00  0.00    +0.000 OA
ATOM     26  H   UNL     1       3.263   6.222  18.214  0.00  0.00    +0.000 HD
BRANCH  24  27
ATOM     27  C   UNL     1       2.537   3.890  19.088  0.00  0.00    +0.000 A 
ATOM     28  C   UNL     1       2.096   3.274  17.929  0.00  0.00    +0.000 A 
ATOM     29  C   UNL     1       2.771   2.034  17.840  0.00  0.00    +0.000 A 
ATOM     30  C   UNL     1       3.588   1.966  18.944  0.00  0.00    +0.000 A 
ATOM     31  O   UNL     1       3.461   3.086  19.705  0.00  0.00    +0.000 OA
ENDBRANCH  24  27
ENDBRANCH  21  23
ENDBRANCH  18  20
ENDBRANCH   1  18
TORSDOF 5
ENDMDL
MODEL 8
REMARK VINA RESULT:      -7.0      2.860      4.042
REMARK  Name = 
REMARK  5 active torsions:
REMARK  status: ('A' for Active; 'I' for Inactive)
REMARK    1  A    between atoms: C_2  and  C_3
REMARK    2  A    between atoms: C_3  and  N_4
REMARK    3  A    between atoms: C_10  and  C_11
REMARK    4  A    between atoms: N_21  and  N_22
REMARK    5  A    between atoms: C_23  and  C_25
REMARK                            x       y       z     vdW  Elec       q    Type
REMARK                         _______ _______ _______ _____ _____    ______ ____
ROOT
ATOM      1  N   UNL     1       2.335   6.965  19.728  0.00  0.00    +0.000 NA
ATOM      2  C   UNL     1       2.296   8.015  18.678  0.00  0.00    +0.000 C 
ATOM      3  C   UNL     1       1.040   8.902  18.665  0.00  0.00    +0.000 C 
ATOM      4  N   UNL     1       0.842   9.515  19.971  0.00  0.00    +0.000 N 
ATOM      5  C   UNL     1       0.879  10.873  20.102  0.00  0.00    +0.000 A 
ATOM      6  N   UNL     1       1.496  11.688  19.267  0.00  0.00    +0.000 NA
ATOM      7  C   UNL     1       1.355  13.016  19.662  0.00  0.00    +0.000 A 
ATOM      8  C   UNL     1       0.541  13.201  20.757  0.00  0.00    +0.000 A 
ATOM      9  S   UNL     1       0.016  11.695  21.363  0.00  0.00    +0.000 S 
ATOM     10  C   UNL     1       0.810   8.593  21.105  0.00  0.00    +0.000 C 
ATOM     11  C   UNL     1       1.977   7.563  21.039  0.00  0.00    +0.000 C 
ENDROOT
BRANCH   7  12
ATOM     12  C   UNL     1       2.004  14.123  18.956  0.00  0.00    +0.000 A 
ATOM     13  C   UNL     1       1.394  15.380  18.894  0.00  0.00    +0.000 A 
ATOM     14  C   UNL     1       2.014  16.441  18.222  0.00  0.00    +0.000 A 
ATOM     15  C   UNL     1       3.246  16.254  17.597  0.00  0.00    +0.000 A 
ATOM     16  C   UNL     1       3.865  15.008  17.650  0.00  0.00    +0.000 A 
ATOM     17  C   UNL     1       3.249  13.950  18.324  0.00  0.00    +0.000 A 
ENDBRANCH   7  12
BRANCH   1  18
ATOM     18  C   UNL     1       1.527   5.774  19.384  0.00  0.00    +0.000 C 
BRANCH  18  20
ATOM     19  O   UNL     1       1.394   4.411  17.357  0.00  0.00    +0.000 OA
ATOM     20  C   UNL     1       2.095   5.063  18.132  0.00  0.00    +0.000 C 
ATOM     21  N   UNL     1       3.467   5.178  18.008  0.00  0.00    +0.000 N 
ATOM     22  H   UNL     1       3.932   5.909  18.553  0.00  0.00    +0.000 HD
BRANCH  21  23
ATOM     23  N   UNL     1       4.109   4.785  16.820  0.00  0.00    +0.000 N 
ATOM     24  C   UNL     1       5.091   5.620  16.299  0.00  0.00    +0.000 C 
ATOM     25  O   UNL     1       5.319   6.722  16.795  0.00  0.00    +0.000 OA
ATOM     26  H   UNL     1       3.977   3.833  16.484  0.00  0.00    +0.000 HD
BRANCH  24  27
ATOM     27  C   UNL     1       5.811   5.097  15.156  0.00  0.00    +0.000 A 
ATOM     28  C   UNL     1       5.494   4.069  14.285  0.00  0.00    +0.000 A 
ATOM     29  C   UNL     1       6.561   3.967  13.362  0.00  0.00    +0.000 A 
ATOM     30  C   UNL     1       7.465   4.940  13.719  0.00  0.00    +0.000 A 
ATOM     31  O   UNL     1       7.020   5.636  14.799  0.00  0.00    +0.000 OA
ENDBRANCH  24  27
ENDBRANCH  21  23
ENDBRANCH  18  20
ENDBRANCH   1  18
TORSDOF 5
ENDMDL
MODEL 9
REMARK VINA RESULT:      -7.0      5.065     10.818
REMARK  Name = 
REMARK  5 active torsions:
REMARK  status: ('A' for Active; 'I' for Inactive)
REMARK    1  A    between atoms: C_2  and  C_3
REMARK    2  A    between atoms: C_3  and  N_4
REMARK    3  A    between atoms: C_10  and  C_11
REMARK    4  A    between atoms: N_21  and  N_22
REMARK    5  A    between atoms: C_23  and  C_25
REMARK                            x       y       z     vdW  Elec       q    Type
REMARK                         _______ _______ _______ _____ _____    ______ ____
ROOT
ATOM      1  N   UNL     1       0.229  11.669  19.281  0.00  0.00    +0.000 NA
ATOM      2  C   UNL     1      -0.267  10.272  19.368  0.00  0.00    +0.000 C 
ATOM      3  C   UNL     1       0.130   9.346  18.206  0.00  0.00    +0.000 C 
ATOM      4  N   UNL     1       1.577   9.336  18.042  0.00  0.00    +0.000 N 
ATOM      5  C   UNL     1       2.277   8.177  18.210  0.00  0.00    +0.000 A 
ATOM      6  N   UNL     1       1.858   7.147  18.922  0.00  0.00    +0.000 NA
ATOM      7  C   UNL     1       2.788   6.111  18.905  0.00  0.00    +0.000 A 
ATOM      8  C   UNL     1       3.874   6.334  18.089  0.00  0.00    +0.000 A 
ATOM      9  S   UNL     1       3.788   7.895  17.406  0.00  0.00    +0.000 S 
ATOM     10  C   UNL     1       2.206  10.648  17.895  0.00  0.00    +0.000 C 
ATOM     11  C   UNL     1       1.678  11.660  18.955  0.00  0.00    +0.000 C 
ENDROOT
BRANCH   7  12
ATOM     12  C   UNL     1       2.610   4.878  19.675  0.00  0.00    +0.000 A 
ATOM     13  C   UNL     1       3.603   3.892  19.675  0.00  0.00    +0.000 A 
ATOM     14  C   UNL     1       3.437   2.714  20.414  0.00  0.00    +0.000 A 
ATOM     15  C   UNL     1       2.273   2.505  21.152  0.00  0.00    +0.000 A 
ATOM     16  C   UNL     1       1.276   3.476  21.161  0.00  0.00    +0.000 A 
ATOM     17  C   UNL     1       1.443   4.654  20.427  0.00  0.00    +0.000 A 
ENDBRANCH   7  12
BRANCH   1  18
ATOM     18  C   UNL     1      -0.573  12.511  18.366  0.00  0.00    +0.000 C 
BRANCH  18  20
ATOM     19  O   UNL     1      -2.888  11.748  18.155  0.00  0.00    +0.000 OA
ATOM     20  C   UNL     1      -2.074  12.461  18.743  0.00  0.00    +0.000 C 
ATOM     21  N   UNL     1      -2.418  13.339  19.754  0.00  0.00    +0.000 N 
ATOM     22  H   UNL     1      -1.662  13.718  20.329  0.00  0.00    +0.000 HD
BRANCH  21  23
ATOM     23  N   UNL     1      -3.683  13.261  20.364  0.00  0.00    +0.000 N 
ATOM     24  C   UNL     1      -3.755  12.768  21.662  0.00  0.00    +0.000 C 
ATOM     25  O   UNL     1      -2.763  12.309  22.225  0.00  0.00    +0.000 OA
ATOM     26  H   UNL     1      -4.469  13.733  19.922  0.00  0.00    +0.000 HD
BRANCH  24  27
ATOM     27  C   UNL     1      -5.061  12.842  22.285  0.00  0.00    +0.000 A 
ATOM     28  C   UNL     1      -5.494  13.561  23.385  0.00  0.00    +0.000 A 
ATOM     29  C   UNL     1      -6.861  13.246  23.571  0.00  0.00    +0.000 A 
ATOM     30  C   UNL     1      -7.184  12.358  22.572  0.00  0.00    +0.000 A 
ATOM     31  O   UNL     1      -6.106  12.109  21.783  0.00  0.00    +0.000 OA
ENDBRANCH  24  27
ENDBRANCH  21  23
ENDBRANCH  18  20
ENDBRANCH   1  18
TORSDOF 5
ENDMDL
