MODEL 1
REMARK VINA RESULT:      -7.8      0.000      0.000
REMARK  Name = 
REMARK  11 active torsions:
REMARK  status: ('A' for Active; 'I' for Inactive)
REMARK    1  A    between atoms: C_1  and  O_2
REMARK    2  A    between atoms: O_2  and  C_3
REMARK    3  A    between atoms: C_3  and  C_5
REMARK    4  A    between atoms: C_7  and  C_8
REMARK    5  A    between atoms: C_11  and  C_12
REMARK    6  A    between atoms: C_12  and  N_13
REMARK    7  A    between atoms: C_12  and  C_22
REMARK    8  A    between atoms: C_14  and  C_16
REMARK    9  A    between atoms: C_22  and  C_23
REMARK   10  A    between atoms: C_22  and  C_24
REMARK   11  A    between atoms: C_27  and  C_28
REMARK                            x       y       z     vdW  Elec       q    Type
REMARK                         _______ _______ _______ _____ _____    ______ ____
ROOT
ATOM      1  C   UNL     1       5.578   5.105  16.827  0.00  0.00    +0.000 A 
ATOM      2  C   UNL     1       6.226   4.533  17.901  0.00  0.00    +0.000 A 
ATOM      3  S   UNL     1       5.375   4.892  19.346  0.00  0.00    +0.000 S 
ATOM      4  C   UNL     1       4.220   5.795  18.437  0.00  0.00    +0.000 A 
ATOM      5  N   UNL     1       4.499   5.913  17.151  0.00  0.00    +0.000 NA
ENDROOT
BRANCH   1   8
ATOM      6  C   UNL     1       6.079   4.037  13.418  0.00  0.00    +0.000 A 
ATOM      7  N   UNL     1       5.422   3.938  14.635  0.00  0.00    +0.000 NA
ATOM      8  C   UNL     1       5.997   4.842  15.409  0.00  0.00    +0.000 A 
ATOM      9  O   UNL     1       7.002   5.533  14.779  0.00  0.00    +0.000 OA
ATOM     10  C   UNL     1       7.086   4.976  13.535  0.00  0.00    +0.000 A 
ATOM     11  C   UNL     1       8.170   5.470  12.662  0.00  0.00    +0.000 C 
BRANCH   6  12
ATOM     12  C   UNL     1       5.735   3.273  12.230  0.00  0.00    +0.000 C 
ATOM     13  O   UNL     1       4.632   3.291  11.708  0.00  0.00    +0.000 OA
BRANCH  12  15
ATOM     14  C   UNL     1       6.409   1.291  11.164  0.00  0.00    +0.000 C 
ATOM     15  O   UNL     1       6.790   2.520  11.784  0.00  0.00    +0.000 OA
ENDBRANCH  12  15
ENDBRANCH   6  12
ENDBRANCH   1   8
BRANCH   4  16
ATOM     16  C   UNL     1       2.960   6.329  19.107  0.00  0.00    +0.000 C 
BRANCH  16  17
ATOM     17  N   UNL     1       2.518   7.514  18.361  0.00  0.00    +0.000 N 
ATOM     18  C   UNL     1       1.779   8.529  18.945  0.00  0.00    +0.000 C 
ATOM     19  O   UNL     1       1.493   8.523  20.138  0.00  0.00    +0.000 OA
ATOM     20  H   UNL     1       2.862   7.619  17.417  0.00  0.00    +0.000 HD
BRANCH  18  21
ATOM     21  C   UNL     1       1.338   9.646  17.984  0.00  0.00    +0.000 C 
ATOM     22  C   UNL     1      -0.191   9.697  17.855  0.00  0.00    +0.000 C 
ATOM     23  C   UNL     1      -0.869  10.293  19.091  0.00  0.00    +0.000 C 
ATOM     24  C   UNL     1      -0.321  11.674  19.438  0.00  0.00    +0.000 C 
ATOM     25  C   UNL     1       1.197  11.655  19.582  0.00  0.00    +0.000 C 
ATOM     26  C   UNL     1       1.873  11.046  18.351  0.00  0.00    +0.000 C 
ENDBRANCH  18  21
ENDBRANCH  16  17
BRANCH  16  27
ATOM     27  C   UNL     1       1.841   5.239  19.146  0.00  0.00    +0.000 C 
ATOM     28  C   UNL     1       1.904   4.285  17.940  0.00  0.00    +0.000 C 
ATOM     29  C   UNL     1       1.895   4.390  20.422  0.00  0.00    +0.000 C 
ENDBRANCH  16  27
ENDBRANCH   4  16
TORSDOF 7
ENDMDL
MODEL 2
REMARK VINA RESULT:      -7.7      1.864      4.449
REMARK  Name = 
REMARK  11 active torsions:
REMARK  status: ('A' for Active; 'I' for Inactive)
REMARK    1  A    between atoms: C_1  and  O_2
REMARK    2  A    between atoms: O_2  and  C_3
REMARK    3  A    between atoms: C_3  and  C_5
REMARK    4  A    between atoms: C_7  and  C_8
REMARK    5  A    between atoms: C_11  and  C_12
REMARK    6  A    between atoms: C_12  and  N_13
REMARK    7  A    between atoms: C_12  and  C_22
REMARK    8  A    between atoms: C_14  and  C_16
REMARK    9  A    between atoms: C_22  and  C_23
REMARK   10  A    between atoms: C_22  and  C_24
REMARK   11  A    between atoms: C_27  and  C_28
REMARK                            x       y       z     vdW  Elec       q    Type
REMARK                         _______ _______ _______ _____ _____    ______ ____
ROOT
ATOM      1  C   UNL     1       5.599   5.426  16.429  0.00  0.00    +0.000 A 
ATOM      2  C   UNL     1       6.252   5.231  17.628  0.00  0.00    +0.000 A 
ATOM      3  S   UNL     1       5.196   5.599  18.927  0.00  0.00    +0.000 S 
ATOM      4  C   UNL     1       3.956   6.006  17.799  0.00  0.00    +0.000 A 
ATOM      5  N   UNL     1       4.329   5.972  16.532  0.00  0.00    +0.000 NA
ENDROOT
BRANCH   1   8
ATOM      6  C   UNL     1       6.607   4.027  13.261  0.00  0.00    +0.000 A 
ATOM      7  N   UNL     1       5.810   4.009  14.395  0.00  0.00    +0.000 NA
ATOM      8  C   UNL     1       6.213   5.042  15.114  0.00  0.00    +0.000 A 
ATOM      9  O   UNL     1       7.235   5.744  14.525  0.00  0.00    +0.000 OA
ATOM     10  C   UNL     1       7.518   5.060  13.378  0.00  0.00    +0.000 A 
ATOM     11  C   UNL     1       8.664   5.546  12.584  0.00  0.00    +0.000 C 
BRANCH   6  12
ATOM     12  C   UNL     1       6.474   3.106  12.144  0.00  0.00    +0.000 C 
ATOM     13  O   UNL     1       7.384   2.835  11.376  0.00  0.00    +0.000 OA
BRANCH  12  15
ATOM     14  C   UNL     1       4.320   3.383  11.251  0.00  0.00    +0.000 C 
ATOM     15  O   UNL     1       5.205   2.598  12.050  0.00  0.00    +0.000 OA
ENDBRANCH  12  15
ENDBRANCH   6  12
ENDBRANCH   1   8
BRANCH   4  16
ATOM     16  C   UNL     1       2.542   6.304  18.283  0.00  0.00    +0.000 C 
BRANCH  16  17
ATOM     17  N   UNL     1       2.062   5.133  19.028  0.00  0.00    +0.000 N 
ATOM     18  C   UNL     1       1.397   4.083  18.417  0.00  0.00    +0.000 C 
ATOM     19  O   UNL     1       1.216   4.043  17.205  0.00  0.00    +0.000 OA
ATOM     20  H   UNL     1       2.325   5.067  20.001  0.00  0.00    +0.000 HD
BRANCH  18  21
ATOM     21  C   UNL     1       0.899   2.988  19.375  0.00  0.00    +0.000 C 
ATOM     22  C   UNL     1       1.781   1.733  19.292  0.00  0.00    +0.000 C 
ATOM     23  C   UNL     1       3.137   1.919  19.976  0.00  0.00    +0.000 C 
ATOM     24  C   UNL     1       2.994   2.370  21.427  0.00  0.00    +0.000 C 
ATOM     25  C   UNL     1       2.129   3.620  21.543  0.00  0.00    +0.000 C 
ATOM     26  C   UNL     1       0.778   3.438  20.846  0.00  0.00    +0.000 C 
ENDBRANCH  18  21
ENDBRANCH  16  17
BRANCH  16  27
ATOM     27  C   UNL     1       2.512   7.589  19.170  0.00  0.00    +0.000 C 
ATOM     28  C   UNL     1       1.898   8.796  18.439  0.00  0.00    +0.000 C 
ATOM     29  C   UNL     1       1.734   7.382  20.475  0.00  0.00    +0.000 C 
ENDBRANCH  16  27
ENDBRANCH   4  16
TORSDOF 7
ENDMDL
MODEL 3
REMARK VINA RESULT:      -7.4      4.602      7.346
REMARK  Name = 
REMARK  11 active torsions:
REMARK  status: ('A' for Active; 'I' for Inactive)
REMARK    1  A    between atoms: C_1  and  O_2
REMARK    2  A    between atoms: O_2  and  C_3
REMARK    3  A    between atoms: C_3  and  C_5
REMARK    4  A    between atoms: C_7  and  C_8
REMARK    5  A    between atoms: C_11  and  C_12
REMARK    6  A    between atoms: C_12  and  N_13
REMARK    7  A    between atoms: C_12  and  C_22
REMARK    8  A    between atoms: C_14  and  C_16
REMARK    9  A    between atoms: C_22  and  C_23
REMARK   10  A    between atoms: C_22  and  C_24
REMARK   11  A    between atoms: C_27  and  C_28
REMARK                            x       y       z     vdW  Elec       q    Type
REMARK                         _______ _______ _______ _____ _____    ______ ____
ROOT
ATOM      1  C   UNL     1       7.667   7.375  18.192  0.00  0.00    +0.000 A 
ATOM      2  C   UNL     1       8.225   6.393  18.983  0.00  0.00    +0.000 A 
ATOM      3  S   UNL     1       7.549   4.871  18.577  0.00  0.00    +0.000 S 
ATOM      4  C   UNL     1       6.553   5.633  17.393  0.00  0.00    +0.000 A 
ATOM      5  N   UNL     1       6.637   6.952  17.366  0.00  0.00    +0.000 NA
ENDROOT
BRANCH   1   8
ATOM      6  C   UNL     1       9.339  10.541  18.628  0.00  0.00    +0.000 A 
ATOM      7  N   UNL     1       9.203   9.192  18.919  0.00  0.00    +0.000 NA
ATOM      8  C   UNL     1       8.164   8.792  18.207  0.00  0.00    +0.000 A 
ATOM      9  O   UNL     1       7.598   9.798  17.464  0.00  0.00    +0.000 OA
ATOM     10  C   UNL     1       8.313  10.916  17.782  0.00  0.00    +0.000 A 
ATOM     11  C   UNL     1       7.849  12.187  17.191  0.00  0.00    +0.000 C 
BRANCH   6  12
ATOM     12  C   UNL     1      10.403  11.391  19.138  0.00  0.00    +0.000 C 
ATOM     13  O   UNL     1      10.458  11.792  20.290  0.00  0.00    +0.000 OA
BRANCH  12  15
ATOM     14  C   UNL     1      11.597  13.096  18.050  0.00  0.00    +0.000 C 
ATOM     15  O   UNL     1      11.319  11.700  18.167  0.00  0.00    +0.000 OA
ENDBRANCH  12  15
ENDBRANCH   6  12
ENDBRANCH   1   8
BRANCH   4  16
ATOM     16  C   UNL     1       5.717   4.794  16.433  0.00  0.00    +0.000 C 
BRANCH  16  17
ATOM     17  N   UNL     1       4.304   4.970  16.792  0.00  0.00    +0.000 N 
ATOM     18  C   UNL     1       3.549   3.958  17.361  0.00  0.00    +0.000 C 
ATOM     19  O   UNL     1       4.032   2.868  17.649  0.00  0.00    +0.000 OA
ATOM     20  H   UNL     1       3.918   5.899  16.704  0.00  0.00    +0.000 HD
BRANCH  18  21
ATOM     21  C   UNL     1       2.068   4.304  17.588  0.00  0.00    +0.000 C 
ATOM     22  C   UNL     1       1.353   3.196  18.375  0.00  0.00    +0.000 C 
ATOM     23  C   UNL     1       1.730   3.187  19.858  0.00  0.00    +0.000 C 
ATOM     24  C   UNL     1       1.495   4.542  20.519  0.00  0.00    +0.000 C 
ATOM     25  C   UNL     1       2.200   5.664  19.765  0.00  0.00    +0.000 C 
ATOM     26  C   UNL     1       1.833   5.663  18.279  0.00  0.00    +0.000 C 
ENDBRANCH  18  21
ENDBRANCH  16  17
BRANCH  16  27
ATOM     27  C   UNL     1       5.979   5.212  14.951  0.00  0.00    +0.000 C 
ATOM     28  C   UNL     1       7.466   5.116  14.565  0.00  0.00    +0.000 C 
ATOM     29  C   UNL     1       5.178   4.366  13.953  0.00  0.00    +0.000 C 
ENDBRANCH  16  27
ENDBRANCH   4  16
TORSDOF 7
ENDMDL
MODEL 4
REMARK VINA RESULT:      -7.3      4.344      6.556
REMARK  Name = 
REMARK  11 active torsions:
REMARK  status: ('A' for Active; 'I' for Inactive)
REMARK    1  A    between atoms: C_1  and  O_2
REMARK    2  A    between atoms: O_2  and  C_3
REMARK    3  A    between atoms: C_3  and  C_5
REMARK    4  A    between atoms: C_7  and  C_8
REMARK    5  A    between atoms: C_11  and  C_12
REMARK    6  A    between atoms: C_12  and  N_13
REMARK    7  A    between atoms: C_12  and  C_22
REMARK    8  A    between atoms: C_14  and  C_16
REMARK    9  A    between atoms: C_22  and  C_23
REMARK   10  A    between atoms: C_22  and  C_24
REMARK   11  A    between atoms: C_27  and  C_28
REMARK                            x       y       z     vdW  Elec       q    Type
REMARK                         _______ _______ _______ _____ _____    ______ ____
ROOT
ATOM      1  C   UNL     1       1.898   7.766  19.432  0.00  0.00    +0.000 A 
ATOM      2  C   UNL     1       2.073   8.328  18.185  0.00  0.00    +0.000 A 
ATOM      3  S   UNL     1       1.601   9.976  18.223  0.00  0.00    +0.000 S 
ATOM      4  C   UNL     1       1.184   9.813  19.889  0.00  0.00    +0.000 A 
ATOM      5  N   UNL     1       1.289   8.586  20.369  0.00  0.00    +0.000 NA
ENDROOT
BRANCH   1   8
ATOM      6  C   UNL     1       3.470   4.532  19.725  0.00  0.00    +0.000 A 
ATOM      7  N   UNL     1       3.338   5.764  19.102  0.00  0.00    +0.000 NA
ATOM      8  C   UNL     1       2.365   6.375  19.754  0.00  0.00    +0.000 A 
ATOM      9  O   UNL     1       1.837   5.619  20.771  0.00  0.00    +0.000 OA
ATOM     10  C   UNL     1       2.504   4.430  20.708  0.00  0.00    +0.000 A 
ATOM     11  C   UNL     1       2.062   3.374  21.641  0.00  0.00    +0.000 C 
BRANCH   6  12
ATOM     12  C   UNL     1       4.474   3.538  19.383  0.00  0.00    +0.000 C 
ATOM     13  O   UNL     1       5.672   3.771  19.340  0.00  0.00    +0.000 OA
BRANCH  12  15
ATOM     14  C   UNL     1       3.235   2.270  17.843  0.00  0.00    +0.000 C 
ATOM     15  O   UNL     1       3.912   2.321  19.099  0.00  0.00    +0.000 OA
ENDBRANCH  12  15
ENDBRANCH   6  12
ENDBRANCH   1   8
BRANCH   4  16
ATOM     16  C   UNL     1       0.801  11.039  20.710  0.00  0.00    +0.000 C 
BRANCH  16  17
ATOM     17  N   UNL     1       1.009  12.228  19.874  0.00  0.00    +0.000 N 
ATOM     18  C   UNL     1       1.826  13.276  20.262  0.00  0.00    +0.000 C 
ATOM     19  O   UNL     1       2.468  13.250  21.306  0.00  0.00    +0.000 OA
ATOM     20  H   UNL     1       0.612  12.213  18.945  0.00  0.00    +0.000 HD
BRANCH  18  21
ATOM     21  C   UNL     1       1.852  14.470  19.292  0.00  0.00    +0.000 C 
ATOM     22  C   UNL     1       0.447  14.780  18.754  0.00  0.00    +0.000 C 
ATOM     23  C   UNL     1      -0.447  15.457  19.795  0.00  0.00    +0.000 C 
ATOM     24  C   UNL     1       0.191  16.719  20.368  0.00  0.00    +0.000 C 
ATOM     25  C   UNL     1       1.585  16.443  20.918  0.00  0.00    +0.000 C 
ATOM     26  C   UNL     1       2.475  15.752  19.881  0.00  0.00    +0.000 C 
ENDBRANCH  18  21
ENDBRANCH  16  17
BRANCH  16  27
ATOM     27  C   UNL     1      -0.680  10.945  21.198  0.00  0.00    +0.000 C 
ATOM     28  C   UNL     1      -0.823  11.217  22.706  0.00  0.00    +0.000 C 
ATOM     29  C   UNL     1      -1.606  11.915  20.454  0.00  0.00    +0.000 C 
ENDBRANCH  16  27
ENDBRANCH   4  16
TORSDOF 7
ENDMDL
MODEL 5
REMARK VINA RESULT:      -7.2      4.194      6.662
REMARK  Name = 
REMARK  11 active torsions:
REMARK  status: ('A' for Active; 'I' for Inactive)
REMARK    1  A    between atoms: C_1  and  O_2
REMARK    2  A    between atoms: O_2  and  C_3
REMARK    3  A    between atoms: C_3  and  C_5
REMARK    4  A    between atoms: C_7  and  C_8
REMARK    5  A    between atoms: C_11  and  C_12
REMARK    6  A    between atoms: C_12  and  N_13
REMARK    7  A    between atoms: C_12  and  C_22
REMARK    8  A    between atoms: C_14  and  C_16
REMARK    9  A    between atoms: C_22  and  C_23
REMARK   10  A    between atoms: C_22  and  C_24
REMARK   11  A    between atoms: C_27  and  C_28
REMARK                            x       y       z     vdW  Elec       q    Type
REMARK                         _______ _______ _______ _____ _____    ______ ____
ROOT
ATOM      1  C   UNL     1       1.911   7.947  19.348  0.00  0.00    +0.000 A 
ATOM      2  C   UNL     1       2.146   8.561  18.137  0.00  0.00    +0.000 A 
ATOM      3  S   UNL     1       1.699  10.213  18.231  0.00  0.00    +0.000 S 
ATOM      4  C   UNL     1       1.208   9.983  19.869  0.00  0.00    +0.000 A 
ATOM      5  N   UNL     1       1.274   8.734  20.295  0.00  0.00    +0.000 NA
ENDROOT
BRANCH   1   8
ATOM      6  C   UNL     1       3.353   4.643  19.492  0.00  0.00    +0.000 A 
ATOM      7  N   UNL     1       3.217   5.881  18.882  0.00  0.00    +0.000 NA
ATOM      8  C   UNL     1       2.342   6.535  19.626  0.00  0.00    +0.000 A 
ATOM      9  O   UNL     1       1.884   5.802  20.692  0.00  0.00    +0.000 OA
ATOM     10  C   UNL     1       2.486   4.583  20.567  0.00  0.00    +0.000 A 
ATOM     11  C   UNL     1       2.091   3.548  21.541  0.00  0.00    +0.000 C 
BRANCH   6  12
ATOM     12  C   UNL     1       4.272   3.605  19.055  0.00  0.00    +0.000 C 
ATOM     13  O   UNL     1       5.251   3.253  19.693  0.00  0.00    +0.000 OA
BRANCH  12  15
ATOM     14  C   UNL     1       2.871   2.114  17.900  0.00  0.00    +0.000 C 
ATOM     15  O   UNL     1       3.915   3.087  17.837  0.00  0.00    +0.000 OA
ENDBRANCH  12  15
ENDBRANCH   6  12
ENDBRANCH   1   8
BRANCH   4  16
ATOM     16  C   UNL     1       0.808  11.177  20.728  0.00  0.00    +0.000 C 
BRANCH  16  17
ATOM     17  N   UNL     1       1.069  12.398  19.956  0.00  0.00    +0.000 N 
ATOM     18  C   UNL     1       1.574  13.551  20.535  0.00  0.00    +0.000 C 
ATOM     19  O   UNL     1       1.886  13.602  21.720  0.00  0.00    +0.000 OA
ATOM     20  H   UNL     1       0.962  12.341  18.953  0.00  0.00    +0.000 HD
BRANCH  18  21
ATOM     21  C   UNL     1       1.700  14.752  19.582  0.00  0.00    +0.000 C 
ATOM     22  C   UNL     1       2.496  15.894  20.231  0.00  0.00    +0.000 C 
ATOM     23  C   UNL     1       3.997  15.605  20.300  0.00  0.00    +0.000 C 
ATOM     24  C   UNL     1       4.581  15.264  18.932  0.00  0.00    +0.000 C 
ATOM     25  C   UNL     1       3.817  14.126  18.264  0.00  0.00    +0.000 C 
ATOM     26  C   UNL     1       2.314  14.410  18.209  0.00  0.00    +0.000 C 
ENDBRANCH  18  21
ENDBRANCH  16  17
BRANCH  16  27
ATOM     27  C   UNL     1      -0.693  11.085  21.149  0.00  0.00    +0.000 C 
ATOM     28  C   UNL     1      -0.937  11.599  22.580  0.00  0.00    +0.000 C 
ATOM     29  C   UNL     1      -1.616  11.864  20.205  0.00  0.00    +0.000 C 
ENDBRANCH  16  27
ENDBRANCH   4  16
TORSDOF 7
ENDMDL
MODEL 6
REMARK VINA RESULT:      -7.2      4.662      6.806
REMARK  Name = 
REMARK  11 active torsions:
REMARK  status: ('A' for Active; 'I' for Inactive)
REMARK    1  A    between atoms: C_1  and  O_2
REMARK    2  A    between atoms: O_2  and  C_3
REMARK    3  A    between atoms: C_3  and  C_5
REMARK    4  A    between atoms: C_7  and  C_8
REMARK    5  A    between atoms: C_11  and  C_12
REMARK    6  A    between atoms: C_12  and  N_13
REMARK    7  A    between atoms: C_12  and  C_22
REMARK    8  A    between atoms: C_14  and  C_16
REMARK    9  A    between atoms: C_22  and  C_23
REMARK   10  A    between atoms: C_22  and  C_24
REMARK   11  A    between atoms: C_27  and  C_28
REMARK                            x       y       z     vdW  Elec       q    Type
REMARK                         _______ _______ _______ _____ _____    ______ ____
ROOT
ATOM      1  C   UNL     1       1.946   7.937  19.315  0.00  0.00    +0.000 A 
ATOM      2  C   UNL     1       2.098   8.541  18.085  0.00  0.00    +0.000 A 
ATOM      3  S   UNL     1       1.580  10.173  18.176  0.00  0.00    +0.000 S 
ATOM      4  C   UNL     1       1.177   9.949  19.838  0.00  0.00    +0.000 A 
ATOM      5  N   UNL     1       1.319   8.711  20.279  0.00  0.00    +0.000 NA
ENDROOT
BRANCH   1   8
ATOM      6  C   UNL     1       2.605   4.540  20.336  0.00  0.00    +0.000 A 
ATOM      7  N   UNL     1       1.829   5.689  20.375  0.00  0.00    +0.000 NA
ATOM      8  C   UNL     1       2.454   6.551  19.592  0.00  0.00    +0.000 A 
ATOM      9  O   UNL     1       3.603   6.044  19.039  0.00  0.00    +0.000 OA
ATOM     10  C   UNL     1       3.722   4.789  19.562  0.00  0.00    +0.000 A 
ATOM     11  C   UNL     1       4.944   4.039  19.208  0.00  0.00    +0.000 C 
BRANCH   6  12
ATOM     12  C   UNL     1       2.266   3.293  21.002  0.00  0.00    +0.000 C 
ATOM     13  O   UNL     1       2.231   3.160  22.215  0.00  0.00    +0.000 OA
BRANCH  12  15
ATOM     14  C   UNL     1       0.902   2.542  19.244  0.00  0.00    +0.000 C 
ATOM     15  O   UNL     1       2.012   2.288  20.105  0.00  0.00    +0.000 OA
ENDBRANCH  12  15
ENDBRANCH   6  12
ENDBRANCH   1   8
BRANCH   4  16
ATOM     16  C   UNL     1       0.764  11.137  20.698  0.00  0.00    +0.000 C 
BRANCH  16  17
ATOM     17  N   UNL     1       0.928  12.356  19.895  0.00  0.00    +0.000 N 
ATOM     18  C   UNL     1       1.667  13.442  20.334  0.00  0.00    +0.000 C 
ATOM     19  O   UNL     1       2.274  13.430  21.399  0.00  0.00    +0.000 OA
ATOM     20  H   UNL     1       0.564  12.340  18.953  0.00  0.00    +0.000 HD
BRANCH  18  21
ATOM     21  C   UNL     1       1.654  14.657  19.391  0.00  0.00    +0.000 C 
ATOM     22  C   UNL     1       0.246  14.910  18.831  0.00  0.00    +0.000 C 
ATOM     23  C   UNL     1      -0.702  15.518  19.866  0.00  0.00    +0.000 C 
ATOM     24  C   UNL     1      -0.140  16.797  20.481  0.00  0.00    +0.000 C 
ATOM     25  C   UNL     1       1.255  16.577  21.055  0.00  0.00    +0.000 C 
ATOM     26  C   UNL     1       2.199  15.955  20.022  0.00  0.00    +0.000 C 
ENDBRANCH  18  21
ENDBRANCH  16  17
BRANCH  16  27
ATOM     27  C   UNL     1      -0.709  10.983  21.195  0.00  0.00    +0.000 C 
ATOM     28  C   UNL     1      -0.847  11.215  22.710  0.00  0.00    +0.000 C 
ATOM     29  C   UNL     1      -1.672  11.940  20.482  0.00  0.00    +0.000 C 
ENDBRANCH  16  27
ENDBRANCH   4  16
TORSDOF 7
ENDMDL
MODEL 7
REMARK VINA RESULT:      -7.2      3.054      9.568
REMARK  Name = 
REMARK  11 active torsions:
REMARK  status: ('A' for Active; 'I' for Inactive)
REMARK    1  A    between atoms: C_1  and  O_2
REMARK    2  A    between atoms: O_2  and  C_3
REMARK    3  A    between atoms: C_3  and  C_5
REMARK    4  A    between atoms: C_7  and  C_8
REMARK    5  A    between atoms: C_11  and  C_12
REMARK    6  A    between atoms: C_12  and  N_13
REMARK    7  A    between atoms: C_12  and  C_22
REMARK    8  A    between atoms: C_14  and  C_16
REMARK    9  A    between atoms: C_22  and  C_23
REMARK   10  A    between atoms: C_22  and  C_24
REMARK   11  A    between atoms: C_27  and  C_28
REMARK                            x       y       z     vdW  Elec       q    Type
REMARK                         _______ _______ _______ _____ _____    ______ ____
ROOT
ATOM      1  C   UNL     1       1.384   9.088  19.334  0.00  0.00    +0.000 A 
ATOM      2  C   UNL     1       2.067   9.372  18.170  0.00  0.00    +0.000 A 
ATOM      3  S   UNL     1       2.864   7.962  17.609  0.00  0.00    +0.000 S 
ATOM      4  C   UNL     1       2.258   7.084  18.964  0.00  0.00    +0.000 A 
ATOM      5  N   UNL     1       1.587   7.812  19.839  0.00  0.00    +0.000 NA
ENDROOT
BRANCH   1   8
ATOM      6  C   UNL     1      -0.610  11.204  21.468  0.00  0.00    +0.000 A 
ATOM      7  N   UNL     1       0.274  10.150  21.290  0.00  0.00    +0.000 NA
ATOM      8  C   UNL     1       0.465  10.081  19.985  0.00  0.00    +0.000 A 
ATOM      9  O   UNL     1      -0.244  11.024  19.284  0.00  0.00    +0.000 OA
ATOM     10  C   UNL     1      -0.967  11.694  20.227  0.00  0.00    +0.000 A 
ATOM     11  C   UNL     1      -1.910  12.717  19.733  0.00  0.00    +0.000 C 
BRANCH   6  12
ATOM     12  C   UNL     1      -1.059  11.694  22.762  0.00  0.00    +0.000 C 
ATOM     13  O   UNL     1      -1.937  11.162  23.421  0.00  0.00    +0.000 OA
BRANCH  12  15
ATOM     14  C   UNL     1      -1.244  13.935  23.442  0.00  0.00    +0.000 C 
ATOM     15  O   UNL     1      -0.391  12.831  23.136  0.00  0.00    +0.000 OA
ENDBRANCH  12  15
ENDBRANCH   6  12
ENDBRANCH   1   8
BRANCH   4  16
ATOM     16  C   UNL     1       2.451   5.575  19.054  0.00  0.00    +0.000 C 
BRANCH  16  17
ATOM     17  N   UNL     1       3.891   5.298  18.974  0.00  0.00    +0.000 N 
ATOM     18  C   UNL     1       4.452   4.561  17.944  0.00  0.00    +0.000 C 
ATOM     19  O   UNL     1       3.784   4.141  17.006  0.00  0.00    +0.000 OA
ATOM     20  H   UNL     1       4.486   5.754  19.652  0.00  0.00    +0.000 HD
BRANCH  18  21
ATOM     21  C   UNL     1       5.962   4.305  18.079  0.00  0.00    +0.000 C 
ATOM     22  C   UNL     1       6.637   4.225  16.702  0.00  0.00    +0.000 C 
ATOM     23  C   UNL     1       6.781   5.594  16.033  0.00  0.00    +0.000 C 
ATOM     24  C   UNL     1       7.511   6.596  16.923  0.00  0.00    +0.000 C 
ATOM     25  C   UNL     1       6.860   6.705  18.297  0.00  0.00    +0.000 C 
ATOM     26  C   UNL     1       6.704   5.333  18.959  0.00  0.00    +0.000 C 
ENDBRANCH  18  21
ENDBRANCH  16  17
BRANCH  16  27
ATOM     27  C   UNL     1       1.839   5.010  20.375  0.00  0.00    +0.000 C 
ATOM     28  C   UNL     1       0.744   3.961  20.116  0.00  0.00    +0.000 C 
ATOM     29  C   UNL     1       2.897   4.373  21.285  0.00  0.00    +0.000 C 
ENDBRANCH  16  27
ENDBRANCH   4  16
TORSDOF 7
ENDMDL
MODEL 8
REMARK VINA RESULT:      -7.1      2.942      8.229
REMARK  Name = 
REMARK  11 active torsions:
REMARK  status: ('A' for Active; 'I' for Inactive)
REMARK    1  A    between atoms: C_1  and  O_2
REMARK    2  A    between atoms: O_2  and  C_3
REMARK    3  A    between atoms: C_3  and  C_5
REMARK    4  A    between atoms: C_7  and  C_8
REMARK    5  A    between atoms: C_11  and  C_12
REMARK    6  A    between atoms: C_12  and  N_13
REMARK    7  A    between atoms: C_12  and  C_22
REMARK    8  A    between atoms: C_14  and  C_16
REMARK    9  A    between atoms: C_22  and  C_23
REMARK   10  A    between atoms: C_22  and  C_24
REMARK   11  A    between atoms: C_27  and  C_28
REMARK                            x       y       z     vdW  Elec       q    Type
REMARK                         _______ _______ _______ _____ _____    ______ ____
ROOT
ATOM      1  C   UNL     1       1.924   6.469  20.002  0.00  0.00    +0.000 A 
ATOM      2  C   UNL     1       2.439   5.687  21.015  0.00  0.00    +0.000 A 
ATOM      3  S   UNL     1       3.090   4.244  20.357  0.00  0.00    +0.000 S 
ATOM      4  C   UNL     1       2.623   4.758  18.778  0.00  0.00    +0.000 A 
ATOM      5  N   UNL     1       1.933   5.885  18.745  0.00  0.00    +0.000 NA
ENDROOT
BRANCH   1   8
ATOM      6  C   UNL     1       0.894   9.925  19.953  0.00  0.00    +0.000 A 
ATOM      7  N   UNL     1       1.486   8.828  19.346  0.00  0.00    +0.000 NA
ATOM      8  C   UNL     1       1.421   7.862  20.245  0.00  0.00    +0.000 A 
ATOM      9  O   UNL     1       0.825   8.255  21.418  0.00  0.00    +0.000 OA
ATOM     10  C   UNL     1       0.547   9.580  21.246  0.00  0.00    +0.000 A 
ATOM     11  C   UNL     1      -0.017  10.294  22.408  0.00  0.00    +0.000 C 
BRANCH   6  12
ATOM     12  C   UNL     1       0.680  11.210  19.307  0.00  0.00    +0.000 C 
ATOM     13  O   UNL     1      -0.266  11.452  18.575  0.00  0.00    +0.000 OA
BRANCH  12  15
ATOM     14  C   UNL     1       2.340  12.639  18.459  0.00  0.00    +0.000 C 
ATOM     15  O   UNL     1       1.677  12.103  19.604  0.00  0.00    +0.000 OA
ENDBRANCH  12  15
ENDBRANCH   6  12
ENDBRANCH   1   8
BRANCH   4  16
ATOM     16  C   UNL     1       3.063   3.970  17.550  0.00  0.00    +0.000 C 
BRANCH  16  17
ATOM     17  N   UNL     1       4.527   4.042  17.466  0.00  0.00    +0.000 N 
ATOM     18  C   UNL     1       5.187   5.106  16.873  0.00  0.00    +0.000 C 
ATOM     19  O   UNL     1       4.587   6.079  16.430  0.00  0.00    +0.000 OA
ATOM     20  H   UNL     1       5.052   3.329  17.951  0.00  0.00    +0.000 HD
BRANCH  18  21
ATOM     21  C   UNL     1       6.717   4.963  16.806  0.00  0.00    +0.000 C 
ATOM     22  C   UNL     1       7.373   6.251  16.287  0.00  0.00    +0.000 C 
ATOM     23  C   UNL     1       7.378   7.372  17.328  0.00  0.00    +0.000 C 
ATOM     24  C   UNL     1       8.027   6.939  18.638  0.00  0.00    +0.000 C 
ATOM     25  C   UNL     1       7.391   5.665  19.185  0.00  0.00    +0.000 C 
ATOM     26  C   UNL     1       7.374   4.548  18.138  0.00  0.00    +0.000 C 
ENDBRANCH  18  21
ENDBRANCH  16  17
BRANCH  16  27
ATOM     27  C   UNL     1       2.575   2.488  17.631  0.00  0.00    +0.000 C 
ATOM     28  C   UNL     1       3.632   1.552  18.242  0.00  0.00    +0.000 C 
ATOM     29  C   UNL     1       1.285   2.339  18.448  0.00  0.00    +0.000 C 
ENDBRANCH  16  27
ENDBRANCH   4  16
TORSDOF 7
ENDMDL
MODEL 9
REMARK VINA RESULT:      -7.0      3.683      5.966
REMARK  Name = 
REMARK  11 active torsions:
REMARK  status: ('A' for Active; 'I' for Inactive)
REMARK    1  A    between atoms: C_1  and  O_2
REMARK    2  A    between atoms: O_2  and  C_3
REMARK    3  A    between atoms: C_3  and  C_5
REMARK    4  A    between atoms: C_7  and  C_8
REMARK    5  A    between atoms: C_11  and  C_12
REMARK    6  A    between atoms: C_12  and  N_13
REMARK    7  A    between atoms: C_12  and  C_22
REMARK    8  A    between atoms: C_14  and  C_16
REMARK    9  A    between atoms: C_22  and  C_23
REMARK   10  A    between atoms: C_22  and  C_24
REMARK   11  A    between atoms: C_27  and  C_28
REMARK                            x       y       z     vdW  Elec       q    Type
REMARK                         _______ _______ _______ _____ _____    ______ ____
ROOT
ATOM      1  C   UNL     1       1.883   7.891  19.727  0.00  0.00    +0.000 A 
ATOM      2  C   UNL     1       1.677   7.719  21.079  0.00  0.00    +0.000 A 
ATOM      3  S   UNL     1       0.689   8.986  21.678  0.00  0.00    +0.000 S 
ATOM      4  C   UNL     1       0.626   9.678  20.099  0.00  0.00    +0.000 A 
ATOM      5  N   UNL     1       1.374   9.067  19.197  0.00  0.00    +0.000 NA
ENDROOT
BRANCH   1   8
ATOM      6  C   UNL     1       3.161   4.982  18.019  0.00  0.00    +0.000 A 
ATOM      7  N   UNL     1       2.336   5.565  18.969  0.00  0.00    +0.000 NA
ATOM      8  C   UNL     1       2.583   6.860  18.888  0.00  0.00    +0.000 A 
ATOM      9  O   UNL     1       3.529   7.172  17.944  0.00  0.00    +0.000 OA
ATOM     10  C   UNL     1       3.932   5.970  17.438  0.00  0.00    +0.000 A 
ATOM     11  C   UNL     1       5.034   6.002  16.456  0.00  0.00    +0.000 C 
BRANCH   6  12
ATOM     12  C   UNL     1       3.180   3.562  17.703  0.00  0.00    +0.000 C 
ATOM     13  O   UNL     1       2.322   3.004  17.039  0.00  0.00    +0.000 OA
BRANCH  12  15
ATOM     14  C   UNL     1       4.048   2.461  19.587  0.00  0.00    +0.000 C 
ATOM     15  O   UNL     1       4.263   2.931  18.256  0.00  0.00    +0.000 OA
ENDBRANCH  12  15
ENDBRANCH   6  12
ENDBRANCH   1   8
BRANCH   4  16
ATOM     16  C   UNL     1      -0.295  10.858  19.811  0.00  0.00    +0.000 C 
BRANCH  16  17
ATOM     17  N   UNL     1      -1.562  10.327  19.291  0.00  0.00    +0.000 N 
ATOM     18  C   UNL     1      -1.761  10.059  17.947  0.00  0.00    +0.000 C 
ATOM     19  O   UNL     1      -0.870  10.199  17.116  0.00  0.00    +0.000 OA
ATOM     20  H   UNL     1      -2.263  10.063  19.968  0.00  0.00    +0.000 HD
BRANCH  18  21
ATOM     21  C   UNL     1      -3.179   9.588  17.584  0.00  0.00    +0.000 C 
ATOM     22  C   UNL     1      -4.241  10.345  18.396  0.00  0.00    +0.000 C 
ATOM     23  C   UNL     1      -4.437  11.785  17.915  0.00  0.00    +0.000 C 
ATOM     24  C   UNL     1      -4.761  11.855  16.426  0.00  0.00    +0.000 C 
ATOM     25  C   UNL     1      -3.720  11.119  15.590  0.00  0.00    +0.000 C 
ATOM     26  C   UNL     1      -3.514   9.684  16.081  0.00  0.00    +0.000 C 
ENDBRANCH  18  21
ENDBRANCH  16  17
BRANCH  16  27
ATOM     27  C   UNL     1      -0.527  11.714  21.096  0.00  0.00    +0.000 C 
ATOM     28  C   UNL     1       0.441  12.907  21.193  0.00  0.00    +0.000 C 
ATOM     29  C   UNL     1      -1.957  12.259  21.187  0.00  0.00    +0.000 C 
ENDBRANCH  16  27
ENDBRANCH   4  16
TORSDOF 7
ENDMDL
