MODEL 1
REMARK VINA RESULT:      -8.4      0.000      0.000
REMARK  Name = 
REMARK  6 active torsions:
REMARK  status: ('A' for Active; 'I' for Inactive)
REMARK    1  A    between atoms: C_1  and  S_2
REMARK    2  A    between atoms: S_2  and  C_3
REMARK    3  A    between atoms: C_5  and  C_6
REMARK    4  A    between atoms: C_7  and  C_8
REMARK    5  A    between atoms: C_11  and  O_12
REMARK    6  A    between atoms: O_12  and  C_13
REMARK                            x       y       z     vdW  Elec       q    Type
REMARK                         _______ _______ _______ _____ _____    ______ ____
ROOT
ATOM      1  C   UNL     1       8.861   9.478  18.785  0.00  0.00    +0.000 C 
ATOM      2  C   UNL     1       8.224   8.924  17.738  0.00  0.00    +0.000 C 
ENDROOT
BRANCH   1   5
ATOM      3  C   UNL     1      10.028  12.826  19.778  0.00  0.00    +0.000 A 
ATOM      4  C   UNL     1       9.298  11.665  19.800  0.00  0.00    +0.000 A 
ATOM      5  C   UNL     1       9.565  10.766  18.792  0.00  0.00    +0.000 A 
ATOM      6  N   UNL     1      10.469  11.004  17.826  0.00  0.00    +0.000 NA
ATOM      7  C   UNL     1      11.107  12.173  17.881  0.00  0.00    +0.000 A 
ATOM      8  N   UNL     1      12.055  12.428  16.911  0.00  0.00    +0.000 N 
ATOM      9  N   UNL     1      10.943  13.094  18.832  0.00  0.00    +0.000 NA
ATOM     10  H   UNL     1      12.376  11.556  16.518  0.00  0.00    +0.000 HD
ATOM     11  H   UNL     1      12.754  13.059  17.275  0.00  0.00    +0.000 HD
BRANCH   3  13
ATOM     12  C   UNL     1       9.122  12.931  22.389  0.00  0.00    +0.000 C 
ATOM     13  S   UNL     1       9.771  14.012  21.091  0.00  0.00    +0.000 S 
ENDBRANCH   3  13
ENDBRANCH   1   5
BRANCH   2  14
ATOM     14  C   UNL     1       7.534   7.623  17.832  0.00  0.00    +0.000 A 
ATOM     15  C   UNL     1       7.981   6.622  18.698  0.00  0.00    +0.000 A 
ATOM     16  C   UNL     1       7.319   5.398  18.795  0.00  0.00    +0.000 A 
ATOM     17  C   UNL     1       6.174   5.146  18.046  0.00  0.00    +0.000 A 
ATOM     18  C   UNL     1       5.709   6.140  17.180  0.00  0.00    +0.000 A 
ATOM     19  C   UNL     1       6.379   7.371  17.077  0.00  0.00    +0.000 A 
BRANCH  17  20
ATOM     20  O   UNL     1       5.439   3.980  18.101  0.00  0.00    +0.000 OA
BRANCH  20  21
ATOM     21  C   UNL     1       4.449   3.901  19.130  0.00  0.00    +0.000 C 
ATOM     22  C   UNL     1       4.195   2.455  19.548  0.00  0.00    +0.000 C 
ATOM     23  C   UNL     1       3.538   1.647  18.438  0.00  0.00    +0.000 C 
ATOM     24  C   UNL     1       2.387   2.390  17.772  0.00  0.00    +0.000 C 
ATOM     25  C   UNL     1       2.609   3.891  17.623  0.00  0.00    +0.000 C 
ATOM     26  O   UNL     1       3.192   4.487  18.776  0.00  0.00    +0.000 OA
ENDBRANCH  20  21
ENDBRANCH  17  20
ENDBRANCH   2  14
TORSDOF 5
ENDMDL
MODEL 2
REMARK VINA RESULT:      -8.2      0.588      1.223
REMARK  Name = 
REMARK  6 active torsions:
REMARK  status: ('A' for Active; 'I' for Inactive)
REMARK    1  A    between atoms: C_1  and  S_2
REMARK    2  A    between atoms: S_2  and  C_3
REMARK    3  A    between atoms: C_5  and  C_6
REMARK    4  A    between atoms: C_7  and  C_8
REMARK    5  A    between atoms: C_11  and  O_12
REMARK    6  A    between atoms: O_12  and  C_13
REMARK                            x       y       z     vdW  Elec       q    Type
REMARK                         _______ _______ _______ _____ _____    ______ ____
ROOT
ATOM      1  C   UNL     1       8.722   9.557  18.832  0.00  0.00    +0.000 C 
ATOM      2  C   UNL     1       8.288   8.893  17.746  0.00  0.00    +0.000 C 
ENDROOT
BRANCH   1   5
ATOM      3  C   UNL     1      10.149  12.789  19.869  0.00  0.00    +0.000 A 
ATOM      4  C   UNL     1       9.360  11.668  19.901  0.00  0.00    +0.000 A 
ATOM      5  C   UNL     1       9.495  10.805  18.837  0.00  0.00    +0.000 A 
ATOM      6  N   UNL     1      10.331  11.041  17.811  0.00  0.00    +0.000 NA
ATOM      7  C   UNL     1      11.036  12.172  17.864  0.00  0.00    +0.000 A 
ATOM      8  N   UNL     1      11.916  12.423  16.831  0.00  0.00    +0.000 N 
ATOM      9  N   UNL     1      11.000  13.054  18.864  0.00  0.00    +0.000 NA
ATOM     10  H   UNL     1      12.156  11.554  16.376  0.00  0.00    +0.000 HD
ATOM     11  H   UNL     1      12.676  12.998  17.164  0.00  0.00    +0.000 HD
BRANCH   3  13
ATOM     12  C   UNL     1      11.073  15.286  20.617  0.00  0.00    +0.000 C 
ATOM     13  S   UNL     1      10.064  13.923  21.249  0.00  0.00    +0.000 S 
ENDBRANCH   3  13
ENDBRANCH   1   5
BRANCH   2  14
ATOM     14  C   UNL     1       7.506   7.645  17.843  0.00  0.00    +0.000 A 
ATOM     15  C   UNL     1       6.327   7.467  17.115  0.00  0.00    +0.000 A 
ATOM     16  C   UNL     1       5.595   6.282  17.197  0.00  0.00    +0.000 A 
ATOM     17  C   UNL     1       6.034   5.228  17.992  0.00  0.00    +0.000 A 
ATOM     18  C   UNL     1       7.216   5.388  18.722  0.00  0.00    +0.000 A 
ATOM     19  C   UNL     1       7.950   6.584  18.645  0.00  0.00    +0.000 A 
BRANCH  17  20
ATOM     20  O   UNL     1       5.394   4.012  18.110  0.00  0.00    +0.000 OA
BRANCH  20  21
ATOM     21  C   UNL     1       4.357   3.932  19.092  0.00  0.00    +0.000 C 
ATOM     22  C   UNL     1       4.137   2.495  19.554  0.00  0.00    +0.000 C 
ATOM     23  C   UNL     1       3.570   1.619  18.446  0.00  0.00    +0.000 C 
ATOM     24  C   UNL     1       2.427   2.288  17.694  0.00  0.00    +0.000 C 
ATOM     25  C   UNL     1       2.599   3.791  17.497  0.00  0.00    +0.000 C 
ATOM     26  O   UNL     1       3.098   4.454  18.652  0.00  0.00    +0.000 OA
ENDBRANCH  20  21
ENDBRANCH  17  20
ENDBRANCH   2  14
TORSDOF 5
ENDMDL
MODEL 3
REMARK VINA RESULT:      -8.1      1.472      2.181
REMARK  Name = 
REMARK  6 active torsions:
REMARK  status: ('A' for Active; 'I' for Inactive)
REMARK    1  A    between atoms: C_1  and  S_2
REMARK    2  A    between atoms: S_2  and  C_3
REMARK    3  A    between atoms: C_5  and  C_6
REMARK    4  A    between atoms: C_7  and  C_8
REMARK    5  A    between atoms: C_11  and  O_12
REMARK    6  A    between atoms: O_12  and  C_13
REMARK                            x       y       z     vdW  Elec       q    Type
REMARK                         _______ _______ _______ _____ _____    ______ ____
ROOT
ATOM      1  C   UNL     1       8.743   9.521  18.982  0.00  0.00    +0.000 C 
ATOM      2  C   UNL     1       8.387   8.900  17.844  0.00  0.00    +0.000 C 
ENDROOT
BRANCH   1   5
ATOM      3  C   UNL     1      10.729  12.501  18.125  0.00  0.00    +0.000 A 
ATOM      4  C   UNL     1      10.105  11.290  17.971  0.00  0.00    +0.000 A 
ATOM      5  C   UNL     1       9.479  10.787  19.089  0.00  0.00    +0.000 A 
ATOM      6  N   UNL     1       9.486  11.422  20.274  0.00  0.00    +0.000 NA
ATOM      7  C   UNL     1      10.142  12.582  20.325  0.00  0.00    +0.000 A 
ATOM      8  N   UNL     1      10.144  13.261  21.527  0.00  0.00    +0.000 N 
ATOM      9  N   UNL     1      10.751  13.167  19.292  0.00  0.00    +0.000 NA
ATOM     10  H   UNL     1       9.357  12.960  22.083  0.00  0.00    +0.000 HD
ATOM     11  H   UNL     1      10.241  14.252  21.358  0.00  0.00    +0.000 HD
BRANCH   3  13
ATOM     12  C   UNL     1      12.067  14.810  17.401  0.00  0.00    +0.000 C 
ATOM     13  S   UNL     1      11.513  13.238  16.697  0.00  0.00    +0.000 S 
ENDBRANCH   3  13
ENDBRANCH   1   5
BRANCH   2  14
ATOM     14  C   UNL     1       7.637   7.629  17.839  0.00  0.00    +0.000 A 
ATOM     15  C   UNL     1       7.972   6.583  18.702  0.00  0.00    +0.000 A 
ATOM     16  C   UNL     1       7.253   5.387  18.705  0.00  0.00    +0.000 A 
ATOM     17  C   UNL     1       6.161   5.210  17.861  0.00  0.00    +0.000 A 
ATOM     18  C   UNL     1       5.809   6.251  16.996  0.00  0.00    +0.000 A 
ATOM     19  C   UNL     1       6.537   7.453  16.988  0.00  0.00    +0.000 A 
BRANCH  17  20
ATOM     20  O   UNL     1       5.375   4.077  17.818  0.00  0.00    +0.000 OA
BRANCH  20  21
ATOM     21  C   UNL     1       4.602   3.796  18.988  0.00  0.00    +0.000 C 
ATOM     22  C   UNL     1       3.897   2.447  18.879  0.00  0.00    +0.000 C 
ATOM     23  C   UNL     1       2.822   2.451  17.802  0.00  0.00    +0.000 C 
ATOM     24  C   UNL     1       1.940   3.692  17.854  0.00  0.00    +0.000 C 
ATOM     25  C   UNL     1       2.679   4.973  18.230  0.00  0.00    +0.000 C 
ATOM     26  O   UNL     1       3.614   4.789  19.286  0.00  0.00    +0.000 OA
ENDBRANCH  20  21
ENDBRANCH  17  20
ENDBRANCH   2  14
TORSDOF 5
ENDMDL
MODEL 4
REMARK VINA RESULT:      -8.0      0.769      1.538
REMARK  Name = 
REMARK  6 active torsions:
REMARK  status: ('A' for Active; 'I' for Inactive)
REMARK    1  A    between atoms: C_1  and  S_2
REMARK    2  A    between atoms: S_2  and  C_3
REMARK    3  A    between atoms: C_5  and  C_6
REMARK    4  A    between atoms: C_7  and  C_8
REMARK    5  A    between atoms: C_11  and  O_12
REMARK    6  A    between atoms: O_12  and  C_13
REMARK                            x       y       z     vdW  Elec       q    Type
REMARK                         _______ _______ _______ _____ _____    ______ ____
ROOT
ATOM      1  C   UNL     1       8.795   9.558  18.841  0.00  0.00    +0.000 C 
ATOM      2  C   UNL     1       8.371   8.896  17.751  0.00  0.00    +0.000 C 
ENDROOT
BRANCH   1   5
ATOM      3  C   UNL     1      10.206  12.797  19.878  0.00  0.00    +0.000 A 
ATOM      4  C   UNL     1       9.407  11.684  19.897  0.00  0.00    +0.000 A 
ATOM      5  C   UNL     1       9.578  10.800  18.855  0.00  0.00    +0.000 A 
ATOM      6  N   UNL     1      10.456  11.011  17.860  0.00  0.00    +0.000 NA
ATOM      7  C   UNL     1      11.168  12.137  17.921  0.00  0.00    +0.000 A 
ATOM      8  N   UNL     1      12.091  12.363  16.920  0.00  0.00    +0.000 N 
ATOM      9  N   UNL     1      11.099  13.038  18.903  0.00  0.00    +0.000 NA
ATOM     10  H   UNL     1      12.342  11.484  16.491  0.00  0.00    +0.000 HD
ATOM     11  H   UNL     1      12.842  12.938  17.273  0.00  0.00    +0.000 HD
BRANCH   3  13
ATOM     12  C   UNL     1       9.026  13.018  22.368  0.00  0.00    +0.000 C 
ATOM     13  S   UNL     1      10.075  13.958  21.232  0.00  0.00    +0.000 S 
ENDBRANCH   3  13
ENDBRANCH   1   5
BRANCH   2  14
ATOM     14  C   UNL     1       7.578   7.655  17.839  0.00  0.00    +0.000 A 
ATOM     15  C   UNL     1       6.476   7.434  17.007  0.00  0.00    +0.000 A 
ATOM     16  C   UNL     1       5.735   6.254  17.082  0.00  0.00    +0.000 A 
ATOM     17  C   UNL     1       6.089   5.247  17.975  0.00  0.00    +0.000 A 
ATOM     18  C   UNL     1       7.193   5.449  18.809  0.00  0.00    +0.000 A 
ATOM     19  C   UNL     1       7.936   6.640  18.738  0.00  0.00    +0.000 A 
BRANCH  17  20
ATOM     20  O   UNL     1       5.435   4.038  18.096  0.00  0.00    +0.000 OA
BRANCH  20  21
ATOM     21  C   UNL     1       4.061   4.016  17.698  0.00  0.00    +0.000 C 
ATOM     22  C   UNL     1       3.179   4.753  18.702  0.00  0.00    +0.000 C 
ATOM     23  C   UNL     1       3.116   4.033  20.042  0.00  0.00    +0.000 C 
ATOM     24  C   UNL     1       2.896   2.533  19.894  0.00  0.00    +0.000 C 
ATOM     25  C   UNL     1       3.609   1.907  18.699  0.00  0.00    +0.000 C 
ATOM     26  O   UNL     1       3.527   2.699  17.521  0.00  0.00    +0.000 OA
ENDBRANCH  20  21
ENDBRANCH  17  20
ENDBRANCH   2  14
TORSDOF 5
ENDMDL
MODEL 5
REMARK VINA RESULT:      -7.9      1.605      2.382
REMARK  Name = 
REMARK  6 active torsions:
REMARK  status: ('A' for Active; 'I' for Inactive)
REMARK    1  A    between atoms: C_1  and  S_2
REMARK    2  A    between atoms: S_2  and  C_3
REMARK    3  A    between atoms: C_5  and  C_6
REMARK    4  A    between atoms: C_7  and  C_8
REMARK    5  A    between atoms: C_11  and  O_12
REMARK    6  A    between atoms: O_12  and  C_13
REMARK                            x       y       z     vdW  Elec       q    Type
REMARK                         _______ _______ _______ _____ _____    ______ ____
ROOT
ATOM      1  C   UNL     1       8.827   9.612  18.991  0.00  0.00    +0.000 C 
ATOM      2  C   UNL     1       8.369   9.031  17.868  0.00  0.00    +0.000 C 
ENDROOT
BRANCH   1   5
ATOM      3  C   UNL     1      10.820  12.576  18.098  0.00  0.00    +0.000 A 
ATOM      4  C   UNL     1      10.208  11.357  17.964  0.00  0.00    +0.000 A 
ATOM      5  C   UNL     1       9.552  10.886  19.079  0.00  0.00    +0.000 A 
ATOM      6  N   UNL     1       9.520  11.558  20.242  0.00  0.00    +0.000 NA
ATOM      7  C   UNL     1      10.168  12.723  20.275  0.00  0.00    +0.000 A 
ATOM      8  N   UNL     1      10.129  13.440  21.454  0.00  0.00    +0.000 N 
ATOM      9  N   UNL     1      10.804  13.279  19.242  0.00  0.00    +0.000 NA
ATOM     10  H   UNL     1       9.328  13.152  21.996  0.00  0.00    +0.000 HD
ATOM     11  H   UNL     1      10.226  14.426  21.256  0.00  0.00    +0.000 HD
BRANCH   3  13
ATOM     12  C   UNL     1      12.056  14.917  17.299  0.00  0.00    +0.000 C 
ATOM     13  S   UNL     1      11.642  13.272  16.670  0.00  0.00    +0.000 S 
ENDBRANCH   3  13
ENDBRANCH   1   5
BRANCH   2  14
ATOM     14  C   UNL     1       7.640   7.749  17.882  0.00  0.00    +0.000 A 
ATOM     15  C   UNL     1       8.039   6.694  18.707  0.00  0.00    +0.000 A 
ATOM     16  C   UNL     1       7.340   5.486  18.730  0.00  0.00    +0.000 A 
ATOM     17  C   UNL     1       6.206   5.305  17.944  0.00  0.00    +0.000 A 
ATOM     18  C   UNL     1       5.789   6.354  17.118  0.00  0.00    +0.000 A 
ATOM     19  C   UNL     1       6.497   7.568  17.091  0.00  0.00    +0.000 A 
BRANCH  17  20
ATOM     20  O   UNL     1       5.436   4.160  17.925  0.00  0.00    +0.000 OA
BRANCH  20  21
ATOM     21  C   UNL     1       4.036   4.340  17.695  0.00  0.00    +0.000 C 
ATOM     22  C   UNL     1       3.302   4.702  18.983  0.00  0.00    +0.000 C 
ATOM     23  C   UNL     1       3.297   3.552  19.980  0.00  0.00    +0.000 C 
ATOM     24  C   UNL     1       2.951   2.216  19.336  0.00  0.00    +0.000 C 
ATOM     25  C   UNL     1       3.510   2.032  17.928  0.00  0.00    +0.000 C 
ATOM     26  O   UNL     1       3.389   3.198  17.122  0.00  0.00    +0.000 OA
ENDBRANCH  20  21
ENDBRANCH  17  20
ENDBRANCH   2  14
TORSDOF 5
ENDMDL
MODEL 6
REMARK VINA RESULT:      -7.9      1.442      1.711
REMARK  Name = 
REMARK  6 active torsions:
REMARK  status: ('A' for Active; 'I' for Inactive)
REMARK    1  A    between atoms: C_1  and  S_2
REMARK    2  A    between atoms: S_2  and  C_3
REMARK    3  A    between atoms: C_5  and  C_6
REMARK    4  A    between atoms: C_7  and  C_8
REMARK    5  A    between atoms: C_11  and  O_12
REMARK    6  A    between atoms: O_12  and  C_13
REMARK                            x       y       z     vdW  Elec       q    Type
REMARK                         _______ _______ _______ _____ _____    ______ ____
ROOT
ATOM      1  C   UNL     1       8.172   9.813  17.902  0.00  0.00    +0.000 C 
ATOM      2  C   UNL     1       8.569   8.572  18.233  0.00  0.00    +0.000 C 
ENDROOT
BRANCH   1   5
ATOM      3  C   UNL     1       9.129  13.364  18.085  0.00  0.00    +0.000 A 
ATOM      4  C   UNL     1       8.335  12.258  17.919  0.00  0.00    +0.000 A 
ATOM      5  C   UNL     1       8.970  11.041  18.013  0.00  0.00    +0.000 A 
ATOM      6  N   UNL     1      10.291  10.924  18.234  0.00  0.00    +0.000 NA
ATOM      7  C   UNL     1      10.978  12.061  18.356  0.00  0.00    +0.000 A 
ATOM      8  N   UNL     1      12.332  11.963  18.604  0.00  0.00    +0.000 N 
ATOM      9  N   UNL     1      10.450  13.286  18.313  0.00  0.00    +0.000 NA
ATOM     10  H   UNL     1      12.535  11.061  19.008  0.00  0.00    +0.000 HD
ATOM     11  H   UNL     1      12.645  12.780  19.110  0.00  0.00    +0.000 HD
BRANCH   3  13
ATOM     12  C   UNL     1       9.810  16.028  17.795  0.00  0.00    +0.000 C 
ATOM     13  S   UNL     1       8.357  14.976  18.031  0.00  0.00    +0.000 S 
ENDBRANCH   3  13
ENDBRANCH   1   5
BRANCH   2  14
ATOM     14  C   UNL     1       7.694   7.394  18.075  0.00  0.00    +0.000 A 
ATOM     15  C   UNL     1       7.872   6.246  18.852  0.00  0.00    +0.000 A 
ATOM     16  C   UNL     1       7.035   5.138  18.711  0.00  0.00    +0.000 A 
ATOM     17  C   UNL     1       5.979   5.154  17.805  0.00  0.00    +0.000 A 
ATOM     18  C   UNL     1       5.784   6.298  17.025  0.00  0.00    +0.000 A 
ATOM     19  C   UNL     1       6.630   7.412  17.162  0.00  0.00    +0.000 A 
BRANCH  17  20
ATOM     20  O   UNL     1       5.085   4.120  17.621  0.00  0.00    +0.000 OA
BRANCH  20  21
ATOM     21  C   UNL     1       4.402   3.655  18.789  0.00  0.00    +0.000 C 
ATOM     22  C   UNL     1       3.607   2.385  18.501  0.00  0.00    +0.000 C 
ATOM     23  C   UNL     1       2.442   2.644  17.555  0.00  0.00    +0.000 C 
ATOM     24  C   UNL     1       1.649   3.891  17.925  0.00  0.00    +0.000 C 
ATOM     25  C   UNL     1       2.498   5.041  18.458  0.00  0.00    +0.000 C 
ATOM     26  O   UNL     1       3.510   4.617  19.363  0.00  0.00    +0.000 OA
ENDBRANCH  20  21
ENDBRANCH  17  20
ENDBRANCH   2  14
TORSDOF 5
ENDMDL
MODEL 7
REMARK VINA RESULT:      -7.9      0.757      1.133
REMARK  Name = 
REMARK  6 active torsions:
REMARK  status: ('A' for Active; 'I' for Inactive)
REMARK    1  A    between atoms: C_1  and  S_2
REMARK    2  A    between atoms: S_2  and  C_3
REMARK    3  A    between atoms: C_5  and  C_6
REMARK    4  A    between atoms: C_7  and  C_8
REMARK    5  A    between atoms: C_11  and  O_12
REMARK    6  A    between atoms: O_12  and  C_13
REMARK                            x       y       z     vdW  Elec       q    Type
REMARK                         _______ _______ _______ _____ _____    ______ ____
ROOT
ATOM      1  C   UNL     1       8.921   9.600  18.663  0.00  0.00    +0.000 C 
ATOM      2  C   UNL     1       8.218   9.062  17.651  0.00  0.00    +0.000 C 
ENDROOT
BRANCH   1   5
ATOM      3  C   UNL     1      10.029  12.991  19.575  0.00  0.00    +0.000 A 
ATOM      4  C   UNL     1       9.306  11.827  19.612  0.00  0.00    +0.000 A 
ATOM      5  C   UNL     1       9.616  10.893  18.649  0.00  0.00    +0.000 A 
ATOM      6  N   UNL     1      10.553  11.103  17.708  0.00  0.00    +0.000 NA
ATOM      7  C   UNL     1      11.181  12.278  17.744  0.00  0.00    +0.000 A 
ATOM      8  N   UNL     1      12.163  12.505  16.800  0.00  0.00    +0.000 N 
ATOM      9  N   UNL     1      10.976  13.232  18.654  0.00  0.00    +0.000 NA
ATOM     10  H   UNL     1      12.504  11.621  16.452  0.00  0.00    +0.000 HD
ATOM     11  H   UNL     1      12.844  13.154  17.167  0.00  0.00    +0.000 HD
BRANCH   3  13
ATOM     12  C   UNL     1       9.267  13.161  22.227  0.00  0.00    +0.000 C 
ATOM     13  S   UNL     1       9.715  14.223  20.833  0.00  0.00    +0.000 S 
ENDBRANCH   3  13
ENDBRANCH   1   5
BRANCH   2  14
ATOM     14  C   UNL     1       7.544   7.755  17.764  0.00  0.00    +0.000 A 
ATOM     15  C   UNL     1       8.030   6.756  18.612  0.00  0.00    +0.000 A 
ATOM     16  C   UNL     1       7.383   5.525  18.729  0.00  0.00    +0.000 A 
ATOM     17  C   UNL     1       6.216   5.264  18.019  0.00  0.00    +0.000 A 
ATOM     18  C   UNL     1       5.712   6.256  17.171  0.00  0.00    +0.000 A 
ATOM     19  C   UNL     1       6.366   7.494  17.049  0.00  0.00    +0.000 A 
BRANCH  17  20
ATOM     20  O   UNL     1       5.494   4.091  18.095  0.00  0.00    +0.000 OA
BRANCH  20  21
ATOM     21  C   UNL     1       4.112   4.170  17.732  0.00  0.00    +0.000 C 
ATOM     22  C   UNL     1       3.270   4.744  18.868  0.00  0.00    +0.000 C 
ATOM     23  C   UNL     1       3.213   3.806  20.066  0.00  0.00    +0.000 C 
ATOM     24  C   UNL     1       2.949   2.359  19.668  0.00  0.00    +0.000 C 
ATOM     25  C   UNL     1       3.622   1.932  18.367  0.00  0.00    +0.000 C 
ATOM     26  O   UNL     1       3.539   2.917  17.345  0.00  0.00    +0.000 OA
ENDBRANCH  20  21
ENDBRANCH  17  20
ENDBRANCH   2  14
TORSDOF 5
ENDMDL
MODEL 8
REMARK VINA RESULT:      -7.9      1.650      2.578
REMARK  Name = 
REMARK  6 active torsions:
REMARK  status: ('A' for Active; 'I' for Inactive)
REMARK    1  A    between atoms: C_1  and  S_2
REMARK    2  A    between atoms: S_2  and  C_3
REMARK    3  A    between atoms: C_5  and  C_6
REMARK    4  A    between atoms: C_7  and  C_8
REMARK    5  A    between atoms: C_11  and  O_12
REMARK    6  A    between atoms: O_12  and  C_13
REMARK                            x       y       z     vdW  Elec       q    Type
REMARK                         _______ _______ _______ _____ _____    ______ ____
ROOT
ATOM      1  C   UNL     1       8.376   9.446  18.344  0.00  0.00    +0.000 C 
ATOM      2  C   UNL     1       8.588   8.137  18.567  0.00  0.00    +0.000 C 
ENDROOT
BRANCH   1   5
ATOM      3  C   UNL     1      10.735  12.261  18.088  0.00  0.00    +0.000 A 
ATOM      4  C   UNL     1       9.948  11.209  17.694  0.00  0.00    +0.000 A 
ATOM      5  C   UNL     1       9.280  10.546  18.698  0.00  0.00    +0.000 A 
ATOM      6  N   UNL     1       9.397  10.883  19.995  0.00  0.00    +0.000 NA
ATOM      7  C   UNL     1      10.207  11.905  20.275  0.00  0.00    +0.000 A 
ATOM      8  N   UNL     1      10.324  12.281  21.598  0.00  0.00    +0.000 N 
ATOM      9  N   UNL     1      10.870  12.629  19.372  0.00  0.00    +0.000 NA
ATOM     10  H   UNL     1       9.514  11.963  22.109  0.00  0.00    +0.000 HD
ATOM     11  H   UNL     1      10.552  13.263  21.653  0.00  0.00    +0.000 HD
BRANCH   3  13
ATOM     12  C   UNL     1      11.094  14.881  17.281  0.00  0.00    +0.000 C 
ATOM     13  S   UNL     1      11.586  13.200  16.827  0.00  0.00    +0.000 S 
ENDBRANCH   3  13
ENDBRANCH   1   5
BRANCH   2  14
ATOM     14  C   UNL     1       7.619   7.099  18.164  0.00  0.00    +0.000 A 
ATOM     15  C   UNL     1       6.624   7.361  17.218  0.00  0.00    +0.000 A 
ATOM     16  C   UNL     1       5.718   6.374  16.828  0.00  0.00    +0.000 A 
ATOM     17  C   UNL     1       5.794   5.088  17.353  0.00  0.00    +0.000 A 
ATOM     18  C   UNL     1       6.789   4.809  18.296  0.00  0.00    +0.000 A 
ATOM     19  C   UNL     1       7.698   5.803  18.694  0.00  0.00    +0.000 A 
BRANCH  17  20
ATOM     20  O   UNL     1       4.962   4.045  17.004  0.00  0.00    +0.000 OA
BRANCH  20  21
ATOM     21  C   UNL     1       3.562   4.254  17.203  0.00  0.00    +0.000 C 
ATOM     22  C   UNL     1       3.269   4.756  18.614  0.00  0.00    +0.000 C 
ATOM     23  C   UNL     1       3.567   3.700  19.668  0.00  0.00    +0.000 C 
ATOM     24  C   UNL     1       3.027   2.325  19.294  0.00  0.00    +0.000 C 
ATOM     25  C   UNL     1       3.118   1.997  17.807  0.00  0.00    +0.000 C 
ATOM     26  O   UNL     1       2.760   3.091  16.970  0.00  0.00    +0.000 OA
ENDBRANCH  20  21
ENDBRANCH  17  20
ENDBRANCH   2  14
TORSDOF 5
ENDMDL
MODEL 9
REMARK VINA RESULT:      -7.7      1.543      1.753
REMARK  Name = 
REMARK  6 active torsions:
REMARK  status: ('A' for Active; 'I' for Inactive)
REMARK    1  A    between atoms: C_1  and  S_2
REMARK    2  A    between atoms: S_2  and  C_3
REMARK    3  A    between atoms: C_5  and  C_6
REMARK    4  A    between atoms: C_7  and  C_8
REMARK    5  A    between atoms: C_11  and  O_12
REMARK    6  A    between atoms: O_12  and  C_13
REMARK                            x       y       z     vdW  Elec       q    Type
REMARK                         _______ _______ _______ _____ _____    ______ ____
ROOT
ATOM      1  C   UNL     1       8.025   9.775  17.990  0.00  0.00    +0.000 C 
ATOM      2  C   UNL     1       8.436   8.502  17.856  0.00  0.00    +0.000 C 
ENDROOT
BRANCH   1   5
ATOM      3  C   UNL     1       9.121  13.290  17.939  0.00  0.00    +0.000 A 
ATOM      4  C   UNL     1       8.272  12.213  17.959  0.00  0.00    +0.000 A 
ATOM      5  C   UNL     1       8.870  10.974  17.915  0.00  0.00    +0.000 A 
ATOM      6  N   UNL     1      10.202  10.811  17.837  0.00  0.00    +0.000 NA
ATOM      7  C   UNL     1      10.937  11.923  17.798  0.00  0.00    +0.000 A 
ATOM      8  N   UNL     1      12.309  11.778  17.739  0.00  0.00    +0.000 N 
ATOM      9  N   UNL     1      10.456  13.166  17.867  0.00  0.00    +0.000 NA
ATOM     10  H   UNL     1      12.565  10.868  18.093  0.00  0.00    +0.000 HD
ATOM     11  H   UNL     1      12.754  12.582  18.159  0.00  0.00    +0.000 HD
BRANCH   3  13
ATOM     12  C   UNL     1       9.198  15.524  19.567  0.00  0.00    +0.000 C 
ATOM     13  S   UNL     1       8.412  14.928  18.050  0.00  0.00    +0.000 S 
ENDBRANCH   3  13
ENDBRANCH   1   5
BRANCH   2  14
ATOM     14  C   UNL     1       7.506   7.359  17.938  0.00  0.00    +0.000 A 
ATOM     15  C   UNL     1       7.732   6.297  18.818  0.00  0.00    +0.000 A 
ATOM     16  C   UNL     1       6.844   5.224  18.904  0.00  0.00    +0.000 A 
ATOM     17  C   UNL     1       5.690   5.192  18.129  0.00  0.00    +0.000 A 
ATOM     18  C   UNL     1       5.445   6.250  17.248  0.00  0.00    +0.000 A 
ATOM     19  C   UNL     1       6.342   7.328  17.157  0.00  0.00    +0.000 A 
BRANCH  17  20
ATOM     20  O   UNL     1       4.742   4.190  18.170  0.00  0.00    +0.000 OA
BRANCH  20  21
ATOM     21  C   UNL     1       3.454   4.512  17.640  0.00  0.00    +0.000 C 
ATOM     22  C   UNL     1       2.502   4.983  18.737  0.00  0.00    +0.000 C 
ATOM     23  C   UNL     1       2.156   3.865  19.710  0.00  0.00    +0.000 C 
ATOM     24  C   UNL     1       1.813   2.558  19.008  0.00  0.00    +0.000 C 
ATOM     25  C   UNL     1       2.639   2.280  17.756  0.00  0.00    +0.000 C 
ATOM     26  O   UNL     1       2.825   3.431  16.942  0.00  0.00    +0.000 OA
ENDBRANCH  20  21
ENDBRANCH  17  20
ENDBRANCH   2  14
TORSDOF 5
ENDMDL
