MODEL 1
REMARK VINA RESULT:      -8.1      0.000      0.000
REMARK  Name = 
REMARK  11 active torsions:
REMARK  status: ('A' for Active; 'I' for Inactive)
REMARK    1  A    between atoms: C_1  and  O_2
REMARK    2  A    between atoms: O_2  and  C_3
REMARK    3  A    between atoms: C_7  and  C_8
REMARK    4  A    between atoms: C_10  and  C_11
REMARK    5  A    between atoms: N_13  and  C_14
REMARK    6  A    between atoms: C_14  and  C_15
REMARK    7  A    between atoms: C_14  and  C_19
REMARK    8  A    between atoms: C_15  and  C_16
REMARK    9  A    between atoms: C_16  and  O_18
REMARK   10  A    between atoms: C_28  and  O_29
REMARK   11  A    between atoms: O_29  and  C_30
REMARK                            x       y       z     vdW  Elec       q    Type
REMARK                         _______ _______ _______ _____ _____    ______ ____
ROOT
ATOM      1  C   UNL     1       1.442   8.187  20.550  0.00  0.00    +0.000 C 
ATOM      2  O   UNL     1       1.401   8.566  21.715  0.00  0.00    +0.000 OA
ATOM      3  N   UNL     1       1.041   8.985  19.484  0.00  0.00    +0.000 N 
ATOM      4  H   UNL     1       0.885   8.532  18.585  0.00  0.00    +0.000 HD
ENDROOT
BRANCH   1   7
ATOM      5  C   UNL     1       3.620   5.545  19.235  0.00  0.00    +0.000 A 
ATOM      6  N   UNL     1       3.090   6.760  19.512  0.00  0.00    +0.000 NA
ATOM      7  C   UNL     1       1.960   6.817  20.243  0.00  0.00    +0.000 A 
ATOM      8  C   UNL     1       1.312   5.677  20.724  0.00  0.00    +0.000 A 
ATOM      9  C   UNL     1       1.859   4.434  20.438  0.00  0.00    +0.000 A 
ATOM     10  C   UNL     1       3.030   4.349  19.693  0.00  0.00    +0.000 A 
BRANCH   5  15
ATOM     11  C   UNL     1       6.079   5.688  16.304  0.00  0.00    +0.000 A 
ATOM     12  C   UNL     1       7.282   5.505  16.968  0.00  0.00    +0.000 A 
ATOM     13  C   UNL     1       7.313   5.388  18.355  0.00  0.00    +0.000 A 
ATOM     14  C   UNL     1       6.126   5.439  19.087  0.00  0.00    +0.000 A 
ATOM     15  C   UNL     1       4.887   5.595  18.450  0.00  0.00    +0.000 A 
ATOM     16  C   UNL     1       4.915   5.750  17.050  0.00  0.00    +0.000 A 
BRANCH  11  18
ATOM     17  C   UNL     1       6.838   4.695  14.277  0.00  0.00    +0.000 C 
ATOM     18  O   UNL     1       6.146   5.750  14.941  0.00  0.00    +0.000 OA
ENDBRANCH  11  18
ENDBRANCH   5  15
BRANCH  10  19
ATOM     19  O   UNL     1       3.636   3.168  19.416  0.00  0.00    +0.000 OA
ATOM     20  C   UNL     1       2.904   2.059  18.945  0.00  0.00    +0.000 C 
ENDBRANCH  10  19
ENDBRANCH   1   7
BRANCH   3  21
ATOM     21  C   UNL     1       0.459  10.312  19.690  0.00  0.00    +0.000 C 
BRANCH  21  22
ATOM     22  C   UNL     1      -0.829  10.511  18.899  0.00  0.00    +0.000 A 
ATOM     23  C   UNL     1      -1.009   9.829  17.676  0.00  0.00    +0.000 A 
ATOM     24  C   UNL     1      -2.135  10.037  16.883  0.00  0.00    +0.000 A 
ATOM     25  C   UNL     1      -3.112  10.935  17.290  0.00  0.00    +0.000 A 
ATOM     26  C   UNL     1      -2.958  11.626  18.489  0.00  0.00    +0.000 A 
ATOM     27  C   UNL     1      -1.826  11.422  19.287  0.00  0.00    +0.000 A 
ATOM     28 CL   UNL     1      -1.711  12.362  20.734  0.00  0.00    +0.000 Cl
ENDBRANCH  21  22
BRANCH  21  29
ATOM     29  C   UNL     1       1.457  11.446  19.374  0.00  0.00    +0.000 C 
BRANCH  29  30
ATOM     30  C   UNL     1       2.148  11.300  18.033  0.00  0.00    +0.000 C 
ATOM     31  O   UNL     1       2.541  10.257  17.561  0.00  0.00    +0.000 OA
BRANCH  30  32
ATOM     32  O   UNL     1       2.373  12.492  17.432  0.00  0.00    +0.000 OA
ATOM     33  H   UNL     1       3.294  12.811  17.483  0.00  0.00    +0.000 HD
ENDBRANCH  30  32
ENDBRANCH  29  30
ENDBRANCH  21  29
ENDBRANCH   3  21
TORSDOF 9
ENDMDL
MODEL 2
REMARK VINA RESULT:      -8.1      0.912      1.422
REMARK  Name = 
REMARK  11 active torsions:
REMARK  status: ('A' for Active; 'I' for Inactive)
REMARK    1  A    between atoms: C_1  and  O_2
REMARK    2  A    between atoms: O_2  and  C_3
REMARK    3  A    between atoms: C_7  and  C_8
REMARK    4  A    between atoms: C_10  and  C_11
REMARK    5  A    between atoms: N_13  and  C_14
REMARK    6  A    between atoms: C_14  and  C_15
REMARK    7  A    between atoms: C_14  and  C_19
REMARK    8  A    between atoms: C_15  and  C_16
REMARK    9  A    between atoms: C_16  and  O_18
REMARK   10  A    between atoms: C_28  and  O_29
REMARK   11  A    between atoms: O_29  and  C_30
REMARK                            x       y       z     vdW  Elec       q    Type
REMARK                         _______ _______ _______ _____ _____    ______ ____
ROOT
ATOM      1  C   UNL     1       1.583   8.093  20.416  0.00  0.00    +0.000 C 
ATOM      2  O   UNL     1       1.763   8.549  21.539  0.00  0.00    +0.000 OA
ATOM      3  N   UNL     1       1.003   8.830  19.388  0.00  0.00    +0.000 N 
ATOM      4  H   UNL     1       0.677   8.323  18.567  0.00  0.00    +0.000 HD
ENDROOT
BRANCH   1   7
ATOM      5  C   UNL     1       3.386   5.309  18.850  0.00  0.00    +0.000 A 
ATOM      6  N   UNL     1       2.935   6.553  19.139  0.00  0.00    +0.000 NA
ATOM      7  C   UNL     1       2.017   6.693  20.115  0.00  0.00    +0.000 A 
ATOM      8  C   UNL     1       1.511   5.610  20.839  0.00  0.00    +0.000 A 
ATOM      9  C   UNL     1       1.978   4.338  20.540  0.00  0.00    +0.000 A 
ATOM     10  C   UNL     1       2.932   4.168  19.543  0.00  0.00    +0.000 A 
BRANCH   5  15
ATOM     11  C   UNL     1       6.467   6.150  16.739  0.00  0.00    +0.000 A 
ATOM     12  C   UNL     1       6.274   5.306  15.655  0.00  0.00    +0.000 A 
ATOM     13  C   UNL     1       5.191   4.433  15.623  0.00  0.00    +0.000 A 
ATOM     14  C   UNL     1       4.279   4.412  16.679  0.00  0.00    +0.000 A 
ATOM     15  C   UNL     1       4.423   5.269  17.780  0.00  0.00    +0.000 A 
ATOM     16  C   UNL     1       5.558   6.103  17.782  0.00  0.00    +0.000 A 
BRANCH  11  18
ATOM     17  C   UNL     1       7.809   7.805  17.804  0.00  0.00    +0.000 C 
ATOM     18  O   UNL     1       7.534   6.999  16.659  0.00  0.00    +0.000 OA
ENDBRANCH  11  18
ENDBRANCH   5  15
BRANCH  10  19
ATOM     19  O   UNL     1       3.458   2.957  19.233  0.00  0.00    +0.000 OA
ATOM     20  C   UNL     1       4.381   2.317  20.086  0.00  0.00    +0.000 C 
ENDBRANCH  10  19
ENDBRANCH   1   7
BRANCH   3  21
ATOM     21  C   UNL     1       0.487  10.182  19.605  0.00  0.00    +0.000 C 
BRANCH  21  22
ATOM     22  C   UNL     1      -0.802  10.443  18.833  0.00  0.00    +0.000 A 
ATOM     23  C   UNL     1      -1.028   9.779  17.609  0.00  0.00    +0.000 A 
ATOM     24  C   UNL     1      -2.154  10.041  16.832  0.00  0.00    +0.000 A 
ATOM     25  C   UNL     1      -3.086  10.978  17.259  0.00  0.00    +0.000 A 
ATOM     26  C   UNL     1      -2.885  11.653  18.460  0.00  0.00    +0.000 A 
ATOM     27  C   UNL     1      -1.753  11.394  19.242  0.00  0.00    +0.000 A 
ATOM     28 CL   UNL     1      -1.577  12.316  20.693  0.00  0.00    +0.000 Cl
ENDBRANCH  21  22
BRANCH  21  29
ATOM     29  C   UNL     1       1.532  11.269  19.276  0.00  0.00    +0.000 C 
BRANCH  29  30
ATOM     30  C   UNL     1       2.192  11.096  17.922  0.00  0.00    +0.000 C 
ATOM     31  O   UNL     1       2.488  10.035  17.421  0.00  0.00    +0.000 OA
BRANCH  30  32
ATOM     32  O   UNL     1       2.511  12.279  17.345  0.00  0.00    +0.000 OA
ATOM     33  H   UNL     1       3.367  12.291  16.878  0.00  0.00    +0.000 HD
ENDBRANCH  30  32
ENDBRANCH  29  30
ENDBRANCH  21  29
ENDBRANCH   3  21
TORSDOF 9
ENDMDL
MODEL 3
REMARK VINA RESULT:      -8.0      1.188      1.739
REMARK  Name = 
REMARK  11 active torsions:
REMARK  status: ('A' for Active; 'I' for Inactive)
REMARK    1  A    between atoms: C_1  and  O_2
REMARK    2  A    between atoms: O_2  and  C_3
REMARK    3  A    between atoms: C_7  and  C_8
REMARK    4  A    between atoms: C_10  and  C_11
REMARK    5  A    between atoms: N_13  and  C_14
REMARK    6  A    between atoms: C_14  and  C_15
REMARK    7  A    between atoms: C_14  and  C_19
REMARK    8  A    between atoms: C_15  and  C_16
REMARK    9  A    between atoms: C_16  and  O_18
REMARK   10  A    between atoms: C_28  and  O_29
REMARK   11  A    between atoms: O_29  and  C_30
REMARK                            x       y       z     vdW  Elec       q    Type
REMARK                         _______ _______ _______ _____ _____    ______ ____
ROOT
ATOM      1  C   UNL     1       1.564   8.303  20.297  0.00  0.00    +0.000 C 
ATOM      2  O   UNL     1       1.579   8.778  21.427  0.00  0.00    +0.000 OA
ATOM      3  N   UNL     1       1.129   9.016  19.186  0.00  0.00    +0.000 N 
ATOM      4  H   UNL     1       0.927   8.493  18.336  0.00  0.00    +0.000 HD
ENDROOT
BRANCH   1   7
ATOM      5  C   UNL     1       3.457   5.490  18.896  0.00  0.00    +0.000 A 
ATOM      6  N   UNL     1       2.960   6.733  19.107  0.00  0.00    +0.000 NA
ATOM      7  C   UNL     1       2.050   6.903  20.085  0.00  0.00    +0.000 A 
ATOM      8  C   UNL     1       1.595   5.853  20.887  0.00  0.00    +0.000 A 
ATOM      9  C   UNL     1       2.108   4.582  20.667  0.00  0.00    +0.000 A 
ATOM     10  C   UNL     1       3.056   4.382  19.670  0.00  0.00    +0.000 A 
BRANCH   5  15
ATOM     11  C   UNL     1       6.560   6.213  16.773  0.00  0.00    +0.000 A 
ATOM     12  C   UNL     1       6.315   5.402  15.675  0.00  0.00    +0.000 A 
ATOM     13  C   UNL     1       5.188   4.586  15.636  0.00  0.00    +0.000 A 
ATOM     14  C   UNL     1       4.285   4.591  16.700  0.00  0.00    +0.000 A 
ATOM     15  C   UNL     1       4.481   5.418  17.815  0.00  0.00    +0.000 A 
ATOM     16  C   UNL     1       5.658   6.193  17.823  0.00  0.00    +0.000 A 
BRANCH  11  18
ATOM     17  C   UNL     1       7.798   8.032  17.685  0.00  0.00    +0.000 C 
ATOM     18  O   UNL     1       7.669   7.008  16.700  0.00  0.00    +0.000 OA
ENDBRANCH  11  18
ENDBRANCH   5  15
BRANCH  10  19
ATOM     19  O   UNL     1       3.626   3.174  19.434  0.00  0.00    +0.000 OA
ATOM     20  C   UNL     1       2.860   2.074  18.996  0.00  0.00    +0.000 C 
ENDBRANCH  10  19
ENDBRANCH   1   7
BRANCH   3  21
ATOM     21  C   UNL     1       0.575  10.366  19.305  0.00  0.00    +0.000 C 
BRANCH  21  22
ATOM     22  C   UNL     1      -0.793  10.492  18.643  0.00  0.00    +0.000 A 
ATOM     23  C   UNL     1      -1.048   9.814  17.433  0.00  0.00    +0.000 A 
ATOM     24  C   UNL     1      -2.255   9.959  16.753  0.00  0.00    +0.000 A 
ATOM     25  C   UNL     1      -3.241  10.791  17.265  0.00  0.00    +0.000 A 
ATOM     26  C   UNL     1      -3.015  11.478  18.455  0.00  0.00    +0.000 A 
ATOM     27  C   UNL     1      -1.802  11.337  19.139  0.00  0.00    +0.000 A 
ATOM     28 CL   UNL     1      -1.605  12.266  20.584  0.00  0.00    +0.000 Cl
ENDBRANCH  21  22
BRANCH  21  29
ATOM     29  C   UNL     1       1.533  11.444  18.756  0.00  0.00    +0.000 C 
BRANCH  29  30
ATOM     30  C   UNL     1       1.752  12.609  19.701  0.00  0.00    +0.000 C 
ATOM     31  O   UNL     1       2.003  13.744  19.364  0.00  0.00    +0.000 OA
BRANCH  30  32
ATOM     32  O   UNL     1       1.729  12.233  21.002  0.00  0.00    +0.000 OA
ATOM     33  H   UNL     1       2.564  12.372  21.485  0.00  0.00    +0.000 HD
ENDBRANCH  30  32
ENDBRANCH  29  30
ENDBRANCH  21  29
ENDBRANCH   3  21
TORSDOF 9
ENDMDL
MODEL 4
REMARK VINA RESULT:      -7.9      0.900      1.093
REMARK  Name = 
REMARK  11 active torsions:
REMARK  status: ('A' for Active; 'I' for Inactive)
REMARK    1  A    between atoms: C_1  and  O_2
REMARK    2  A    between atoms: O_2  and  C_3
REMARK    3  A    between atoms: C_7  and  C_8
REMARK    4  A    between atoms: C_10  and  C_11
REMARK    5  A    between atoms: N_13  and  C_14
REMARK    6  A    between atoms: C_14  and  C_15
REMARK    7  A    between atoms: C_14  and  C_19
REMARK    8  A    between atoms: C_15  and  C_16
REMARK    9  A    between atoms: C_16  and  O_18
REMARK   10  A    between atoms: C_28  and  O_29
REMARK   11  A    between atoms: O_29  and  C_30
REMARK                            x       y       z     vdW  Elec       q    Type
REMARK                         _______ _______ _______ _____ _____    ______ ____
ROOT
ATOM      1  C   UNL     1       1.462   8.375  20.415  0.00  0.00    +0.000 C 
ATOM      2  O   UNL     1       1.337   8.807  21.555  0.00  0.00    +0.000 OA
ATOM      3  N   UNL     1       1.157   9.129  19.287  0.00  0.00    +0.000 N 
ATOM      4  H   UNL     1       1.063   8.638  18.400  0.00  0.00    +0.000 HD
ENDROOT
BRANCH   1   7
ATOM      5  C   UNL     1       3.617   5.641  19.260  0.00  0.00    +0.000 A 
ATOM      6  N   UNL     1       3.088   6.873  19.449  0.00  0.00    +0.000 NA
ATOM      7  C   UNL     1       1.981   6.986  20.210  0.00  0.00    +0.000 A 
ATOM      8  C   UNL     1       1.358   5.888  20.808  0.00  0.00    +0.000 A 
ATOM      9  C   UNL     1       1.906   4.628  20.612  0.00  0.00    +0.000 A 
ATOM     10  C   UNL     1       3.053   4.486  19.839  0.00  0.00    +0.000 A 
BRANCH   5  15
ATOM     11  C   UNL     1       5.979   5.656  16.246  0.00  0.00    +0.000 A 
ATOM     12  C   UNL     1       7.195   5.425  16.871  0.00  0.00    +0.000 A 
ATOM     13  C   UNL     1       7.268   5.316  18.257  0.00  0.00    +0.000 A 
ATOM     14  C   UNL     1       6.111   5.425  19.028  0.00  0.00    +0.000 A 
ATOM     15  C   UNL     1       4.858   5.630  18.433  0.00  0.00    +0.000 A 
ATOM     16  C   UNL     1       4.844   5.774  17.032  0.00  0.00    +0.000 A 
BRANCH  11  18
ATOM     17  C   UNL     1       6.829   4.756  14.212  0.00  0.00    +0.000 C 
ATOM     18  O   UNL     1       6.002   5.706  14.881  0.00  0.00    +0.000 OA
ENDBRANCH  11  18
ENDBRANCH   5  15
BRANCH  10  19
ATOM     19  O   UNL     1       3.660   3.289  19.645  0.00  0.00    +0.000 OA
ATOM     20  C   UNL     1       2.956   2.185  19.119  0.00  0.00    +0.000 C 
ENDBRANCH  10  19
ENDBRANCH   1   7
BRANCH   3  21
ATOM     21  C   UNL     1       0.582  10.471  19.389  0.00  0.00    +0.000 C 
BRANCH  21  22
ATOM     22  C   UNL     1      -0.783  10.570  18.716  0.00  0.00    +0.000 A 
ATOM     23  C   UNL     1      -1.024   9.861  17.520  0.00  0.00    +0.000 A 
ATOM     24  C   UNL     1      -2.228   9.980  16.829  0.00  0.00    +0.000 A 
ATOM     25  C   UNL     1      -3.224  10.816  17.315  0.00  0.00    +0.000 A 
ATOM     26  C   UNL     1      -3.011  11.533  18.489  0.00  0.00    +0.000 A 
ATOM     27  C   UNL     1      -1.802  11.418  19.184  0.00  0.00    +0.000 A 
ATOM     28 CL   UNL     1      -1.623  12.383  20.607  0.00  0.00    +0.000 Cl
ENDBRANCH  21  22
BRANCH  21  29
ATOM     29  C   UNL     1       1.527  11.559  18.838  0.00  0.00    +0.000 C 
BRANCH  29  30
ATOM     30  C   UNL     1       1.788  12.693  19.808  0.00  0.00    +0.000 C 
ATOM     31  O   UNL     1       2.100  13.821  19.496  0.00  0.00    +0.000 OA
BRANCH  30  32
ATOM     32  O   UNL     1       1.727  12.296  21.101  0.00  0.00    +0.000 OA
ATOM     33  H   UNL     1       1.773  11.331  21.237  0.00  0.00    +0.000 HD
ENDBRANCH  30  32
ENDBRANCH  29  30
ENDBRANCH  21  29
ENDBRANCH   3  21
TORSDOF 9
ENDMDL
MODEL 5
REMARK VINA RESULT:      -7.6      2.962      9.055
REMARK  Name = 
REMARK  11 active torsions:
REMARK  status: ('A' for Active; 'I' for Inactive)
REMARK    1  A    between atoms: C_1  and  O_2
REMARK    2  A    between atoms: O_2  and  C_3
REMARK    3  A    between atoms: C_7  and  C_8
REMARK    4  A    between atoms: C_10  and  C_11
REMARK    5  A    between atoms: N_13  and  C_14
REMARK    6  A    between atoms: C_14  and  C_15
REMARK    7  A    between atoms: C_14  and  C_19
REMARK    8  A    between atoms: C_15  and  C_16
REMARK    9  A    between atoms: C_16  and  O_18
REMARK   10  A    between atoms: C_28  and  O_29
REMARK   11  A    between atoms: O_29  and  C_30
REMARK                            x       y       z     vdW  Elec       q    Type
REMARK                         _______ _______ _______ _____ _____    ______ ____
ROOT
ATOM      1  C   UNL     1       2.451   6.824  19.112  0.00  0.00    +0.000 C 
ATOM      2  O   UNL     1       2.265   6.251  20.179  0.00  0.00    +0.000 OA
ATOM      3  N   UNL     1       3.073   6.213  18.028  0.00  0.00    +0.000 N 
ATOM      4  H   UNL     1       3.397   6.811  17.270  0.00  0.00    +0.000 HD
ENDROOT
BRANCH   1   7
ATOM      5  C   UNL     1       0.737   9.987  19.827  0.00  0.00    +0.000 A 
ATOM      6  N   UNL     1       1.166   8.705  19.912  0.00  0.00    +0.000 NA
ATOM      7  C   UNL     1       1.979   8.235  18.946  0.00  0.00    +0.000 A 
ATOM      8  C   UNL     1       2.395   9.012  17.862  0.00  0.00    +0.000 A 
ATOM      9  C   UNL     1       1.953  10.325  17.781  0.00  0.00    +0.000 A 
ATOM     10  C   UNL     1       1.121  10.837  18.770  0.00  0.00    +0.000 A 
BRANCH   5  15
ATOM     11  C   UNL     1      -1.765  11.963  21.947  0.00  0.00    +0.000 A 
ATOM     12  C   UNL     1      -1.620  11.331  23.172  0.00  0.00    +0.000 A 
ATOM     13  C   UNL     1      -0.764  10.242  23.309  0.00  0.00    +0.000 A 
ATOM     14  C   UNL     1      -0.032   9.788  22.212  0.00  0.00    +0.000 A 
ATOM     15  C   UNL     1      -0.128  10.417  20.963  0.00  0.00    +0.000 A 
ATOM     16  C   UNL     1      -1.039  11.488  20.868  0.00  0.00    +0.000 A 
BRANCH  11  18
ATOM     17  C   UNL     1      -3.630  13.050  20.940  0.00  0.00    +0.000 C 
ATOM     18  O   UNL     1      -2.596  13.047  21.922  0.00  0.00    +0.000 OA
ENDBRANCH  11  18
ENDBRANCH   5  15
BRANCH  10  19
ATOM     19  O   UNL     1       0.690  12.123  18.770  0.00  0.00    +0.000 OA
ATOM     20  C   UNL     1       1.569  13.191  18.495  0.00  0.00    +0.000 C 
ENDBRANCH  10  19
ENDBRANCH   1   7
BRANCH   3  21
ATOM     21  C   UNL     1       3.626   4.861  18.117  0.00  0.00    +0.000 C 
BRANCH  21  22
ATOM     22  C   UNL     1       4.894   4.697  17.286  0.00  0.00    +0.000 A 
ATOM     23  C   UNL     1       4.800   4.245  15.952  0.00  0.00    +0.000 A 
ATOM     24  C   UNL     1       5.935   4.007  15.180  0.00  0.00    +0.000 A 
ATOM     25  C   UNL     1       7.196   4.213  15.722  0.00  0.00    +0.000 A 
ATOM     26  C   UNL     1       7.318   4.653  17.037  0.00  0.00    +0.000 A 
ATOM     27  C   UNL     1       6.181   4.890  17.818  0.00  0.00    +0.000 A 
ATOM     28 CL   UNL     1       6.443   5.392  19.451  0.00  0.00    +0.000 Cl
ENDBRANCH  21  22
BRANCH  21  29
ATOM     29  C   UNL     1       2.595   3.779  17.734  0.00  0.00    +0.000 C 
BRANCH  29  30
ATOM     30  C   UNL     1       2.669   2.531  18.592  0.00  0.00    +0.000 C 
ATOM     31  O   UNL     1       3.547   2.281  19.387  0.00  0.00    +0.000 OA
BRANCH  30  32
ATOM     32  O   UNL     1       1.679   1.649  18.313  0.00  0.00    +0.000 OA
ATOM     33  H   UNL     1       1.540   0.961  18.989  0.00  0.00    +0.000 HD
ENDBRANCH  30  32
ENDBRANCH  29  30
ENDBRANCH  21  29
ENDBRANCH   3  21
TORSDOF 9
ENDMDL
MODEL 6
REMARK VINA RESULT:      -7.5      1.003      1.096
REMARK  Name = 
REMARK  11 active torsions:
REMARK  status: ('A' for Active; 'I' for Inactive)
REMARK    1  A    between atoms: C_1  and  O_2
REMARK    2  A    between atoms: O_2  and  C_3
REMARK    3  A    between atoms: C_7  and  C_8
REMARK    4  A    between atoms: C_10  and  C_11
REMARK    5  A    between atoms: N_13  and  C_14
REMARK    6  A    between atoms: C_14  and  C_15
REMARK    7  A    between atoms: C_14  and  C_19
REMARK    8  A    between atoms: C_15  and  C_16
REMARK    9  A    between atoms: C_16  and  O_18
REMARK   10  A    between atoms: C_28  and  O_29
REMARK   11  A    between atoms: O_29  and  C_30
REMARK                            x       y       z     vdW  Elec       q    Type
REMARK                         _______ _______ _______ _____ _____    ______ ____
ROOT
ATOM      1  C   UNL     1       1.695   8.219  20.133  0.00  0.00    +0.000 C 
ATOM      2  O   UNL     1       1.393   8.712  21.214  0.00  0.00    +0.000 OA
ATOM      3  N   UNL     1       1.656   8.936  18.942  0.00  0.00    +0.000 N 
ATOM      4  H   UNL     1       1.693   8.410  18.070  0.00  0.00    +0.000 HD
ENDROOT
BRANCH   1   7
ATOM      5  C   UNL     1       3.707   5.274  19.278  0.00  0.00    +0.000 A 
ATOM      6  N   UNL     1       3.240   6.544  19.334  0.00  0.00    +0.000 NA
ATOM      7  C   UNL     1       2.144   6.792  20.078  0.00  0.00    +0.000 A 
ATOM      8  C   UNL     1       1.470   5.797  20.789  0.00  0.00    +0.000 A 
ATOM      9  C   UNL     1       1.954   4.497  20.728  0.00  0.00    +0.000 A 
ATOM     10  C   UNL     1       3.089   4.216  19.976  0.00  0.00    +0.000 A 
BRANCH   5  15
ATOM     11  C   UNL     1       6.072   4.383  16.401  0.00  0.00    +0.000 A 
ATOM     12  C   UNL     1       7.301   4.646  16.988  0.00  0.00    +0.000 A 
ATOM     13  C   UNL     1       7.372   5.156  18.281  0.00  0.00    +0.000 A 
ATOM     14  C   UNL     1       6.203   5.392  19.004  0.00  0.00    +0.000 A 
ATOM     15  C   UNL     1       4.942   5.114  18.457  0.00  0.00    +0.000 A 
ATOM     16  C   UNL     1       4.923   4.638  17.132  0.00  0.00    +0.000 A 
BRANCH  11  18
ATOM     17  C   UNL     1       6.753   4.609  14.130  0.00  0.00    +0.000 C 
ATOM     18  O   UNL     1       6.105   3.845  15.146  0.00  0.00    +0.000 OA
ENDBRANCH  11  18
ENDBRANCH   5  15
BRANCH  10  19
ATOM     19  O   UNL     1       3.634   2.977  19.911  0.00  0.00    +0.000 OA
ATOM     20  C   UNL     1       3.665   2.127  21.036  0.00  0.00    +0.000 C 
ENDBRANCH  10  19
ENDBRANCH   1   7
BRANCH   3  21
ATOM     21  C   UNL     1       1.168  10.315  18.887  0.00  0.00    +0.000 C 
BRANCH  21  22
ATOM     22  C   UNL     1      -0.319  10.391  18.557  0.00  0.00    +0.000 A 
ATOM     23  C   UNL     1      -0.791   9.861  17.337  0.00  0.00    +0.000 A 
ATOM     24  C   UNL     1      -2.126   9.975  16.958  0.00  0.00    +0.000 A 
ATOM     25  C   UNL     1      -3.027  10.626  17.789  0.00  0.00    +0.000 A 
ATOM     26  C   UNL     1      -2.588  11.165  18.996  0.00  0.00    +0.000 A 
ATOM     27  C   UNL     1      -1.246  11.054  19.379  0.00  0.00    +0.000 A 
ATOM     28 CL   UNL     1      -0.796  11.794  20.875  0.00  0.00    +0.000 Cl
ENDBRANCH  21  22
BRANCH  21  29
ATOM     29  C   UNL     1       1.977  11.186  17.903  0.00  0.00    +0.000 C 
BRANCH  29  30
ATOM     30  C   UNL     1       2.284  12.575  18.424  0.00  0.00    +0.000 C 
ATOM     31  O   UNL     1       1.573  13.217  19.164  0.00  0.00    +0.000 OA
BRANCH  30  32
ATOM     32  O   UNL     1       3.423  13.088  17.899  0.00  0.00    +0.000 OA
ATOM     33  H   UNL     1       4.041  13.468  18.549  0.00  0.00    +0.000 HD
ENDBRANCH  30  32
ENDBRANCH  29  30
ENDBRANCH  21  29
ENDBRANCH   3  21
TORSDOF 9
ENDMDL
MODEL 7
REMARK VINA RESULT:      -7.5      2.089      3.108
REMARK  Name = 
REMARK  11 active torsions:
REMARK  status: ('A' for Active; 'I' for Inactive)
REMARK    1  A    between atoms: C_1  and  O_2
REMARK    2  A    between atoms: O_2  and  C_3
REMARK    3  A    between atoms: C_7  and  C_8
REMARK    4  A    between atoms: C_10  and  C_11
REMARK    5  A    between atoms: N_13  and  C_14
REMARK    6  A    between atoms: C_14  and  C_15
REMARK    7  A    between atoms: C_14  and  C_19
REMARK    8  A    between atoms: C_15  and  C_16
REMARK    9  A    between atoms: C_16  and  O_18
REMARK   10  A    between atoms: C_28  and  O_29
REMARK   11  A    between atoms: O_29  and  C_30
REMARK                            x       y       z     vdW  Elec       q    Type
REMARK                         _______ _______ _______ _____ _____    ______ ____
ROOT
ATOM      1  C   UNL     1       1.680   8.863  18.405  0.00  0.00    +0.000 C 
ATOM      2  O   UNL     1       2.133   9.331  17.366  0.00  0.00    +0.000 OA
ATOM      3  N   UNL     1       0.678   9.489  19.139  0.00  0.00    +0.000 N 
ATOM      4  H   UNL     1       0.519   9.169  20.092  0.00  0.00    +0.000 HD
ENDROOT
BRANCH   1   7
ATOM      5  C   UNL     1       3.834   5.911  18.724  0.00  0.00    +0.000 A 
ATOM      6  N   UNL     1       3.299   7.076  18.285  0.00  0.00    +0.000 NA
ATOM      7  C   UNL     1       2.204   7.554  18.908  0.00  0.00    +0.000 A 
ATOM      8  C   UNL     1       1.597   6.899  19.982  0.00  0.00    +0.000 A 
ATOM      9  C   UNL     1       2.150   5.706  20.428  0.00  0.00    +0.000 A 
ATOM     10  C   UNL     1       3.285   5.197  19.809  0.00  0.00    +0.000 A 
BRANCH   5  15
ATOM     11  C   UNL     1       6.152   4.273  16.155  0.00  0.00    +0.000 A 
ATOM     12  C   UNL     1       7.391   4.543  16.717  0.00  0.00    +0.000 A 
ATOM     13  C   UNL     1       7.488   5.291  17.887  0.00  0.00    +0.000 A 
ATOM     14  C   UNL     1       6.334   5.763  18.511  0.00  0.00    +0.000 A 
ATOM     15  C   UNL     1       5.061   5.489  17.990  0.00  0.00    +0.000 A 
ATOM     16  C   UNL     1       5.020   4.763  16.784  0.00  0.00    +0.000 A 
BRANCH  11  18
ATOM     17  C   UNL     1       5.734   4.111  13.816  0.00  0.00    +0.000 C 
ATOM     18  O   UNL     1       6.157   3.496  15.031  0.00  0.00    +0.000 OA
ENDBRANCH  11  18
ENDBRANCH   5  15
BRANCH  10  19
ATOM     19  O   UNL     1       3.896   4.059  20.224  0.00  0.00    +0.000 OA
ATOM     20  C   UNL     1       3.346   2.789  19.955  0.00  0.00    +0.000 C 
ENDBRANCH  10  19
ENDBRANCH   1   7
BRANCH   3  21
ATOM     21  C   UNL     1       0.151  10.801  18.762  0.00  0.00    +0.000 C 
BRANCH  21  22
ATOM     22  C   UNL     1       0.593  11.901  19.720  0.00  0.00    +0.000 A 
ATOM     23  C   UNL     1      -0.167  12.164  20.879  0.00  0.00    +0.000 A 
ATOM     24  C   UNL     1       0.154  13.208  21.744  0.00  0.00    +0.000 A 
ATOM     25  C   UNL     1       1.246  14.021  21.470  0.00  0.00    +0.000 A 
ATOM     26  C   UNL     1       2.011  13.788  20.330  0.00  0.00    +0.000 A 
ATOM     27  C   UNL     1       1.689  12.742  19.458  0.00  0.00    +0.000 A 
ATOM     28 CL   UNL     1       2.676  12.566  18.049  0.00  0.00    +0.000 Cl
ENDBRANCH  21  22
BRANCH  21  29
ATOM     29  C   UNL     1      -1.386  10.800  18.626  0.00  0.00    +0.000 C 
BRANCH  29  30
ATOM     30  C   UNL     1      -1.875  10.687  17.196  0.00  0.00    +0.000 C 
ATOM     31  O   UNL     1      -2.147   9.652  16.630  0.00  0.00    +0.000 OA
BRANCH  30  32
ATOM     32  O   UNL     1      -1.895  11.882  16.558  0.00  0.00    +0.000 OA
ATOM     33  H   UNL     1      -2.396  12.583  17.014  0.00  0.00    +0.000 HD
ENDBRANCH  30  32
ENDBRANCH  29  30
ENDBRANCH  21  29
ENDBRANCH   3  21
TORSDOF 9
ENDMDL
MODEL 8
REMARK VINA RESULT:      -7.5      2.244      3.221
REMARK  Name = 
REMARK  11 active torsions:
REMARK  status: ('A' for Active; 'I' for Inactive)
REMARK    1  A    between atoms: C_1  and  O_2
REMARK    2  A    between atoms: O_2  and  C_3
REMARK    3  A    between atoms: C_7  and  C_8
REMARK    4  A    between atoms: C_10  and  C_11
REMARK    5  A    between atoms: N_13  and  C_14
REMARK    6  A    between atoms: C_14  and  C_15
REMARK    7  A    between atoms: C_14  and  C_19
REMARK    8  A    between atoms: C_15  and  C_16
REMARK    9  A    between atoms: C_16  and  O_18
REMARK   10  A    between atoms: C_28  and  O_29
REMARK   11  A    between atoms: O_29  and  C_30
REMARK                            x       y       z     vdW  Elec       q    Type
REMARK                         _______ _______ _______ _____ _____    ______ ____
ROOT
ATOM      1  C   UNL     1       1.196   9.522  19.018  0.00  0.00    +0.000 C 
ATOM      2  O   UNL     1       1.877  10.241  18.295  0.00  0.00    +0.000 OA
ATOM      3  N   UNL     1      -0.038   9.917  19.526  0.00  0.00    +0.000 N 
ATOM      4  H   UNL     1      -0.431   9.373  20.291  0.00  0.00    +0.000 HD
ENDROOT
BRANCH   1   7
ATOM      5  C   UNL     1       3.141   6.418  18.836  0.00  0.00    +0.000 A 
ATOM      6  N   UNL     1       2.636   7.641  18.549  0.00  0.00    +0.000 NA
ATOM      7  C   UNL     1       1.690   8.152  19.362  0.00  0.00    +0.000 A 
ATOM      8  C   UNL     1       1.208   7.472  20.483  0.00  0.00    +0.000 A 
ATOM      9  C   UNL     1       1.730   6.219  20.772  0.00  0.00    +0.000 A 
ATOM     10  C   UNL     1       2.714   5.674  19.955  0.00  0.00    +0.000 A 
BRANCH   5  15
ATOM     11  C   UNL     1       6.398   6.260  16.829  0.00  0.00    +0.000 A 
ATOM     12  C   UNL     1       6.128   5.194  15.984  0.00  0.00    +0.000 A 
ATOM     13  C   UNL     1       4.930   4.493  16.090  0.00  0.00    +0.000 A 
ATOM     14  C   UNL     1       3.982   4.871  17.042  0.00  0.00    +0.000 A 
ATOM     15  C   UNL     1       4.204   5.961  17.896  0.00  0.00    +0.000 A 
ATOM     16  C   UNL     1       5.449   6.610  17.775  0.00  0.00    +0.000 A 
BRANCH  11  18
ATOM     17  C   UNL     1       7.909   7.964  17.523  0.00  0.00    +0.000 C 
ATOM     18  O   UNL     1       7.581   6.910  16.621  0.00  0.00    +0.000 OA
ENDBRANCH  11  18
ENDBRANCH   5  15
BRANCH  10  19
ATOM     19  O   UNL     1       3.292   4.474  20.208  0.00  0.00    +0.000 OA
ATOM     20  C   UNL     1       2.517   3.318  20.434  0.00  0.00    +0.000 C 
ENDBRANCH  10  19
ENDBRANCH   1   7
BRANCH   3  21
ATOM     21  C   UNL     1      -0.571  11.261  19.298  0.00  0.00    +0.000 C 
BRANCH  21  22
ATOM     22  C   UNL     1      -0.636  12.084  20.580  0.00  0.00    +0.000 A 
ATOM     23  C   UNL     1      -1.009  11.463  21.790  0.00  0.00    +0.000 A 
ATOM     24  C   UNL     1      -1.156  12.188  22.970  0.00  0.00    +0.000 A 
ATOM     25  C   UNL     1      -0.935  13.559  22.971  0.00  0.00    +0.000 A 
ATOM     26  C   UNL     1      -0.571  14.200  21.789  0.00  0.00    +0.000 A 
ATOM     27  C   UNL     1      -0.426  13.474  20.601  0.00  0.00    +0.000 A 
ATOM     28 CL   UNL     1      -0.014  14.371  19.182  0.00  0.00    +0.000 Cl
ENDBRANCH  21  22
BRANCH  21  29
ATOM     29  C   UNL     1      -1.953  11.235  18.611  0.00  0.00    +0.000 C 
BRANCH  29  30
ATOM     30  C   UNL     1      -1.925  10.692  17.197  0.00  0.00    +0.000 C 
ATOM     31  O   UNL     1      -1.621   9.562  16.889  0.00  0.00    +0.000 OA
BRANCH  30  32
ATOM     32  O   UNL     1      -2.192  11.643  16.270  0.00  0.00    +0.000 OA
ATOM     33  H   UNL     1      -2.230  12.554  16.614  0.00  0.00    +0.000 HD
ENDBRANCH  30  32
ENDBRANCH  29  30
ENDBRANCH  21  29
ENDBRANCH   3  21
TORSDOF 9
ENDMDL
MODEL 9
REMARK VINA RESULT:      -7.4      3.095      8.260
REMARK  Name = 
REMARK  11 active torsions:
REMARK  status: ('A' for Active; 'I' for Inactive)
REMARK    1  A    between atoms: C_1  and  O_2
REMARK    2  A    between atoms: O_2  and  C_3
REMARK    3  A    between atoms: C_7  and  C_8
REMARK    4  A    between atoms: C_10  and  C_11
REMARK    5  A    between atoms: N_13  and  C_14
REMARK    6  A    between atoms: C_14  and  C_15
REMARK    7  A    between atoms: C_14  and  C_19
REMARK    8  A    between atoms: C_15  and  C_16
REMARK    9  A    between atoms: C_16  and  O_18
REMARK   10  A    between atoms: C_28  and  O_29
REMARK   11  A    between atoms: O_29  and  C_30
REMARK                            x       y       z     vdW  Elec       q    Type
REMARK                         _______ _______ _______ _____ _____    ______ ____
ROOT
ATOM      1  C   UNL     1       2.097   7.759  19.392  0.00  0.00    +0.000 C 
ATOM      2  O   UNL     1       1.958   7.916  18.184  0.00  0.00    +0.000 OA
ATOM      3  N   UNL     1       2.833   6.711  19.935  0.00  0.00    +0.000 N 
ATOM      4  H   UNL     1       2.714   6.512  20.926  0.00  0.00    +0.000 HD
ENDROOT
BRANCH   1   7
ATOM      5  C   UNL     1       0.820  10.935  20.708  0.00  0.00    +0.000 A 
ATOM      6  N   UNL     1       1.407  10.015  19.907  0.00  0.00    +0.000 NA
ATOM      7  C   UNL     1       1.471   8.738  20.335  0.00  0.00    +0.000 A 
ATOM      8  C   UNL     1       0.962   8.327  21.568  0.00  0.00    +0.000 A 
ATOM      9  C   UNL     1       0.361   9.274  22.385  0.00  0.00    +0.000 A 
ATOM     10  C   UNL     1       0.273  10.596  21.963  0.00  0.00    +0.000 A 
BRANCH   5  15
ATOM     11  C   UNL     1       1.755  14.534  19.795  0.00  0.00    +0.000 A 
ATOM     12  C   UNL     1       0.586  14.956  19.181  0.00  0.00    +0.000 A 
ATOM     13  C   UNL     1      -0.481  14.077  19.013  0.00  0.00    +0.000 A 
ATOM     14  C   UNL     1      -0.384  12.765  19.476  0.00  0.00    +0.000 A 
ATOM     15  C   UNL     1       0.770  12.307  20.127  0.00  0.00    +0.000 A 
ATOM     16  C   UNL     1       1.835  13.224  20.235  0.00  0.00    +0.000 A 
BRANCH  11  18
ATOM     17  C   UNL     1       3.992  15.034  20.443  0.00  0.00    +0.000 C 
ATOM     18  O   UNL     1       2.729  15.479  19.952  0.00  0.00    +0.000 OA
ENDBRANCH  11  18
ENDBRANCH   5  15
BRANCH  10  19
ATOM     19  O   UNL     1      -0.339  11.559  22.696  0.00  0.00    +0.000 OA
ATOM     20  C   UNL     1      -1.719  11.500  22.980  0.00  0.00    +0.000 C 
ENDBRANCH  10  19
ENDBRANCH   1   7
BRANCH   3  21
ATOM     21  C   UNL     1       3.425   5.668  19.095  0.00  0.00    +0.000 C 
BRANCH  21  22
ATOM     22  C   UNL     1       2.525   4.442  18.971  0.00  0.00    +0.000 A 
ATOM     23  C   UNL     1       1.573   4.172  19.977  0.00  0.00    +0.000 A 
ATOM     24  C   UNL     1       0.782   3.025  19.946  0.00  0.00    +0.000 A 
ATOM     25  C   UNL     1       0.925   2.115  18.908  0.00  0.00    +0.000 A 
ATOM     26  C   UNL     1       1.862   2.354  17.905  0.00  0.00    +0.000 A 
ATOM     27  C   UNL     1       2.659   3.503  17.934  0.00  0.00    +0.000 A 
ATOM     28 CL   UNL     1       3.820   3.683  16.666  0.00  0.00    +0.000 Cl
ENDBRANCH  21  22
BRANCH  21  29
ATOM     29  C   UNL     1       4.829   5.250  19.580  0.00  0.00    +0.000 C 
BRANCH  29  30
ATOM     30  C   UNL     1       5.911   5.407  18.531  0.00  0.00    +0.000 C 
ATOM     31  O   UNL     1       6.016   6.342  17.769  0.00  0.00    +0.000 OA
BRANCH  30  32
ATOM     32  O   UNL     1       6.726   4.327  18.460  0.00  0.00    +0.000 OA
ATOM     33  H   UNL     1       7.679   4.528  18.497  0.00  0.00    +0.000 HD
ENDBRANCH  30  32
ENDBRANCH  29  30
ENDBRANCH  21  29
ENDBRANCH   3  21
TORSDOF 9
ENDMDL
