MODEL 1
REMARK VINA RESULT:      -7.4      0.000      0.000
REMARK  Name = 
REMARK  9 active torsions:
REMARK  status: ('A' for Active; 'I' for Inactive)
REMARK    1  A    between atoms: C_1  and  C_2
REMARK    2  A    between atoms: C_2  and  C_3
REMARK    3  A    between atoms: C_6  and  C_7
REMARK    4  A    between atoms: C_10  and  C_11
REMARK    5  A    between atoms: C_16  and  C_17
REMARK    6  A    between atoms: C_20  and  O_21
REMARK    7  A    between atoms: C_22  and  C_23
REMARK    8  A    between atoms: C_22  and  C_24
REMARK    9  A    between atoms: C_28  and  C_29
REMARK                            x       y       z     vdW  Elec       q    Type
REMARK                         _______ _______ _______ _____ _____    ______ ____
ROOT
ATOM      1  C   UNL     1      -6.736  14.854  17.999  0.00  0.00    +0.000 C 
ATOM      2  C   UNL     1      -6.541  13.551  18.785  0.00  0.00    +0.000 C 
ATOM      3  C   UNL     1      -6.344  12.409  17.751  0.00  0.00    +0.000 C 
ATOM      4  C   UNL     1      -7.772  13.301  19.683  0.00  0.00    +0.000 C 
ATOM      5  C   UNL     1      -7.827  14.235  20.944  0.00  0.00    +0.000 C 
ATOM      6  C   UNL     1      -6.581  14.033  21.869  0.00  0.00    +0.000 C 
ATOM      7  C   UNL     1      -6.813  12.592  22.442  0.00  0.00    +0.000 C 
ATOM      8  C   UNL     1      -6.339  14.968  23.134  0.00  0.00    +0.000 C 
ATOM      9  C   UNL     1      -4.833  14.823  23.866  0.00  0.00    +0.000 C 
ATOM     10  C   UNL     1      -3.528  15.063  22.827  0.00  0.00    +0.000 C 
ATOM     11  C   UNL     1      -3.455  16.592  22.912  0.00  0.00    +0.000 C 
ATOM     12  C   UNL     1      -4.104  14.079  21.816  0.00  0.00    +0.000 C 
ATOM     13  C   UNL     1      -3.972  12.804  22.191  0.00  0.00    +0.000 C 
ATOM     14  C   UNL     1      -3.010  12.272  23.207  0.00  0.00    +0.000 C 
ATOM     15  C   UNL     1      -1.705  12.899  22.793  0.00  0.00    +0.000 C 
ATOM     16  C   UNL     1      -1.193  12.171  21.393  0.00  0.00    +0.000 C 
ATOM     17  C   UNL     1      -0.585  10.852  21.959  0.00  0.00    +0.000 C 
ATOM     18  C   UNL     1      -2.281  11.799  20.332  0.00  0.00    +0.000 C 
ATOM     19  C   UNL     1      -1.858  11.144  19.015  0.00  0.00    +0.000 C 
ATOM     20  C   UNL     1      -0.673  11.827  18.324  0.00  0.00    +0.000 C 
ATOM     21  C   UNL     1       0.483  12.188  19.328  0.00  0.00    +0.000 C 
ATOM     22  C   UNL     1       1.183  10.836  19.657  0.00  0.00    +0.000 C 
ATOM     23  C   UNL     1       1.551  12.989  18.551  0.00  0.00    +0.000 C 
ATOM     24  C   UNL     1      -0.211  13.022  20.541  0.00  0.00    +0.000 C 
ATOM     25  C   UNL     1       0.459  14.048  21.460  0.00  0.00    +0.000 C 
ATOM     26  C   UNL     1      -0.661  15.066  22.037  0.00  0.00    +0.000 C 
ATOM     27  C   UNL     1      -1.841  14.467  22.980  0.00  0.00    +0.000 C 
ATOM     28  C   UNL     1      -1.400  14.876  24.420  0.00  0.00    +0.000 C 
ATOM     29  C   UNL     1      -5.336  14.359  20.972  0.00  0.00    +0.000 C 
ATOM     30  C   UNL     1      -5.266  13.593  19.637  0.00  0.00    +0.000 C 
ENDROOT
BRANCH  20  31
ATOM     31  O   UNL     1      -1.132  12.983  17.612  0.00  0.00    +0.000 OA
ATOM     32  H   UNL     1      -2.008  12.799  17.237  0.00  0.00    +0.000 HD
ENDBRANCH  20  31
TORSDOF 1
ENDMDL
MODEL 2
REMARK VINA RESULT:      -7.3      9.620     12.896
REMARK  Name = 
REMARK  9 active torsions:
REMARK  status: ('A' for Active; 'I' for Inactive)
REMARK    1  A    between atoms: C_1  and  C_2
REMARK    2  A    between atoms: C_2  and  C_3
REMARK    3  A    between atoms: C_6  and  C_7
REMARK    4  A    between atoms: C_10  and  C_11
REMARK    5  A    between atoms: C_16  and  C_17
REMARK    6  A    between atoms: C_20  and  O_21
REMARK    7  A    between atoms: C_22  and  C_23
REMARK    8  A    between atoms: C_22  and  C_24
REMARK    9  A    between atoms: C_28  and  C_29
REMARK                            x       y       z     vdW  Elec       q    Type
REMARK                         _______ _______ _______ _____ _____    ______ ____
ROOT
ATOM      1  C   UNL     1      11.676  11.514  19.464  0.00  0.00    +0.000 C 
ATOM      2  C   UNL     1      10.164  11.665  19.254  0.00  0.00    +0.000 C 
ATOM      3  C   UNL     1       9.503  10.313  19.638  0.00  0.00    +0.000 C 
ATOM      4  C   UNL     1       9.883  12.041  17.783  0.00  0.00    +0.000 C 
ATOM      5  C   UNL     1      10.236  13.532  17.439  0.00  0.00    +0.000 C 
ATOM      6  C   UNL     1       9.402  14.538  18.300  0.00  0.00    +0.000 C 
ATOM      7  C   UNL     1       7.950  14.343  17.739  0.00  0.00    +0.000 C 
ATOM      8  C   UNL     1       9.684  16.103  18.234  0.00  0.00    +0.000 C 
ATOM      9  C   UNL     1       8.916  17.029  19.407  0.00  0.00    +0.000 C 
ATOM     10  C   UNL     1       9.226  16.545  20.991  0.00  0.00    +0.000 C 
ATOM     11  C   UNL     1      10.537  17.310  21.204  0.00  0.00    +0.000 C 
ATOM     12  C   UNL     1       8.879  15.099  20.656  0.00  0.00    +0.000 C 
ATOM     13  C   UNL     1       7.567  14.891  20.520  0.00  0.00    +0.000 C 
ATOM     14  C   UNL     1       6.471  15.764  21.047  0.00  0.00    +0.000 C 
ATOM     15  C   UNL     1       6.882  15.991  22.478  0.00  0.00    +0.000 C 
ATOM     16  C   UNL     1       6.658  14.579  23.319  0.00  0.00    +0.000 C 
ATOM     17  C   UNL     1       5.121  14.631  23.566  0.00  0.00    +0.000 C 
ATOM     18  C   UNL     1       6.997  13.240  22.586  0.00  0.00    +0.000 C 
ATOM     19  C   UNL     1       6.827  11.910  23.326  0.00  0.00    +0.000 C 
ATOM     20  C   UNL     1       7.425  11.894  24.737  0.00  0.00    +0.000 C 
ATOM     21  C   UNL     1       7.083  13.196  25.551  0.00  0.00    +0.000 C 
ATOM     22  C   UNL     1       5.585  13.050  25.956  0.00  0.00    +0.000 C 
ATOM     23  C   UNL     1       7.847  13.130  26.892  0.00  0.00    +0.000 C 
ATOM     24  C   UNL     1       7.516  14.450  24.608  0.00  0.00    +0.000 C 
ATOM     25  C   UNL     1       7.914  15.856  25.065  0.00  0.00    +0.000 C 
ATOM     26  C   UNL     1       8.860  16.540  23.942  0.00  0.00    +0.000 C 
ATOM     27  C   UNL     1       8.238  16.813  22.466  0.00  0.00    +0.000 C 
ATOM     28  C   UNL     1       7.937  18.344  22.474  0.00  0.00    +0.000 C 
ATOM     29  C   UNL     1       9.748  14.200  19.792  0.00  0.00    +0.000 C 
ATOM     30  C   UNL     1       9.569  12.723  20.192  0.00  0.00    +0.000 C 
ENDROOT
BRANCH  20  31
ATOM     31  O   UNL     1       8.839  11.680  24.658  0.00  0.00    +0.000 OA
ATOM     32  H   UNL     1       9.049  10.803  25.016  0.00  0.00    +0.000 HD
ENDBRANCH  20  31
TORSDOF 1
ENDMDL
MODEL 3
REMARK VINA RESULT:      -7.2     10.278     13.653
REMARK  Name = 
REMARK  9 active torsions:
REMARK  status: ('A' for Active; 'I' for Inactive)
REMARK    1  A    between atoms: C_1  and  C_2
REMARK    2  A    between atoms: C_2  and  C_3
REMARK    3  A    between atoms: C_6  and  C_7
REMARK    4  A    between atoms: C_10  and  C_11
REMARK    5  A    between atoms: C_16  and  C_17
REMARK    6  A    between atoms: C_20  and  O_21
REMARK    7  A    between atoms: C_22  and  C_23
REMARK    8  A    between atoms: C_22  and  C_24
REMARK    9  A    between atoms: C_28  and  C_29
REMARK                            x       y       z     vdW  Elec       q    Type
REMARK                         _______ _______ _______ _____ _____    ______ ____
ROOT
ATOM      1  C   UNL     1      12.104  11.511  19.333  0.00  0.00    +0.000 C 
ATOM      2  C   UNL     1      10.687  12.020  19.039  0.00  0.00    +0.000 C 
ATOM      3  C   UNL     1       9.730  10.799  19.111  0.00  0.00    +0.000 C 
ATOM      4  C   UNL     1      10.657  12.687  17.647  0.00  0.00    +0.000 C 
ATOM      5  C   UNL     1      11.338  14.102  17.616  0.00  0.00    +0.000 C 
ATOM      6  C   UNL     1      10.629  15.108  18.583  0.00  0.00    +0.000 C 
ATOM      7  C   UNL     1       9.242  15.329  17.886  0.00  0.00    +0.000 C 
ATOM      8  C   UNL     1      11.225  16.563  18.833  0.00  0.00    +0.000 C 
ATOM      9  C   UNL     1      10.527  17.425  20.096  0.00  0.00    +0.000 C 
ATOM     10  C   UNL     1      10.550  16.628  21.580  0.00  0.00    +0.000 C 
ATOM     11  C   UNL     1      11.954  17.043  22.033  0.00  0.00    +0.000 C 
ATOM     12  C   UNL     1       9.962  15.368  20.955  0.00  0.00    +0.000 C 
ATOM     13  C   UNL     1       8.659  15.477  20.682  0.00  0.00    +0.000 C 
ATOM     14  C   UNL     1       7.707  16.466  21.277  0.00  0.00    +0.000 C 
ATOM     15  C   UNL     1       7.989  16.357  22.752  0.00  0.00    +0.000 C 
ATOM     16  C   UNL     1       7.392  14.908  23.295  0.00  0.00    +0.000 C 
ATOM     17  C   UNL     1       5.878  15.250  23.428  0.00  0.00    +0.000 C 
ATOM     18  C   UNL     1       7.538  13.667  22.353  0.00  0.00    +0.000 C 
ATOM     19  C   UNL     1       7.022  12.303  22.816  0.00  0.00    +0.000 C 
ATOM     20  C   UNL     1       7.439  11.923  24.241  0.00  0.00    +0.000 C 
ATOM     21  C   UNL     1       7.273  13.113  25.255  0.00  0.00    +0.000 C 
ATOM     22  C   UNL     1       5.740  13.230  25.509  0.00  0.00    +0.000 C 
ATOM     23  C   UNL     1       7.849  12.660  26.615  0.00  0.00    +0.000 C 
ATOM     24  C   UNL     1       8.053  14.382  24.599  0.00  0.00    +0.000 C 
ATOM     25  C   UNL     1       8.669  15.572  25.341  0.00  0.00    +0.000 C 
ATOM     26  C   UNL     1       9.855  16.212  24.441  0.00  0.00    +0.000 C 
ATOM     27  C   UNL     1       9.474  16.855  22.999  0.00  0.00    +0.000 C 
ATOM     28  C   UNL     1       9.486  18.392  23.270  0.00  0.00    +0.000 C 
ATOM     29  C   UNL     1      10.727  14.459  20.008  0.00  0.00    +0.000 C 
ATOM     30  C   UNL     1      10.212  13.011  20.109  0.00  0.00    +0.000 C 
ENDROOT
BRANCH  20  31
ATOM     31  O   UNL     1       8.781  11.422  24.232  0.00  0.00    +0.000 OA
ATOM     32  H   UNL     1       9.193  11.629  23.378  0.00  0.00    +0.000 HD
ENDBRANCH  20  31
TORSDOF 1
ENDMDL
MODEL 4
REMARK VINA RESULT:      -6.8      1.916      5.237
REMARK  Name = 
REMARK  9 active torsions:
REMARK  status: ('A' for Active; 'I' for Inactive)
REMARK    1  A    between atoms: C_1  and  C_2
REMARK    2  A    between atoms: C_2  and  C_3
REMARK    3  A    between atoms: C_6  and  C_7
REMARK    4  A    between atoms: C_10  and  C_11
REMARK    5  A    between atoms: C_16  and  C_17
REMARK    6  A    between atoms: C_20  and  O_21
REMARK    7  A    between atoms: C_22  and  C_23
REMARK    8  A    between atoms: C_22  and  C_24
REMARK    9  A    between atoms: C_28  and  C_29
REMARK                            x       y       z     vdW  Elec       q    Type
REMARK                         _______ _______ _______ _____ _____    ______ ____
ROOT
ATOM      1  C   UNL     1      -1.783  11.794  17.075  0.00  0.00    +0.000 C 
ATOM      2  C   UNL     1      -2.478  10.999  18.187  0.00  0.00    +0.000 C 
ATOM      3  C   UNL     1      -1.370  10.331  19.046  0.00  0.00    +0.000 C 
ATOM      4  C   UNL     1      -3.423   9.951  17.559  0.00  0.00    +0.000 C 
ATOM      5  C   UNL     1      -4.738  10.570  16.965  0.00  0.00    +0.000 C 
ATOM      6  C   UNL     1      -5.584  11.296  18.063  0.00  0.00    +0.000 C 
ATOM      7  C   UNL     1      -6.082  10.104  18.953  0.00  0.00    +0.000 C 
ATOM      8  C   UNL     1      -6.888  12.124  17.680  0.00  0.00    +0.000 C 
ATOM      9  C   UNL     1      -7.531  13.075  18.907  0.00  0.00    +0.000 C 
ATOM     10  C   UNL     1      -6.442  14.168  19.584  0.00  0.00    +0.000 C 
ATOM     11  C   UNL     1      -6.613  15.307  18.572  0.00  0.00    +0.000 C 
ATOM     12  C   UNL     1      -5.406  13.069  19.785  0.00  0.00    +0.000 C 
ATOM     13  C   UNL     1      -5.697  12.253  20.801  0.00  0.00    +0.000 C 
ATOM     14  C   UNL     1      -6.628  12.545  21.936  0.00  0.00    +0.000 C 
ATOM     15  C   UNL     1      -6.186  13.910  22.391  0.00  0.00    +0.000 C 
ATOM     16  C   UNL     1      -4.720  13.759  23.153  0.00  0.00    +0.000 C 
ATOM     17  C   UNL     1      -5.175  13.244  24.552  0.00  0.00    +0.000 C 
ATOM     18  C   UNL     1      -3.697  12.737  22.558  0.00  0.00    +0.000 C 
ATOM     19  C   UNL     1      -2.323  12.576  23.214  0.00  0.00    +0.000 C 
ATOM     20  C   UNL     1      -1.614  13.898  23.523  0.00  0.00    +0.000 C 
ATOM     21  C   UNL     1      -2.576  14.962  24.169  0.00  0.00    +0.000 C 
ATOM     22  C   UNL     1      -2.788  14.489  25.639  0.00  0.00    +0.000 C 
ATOM     23  C   UNL     1      -1.793  16.286  24.305  0.00  0.00    +0.000 C 
ATOM     24  C   UNL     1      -3.871  15.060  23.188  0.00  0.00    +0.000 C 
ATOM     25  C   UNL     1      -4.813  16.255  23.017  0.00  0.00    +0.000 C 
ATOM     26  C   UNL     1      -5.506  16.189  21.554  0.00  0.00    +0.000 C 
ATOM     27  C   UNL     1      -6.472  14.929  21.210  0.00  0.00    +0.000 C 
ATOM     28  C   UNL     1      -7.909  15.521  21.350  0.00  0.00    +0.000 C 
ATOM     29  C   UNL     1      -4.644  12.408  18.648  0.00  0.00    +0.000 C 
ATOM     30  C   UNL     1      -3.265  11.919  19.130  0.00  0.00    +0.000 C 
ENDROOT
BRANCH  20  31
ATOM     31  O   UNL     1      -0.997  14.402  22.332  0.00  0.00    +0.000 OA
ATOM     32  H   UNL     1      -1.015  15.373  22.349  0.00  0.00    +0.000 HD
ENDBRANCH  20  31
TORSDOF 1
ENDMDL
MODEL 5
REMARK VINA RESULT:      -6.5      1.943      5.924
REMARK  Name = 
REMARK  9 active torsions:
REMARK  status: ('A' for Active; 'I' for Inactive)
REMARK    1  A    between atoms: C_1  and  C_2
REMARK    2  A    between atoms: C_2  and  C_3
REMARK    3  A    between atoms: C_6  and  C_7
REMARK    4  A    between atoms: C_10  and  C_11
REMARK    5  A    between atoms: C_16  and  C_17
REMARK    6  A    between atoms: C_20  and  O_21
REMARK    7  A    between atoms: C_22  and  C_23
REMARK    8  A    between atoms: C_22  and  C_24
REMARK    9  A    between atoms: C_28  and  C_29
REMARK                            x       y       z     vdW  Elec       q    Type
REMARK                         _______ _______ _______ _____ _____    ______ ____
ROOT
ATOM      1  C   UNL     1      -4.035   9.582  18.052  0.00  0.00    +0.000 C 
ATOM      2  C   UNL     1      -3.645  11.024  17.701  0.00  0.00    +0.000 C 
ATOM      3  C   UNL     1      -4.794  11.622  16.844  0.00  0.00    +0.000 C 
ATOM      4  C   UNL     1      -2.303  11.023  16.937  0.00  0.00    +0.000 C 
ATOM      5  C   UNL     1      -1.060  10.746  17.855  0.00  0.00    +0.000 C 
ATOM      6  C   UNL     1      -0.910  11.832  18.971  0.00  0.00    +0.000 C 
ATOM      7  C   UNL     1      -0.511  13.109  18.152  0.00  0.00    +0.000 C 
ATOM      8  C   UNL     1       0.192  11.689  20.111  0.00  0.00    +0.000 C 
ATOM      9  C   UNL     1       0.056  12.770  21.391  0.00  0.00    +0.000 C 
ATOM     10  C   UNL     1      -1.444  12.756  22.158  0.00  0.00    +0.000 C 
ATOM     11  C   UNL     1      -1.187  11.597  23.127  0.00  0.00    +0.000 C 
ATOM     12  C   UNL     1      -2.169  12.889  20.824  0.00  0.00    +0.000 C 
ATOM     13  C   UNL     1      -2.097  14.118  20.307  0.00  0.00    +0.000 C 
ATOM     14  C   UNL     1      -1.776  15.377  21.051  0.00  0.00    +0.000 C 
ATOM     15  C   UNL     1      -2.684  15.299  22.250  0.00  0.00    +0.000 C 
ATOM     16  C   UNL     1      -4.243  15.562  21.746  0.00  0.00    +0.000 C 
ATOM     17  C   UNL     1      -4.247  17.115  21.620  0.00  0.00    +0.000 C 
ATOM     18  C   UNL     1      -4.670  14.953  20.369  0.00  0.00    +0.000 C 
ATOM     19  C   UNL     1      -6.103  15.151  19.869  0.00  0.00    +0.000 C 
ATOM     20  C   UNL     1      -7.182  14.865  20.920  0.00  0.00    +0.000 C 
ATOM     21  C   UNL     1      -6.839  15.490  22.321  0.00  0.00    +0.000 C 
ATOM     22  C   UNL     1      -7.097  17.019  22.167  0.00  0.00    +0.000 C 
ATOM     23  C   UNL     1      -7.917  15.023  23.324  0.00  0.00    +0.000 C 
ATOM     24  C   UNL     1      -5.335  14.987  22.689  0.00  0.00    +0.000 C 
ATOM     25  C   UNL     1      -4.729  14.826  24.086  0.00  0.00    +0.000 C 
ATOM     26  C   UNL     1      -3.535  13.733  24.033  0.00  0.00    +0.000 C 
ATOM     27  C   UNL     1      -2.231  14.053  23.120  0.00  0.00    +0.000 C 
ATOM     28  C   UNL     1      -1.154  14.490  24.161  0.00  0.00    +0.000 C 
ATOM     29  C   UNL     1      -2.246  11.778  19.790  0.00  0.00    +0.000 C 
ATOM     30  C   UNL     1      -3.536  11.899  18.957  0.00  0.00    +0.000 C 
ENDROOT
BRANCH  20  31
ATOM     31  O   UNL     1      -7.400  13.452  21.013  0.00  0.00    +0.000 OA
ATOM     32  H   UNL     1      -7.098  13.139  21.881  0.00  0.00    +0.000 HD
ENDBRANCH  20  31
TORSDOF 1
ENDMDL
MODEL 6
REMARK VINA RESULT:      -6.3      8.017     11.513
REMARK  Name = 
REMARK  9 active torsions:
REMARK  status: ('A' for Active; 'I' for Inactive)
REMARK    1  A    between atoms: C_1  and  C_2
REMARK    2  A    between atoms: C_2  and  C_3
REMARK    3  A    between atoms: C_6  and  C_7
REMARK    4  A    between atoms: C_10  and  C_11
REMARK    5  A    between atoms: C_16  and  C_17
REMARK    6  A    between atoms: C_20  and  O_21
REMARK    7  A    between atoms: C_22  and  C_23
REMARK    8  A    between atoms: C_22  and  C_24
REMARK    9  A    between atoms: C_28  and  C_29
REMARK                            x       y       z     vdW  Elec       q    Type
REMARK                         _______ _______ _______ _____ _____    ______ ____
ROOT
ATOM      1  C   UNL     1       4.244  16.600  18.218  0.00  0.00    +0.000 C 
ATOM      2  C   UNL     1       4.477  15.324  19.036  0.00  0.00    +0.000 C 
ATOM      3  C   UNL     1       4.344  14.118  18.067  0.00  0.00    +0.000 C 
ATOM      4  C   UNL     1       3.445  15.251  20.183  0.00  0.00    +0.000 C 
ATOM      5  C   UNL     1       3.746  16.246  21.360  0.00  0.00    +0.000 C 
ATOM      6  C   UNL     1       5.134  15.958  22.022  0.00  0.00    +0.000 C 
ATOM      7  C   UNL     1       4.894  14.579  22.730  0.00  0.00    +0.000 C 
ATOM      8  C   UNL     1       5.724  16.923  23.142  0.00  0.00    +0.000 C 
ATOM      9  C   UNL     1       7.330  16.655  23.558  0.00  0.00    +0.000 C 
ATOM     10  C   UNL     1       8.403  16.703  22.260  0.00  0.00    +0.000 C 
ATOM     11  C   UNL     1       8.636  18.218  22.221  0.00  0.00    +0.000 C 
ATOM     12  C   UNL     1       7.537  15.737  21.460  0.00  0.00    +0.000 C 
ATOM     13  C   UNL     1       7.626  14.475  21.888  0.00  0.00    +0.000 C 
ATOM     14  C   UNL     1       8.726  13.895  22.720  0.00  0.00    +0.000 C 
ATOM     15  C   UNL     1       9.967  14.359  22.005  0.00  0.00    +0.000 C 
ATOM     16  C   UNL     1      10.101  13.512  20.584  0.00  0.00    +0.000 C 
ATOM     17  C   UNL     1      10.688  12.166  21.104  0.00  0.00    +0.000 C 
ATOM     18  C   UNL     1       8.784  13.207  19.797  0.00  0.00    +0.000 C 
ATOM     19  C   UNL     1       8.857  12.447  18.471  0.00  0.00    +0.000 C 
ATOM     20  C   UNL     1       9.929  12.966  17.506  0.00  0.00    +0.000 C 
ATOM     21  C   UNL     1      11.299  13.251  18.223  0.00  0.00    +0.000 C 
ATOM     22  C   UNL     1      11.923  11.849  18.496  0.00  0.00    +0.000 C 
ATOM     23  C   UNL     1      12.249  13.894  17.190  0.00  0.00    +0.000 C 
ATOM     24  C   UNL     1      10.957  14.211  19.492  0.00  0.00    +0.000 C 
ATOM     25  C   UNL     1      11.899  15.204  20.179  0.00  0.00    +0.000 C 
ATOM     26  C   UNL     1      11.026  16.363  20.901  0.00  0.00    +0.000 C 
ATOM     27  C   UNL     1      10.021  15.940  22.105  0.00  0.00    +0.000 C 
ATOM     28  C   UNL     1      10.792  16.369  23.393  0.00  0.00    +0.000 C 
ATOM     29  C   UNL     1       6.187  16.105  20.868  0.00  0.00    +0.000 C 
ATOM     30  C   UNL     1       5.901  15.271  19.605  0.00  0.00    +0.000 C 
ENDROOT
BRANCH  20  31
ATOM     31  O   UNL     1       9.440  14.127  16.824  0.00  0.00    +0.000 OA
ATOM     32  H   UNL     1       8.470  14.107  16.814  0.00  0.00    +0.000 HD
ENDBRANCH  20  31
TORSDOF 1
ENDMDL
MODEL 7
REMARK VINA RESULT:      -6.2      1.322      1.678
REMARK  Name = 
REMARK  9 active torsions:
REMARK  status: ('A' for Active; 'I' for Inactive)
REMARK    1  A    between atoms: C_1  and  C_2
REMARK    2  A    between atoms: C_2  and  C_3
REMARK    3  A    between atoms: C_6  and  C_7
REMARK    4  A    between atoms: C_10  and  C_11
REMARK    5  A    between atoms: C_16  and  C_17
REMARK    6  A    between atoms: C_20  and  O_21
REMARK    7  A    between atoms: C_22  and  C_23
REMARK    8  A    between atoms: C_22  and  C_24
REMARK    9  A    between atoms: C_28  and  C_29
REMARK                            x       y       z     vdW  Elec       q    Type
REMARK                         _______ _______ _______ _____ _____    ______ ____
ROOT
ATOM      1  C   UNL     1      -6.846  12.484  17.437  0.00  0.00    +0.000 C 
ATOM      2  C   UNL     1      -6.280  11.810  18.694  0.00  0.00    +0.000 C 
ATOM      3  C   UNL     1      -5.601  10.486  18.248  0.00  0.00    +0.000 C 
ATOM      4  C   UNL     1      -7.423  11.555  19.700  0.00  0.00    +0.000 C 
ATOM      5  C   UNL     1      -7.916  12.854  20.430  0.00  0.00    +0.000 C 
ATOM      6  C   UNL     1      -6.769  13.527  21.255  0.00  0.00    +0.000 C 
ATOM      7  C   UNL     1      -6.533  12.496  22.414  0.00  0.00    +0.000 C 
ATOM      8  C   UNL     1      -6.988  14.934  21.966  0.00  0.00    +0.000 C 
ATOM      9  C   UNL     1      -5.600  15.663  22.573  0.00  0.00    +0.000 C 
ATOM     10  C   UNL     1      -4.372  15.876  21.439  0.00  0.00    +0.000 C 
ATOM     11  C   UNL     1      -4.847  17.207  20.845  0.00  0.00    +0.000 C 
ATOM     12  C   UNL     1      -4.471  14.419  21.003  0.00  0.00    +0.000 C 
ATOM     13  C   UNL     1      -3.936  13.570  21.883  0.00  0.00    +0.000 C 
ATOM     14  C   UNL     1      -2.947  13.908  22.954  0.00  0.00    +0.000 C 
ATOM     15  C   UNL     1      -1.911  14.712  22.212  0.00  0.00    +0.000 C 
ATOM     16  C   UNL     1      -1.051  13.685  21.234  0.00  0.00    +0.000 C 
ATOM     17  C   UNL     1      -0.075  13.049  22.270  0.00  0.00    +0.000 C 
ATOM     18  C   UNL     1      -1.838  12.533  20.525  0.00  0.00    +0.000 C 
ATOM     19  C   UNL     1      -1.093  11.571  19.596  0.00  0.00    +0.000 C 
ATOM     20  C   UNL     1      -0.164  12.260  18.591  0.00  0.00    +0.000 C 
ATOM     21  C   UNL     1       0.695  13.402  19.248  0.00  0.00    +0.000 C 
ATOM     22  C   UNL     1       1.791  12.669  20.079  0.00  0.00    +0.000 C 
ATOM     23  C   UNL     1       1.482  14.109  18.122  0.00  0.00    +0.000 C 
ATOM     24  C   UNL     1      -0.355  14.371  20.027  0.00  0.00    +0.000 C 
ATOM     25  C   UNL     1      -0.175  15.856  20.354  0.00  0.00    +0.000 C 
ATOM     26  C   UNL     1      -1.628  16.553  20.514  0.00  0.00    +0.000 C 
ATOM     27  C   UNL     1      -2.605  16.045  21.708  0.00  0.00    +0.000 C 
ATOM     28  C   UNL     1      -2.469  17.162  22.790  0.00  0.00    +0.000 C 
ATOM     29  C   UNL     1      -5.641  13.851  20.215  0.00  0.00    +0.000 C 
ATOM     30  C   UNL     1      -5.185  12.664  19.345  0.00  0.00    +0.000 C 
ENDROOT
BRANCH  20  31
ATOM     31  O   UNL     1      -0.931  12.749  17.484  0.00  0.00    +0.000 OA
ATOM     32  H   UNL     1      -1.794  13.056  17.805  0.00  0.00    +0.000 HD
ENDBRANCH  20  31
TORSDOF 1
ENDMDL
MODEL 8
REMARK VINA RESULT:      -6.1      9.621     12.365
REMARK  Name = 
REMARK  9 active torsions:
REMARK  status: ('A' for Active; 'I' for Inactive)
REMARK    1  A    between atoms: C_1  and  C_2
REMARK    2  A    between atoms: C_2  and  C_3
REMARK    3  A    between atoms: C_6  and  C_7
REMARK    4  A    between atoms: C_10  and  C_11
REMARK    5  A    between atoms: C_16  and  C_17
REMARK    6  A    between atoms: C_20  and  O_21
REMARK    7  A    between atoms: C_22  and  C_23
REMARK    8  A    between atoms: C_22  and  C_24
REMARK    9  A    between atoms: C_28  and  C_29
REMARK                            x       y       z     vdW  Elec       q    Type
REMARK                         _______ _______ _______ _____ _____    ______ ____
ROOT
ATOM      1  C   UNL     1       6.095  12.693  25.378  0.00  0.00    +0.000 C 
ATOM      2  C   UNL     1       7.433  13.419  25.192  0.00  0.00    +0.000 C 
ATOM      3  C   UNL     1       8.563  12.411  25.541  0.00  0.00    +0.000 C 
ATOM      4  C   UNL     1       7.476  14.663  26.106  0.00  0.00    +0.000 C 
ATOM      5  C   UNL     1       6.584  15.849  25.592  0.00  0.00    +0.000 C 
ATOM      6  C   UNL     1       7.039  16.346  24.179  0.00  0.00    +0.000 C 
ATOM      7  C   UNL     1       8.429  17.008  24.483  0.00  0.00    +0.000 C 
ATOM      8  C   UNL     1       6.201  17.443  23.388  0.00  0.00    +0.000 C 
ATOM      9  C   UNL     1       6.643  17.674  21.783  0.00  0.00    +0.000 C 
ATOM     10  C   UNL     1       6.619  16.274  20.845  0.00  0.00    +0.000 C 
ATOM     11  C   UNL     1       5.133  16.284  20.469  0.00  0.00    +0.000 C 
ATOM     12  C   UNL     1       7.451  15.524  21.879  0.00  0.00    +0.000 C 
ATOM     13  C   UNL     1       8.738  15.878  21.874  0.00  0.00    +0.000 C 
ATOM     14  C   UNL     1       9.467  16.561  20.759  0.00  0.00    +0.000 C 
ATOM     15  C   UNL     1       9.081  15.742  19.555  0.00  0.00    +0.000 C 
ATOM     16  C   UNL     1       9.851  14.276  19.649  0.00  0.00    +0.000 C 
ATOM     17  C   UNL     1      11.275  14.665  19.149  0.00  0.00    +0.000 C 
ATOM     18  C   UNL     1       9.986  13.618  21.062  0.00  0.00    +0.000 C 
ATOM     19  C   UNL     1      10.670  12.256  21.198  0.00  0.00    +0.000 C 
ATOM     20  C   UNL     1      10.199  11.210  20.183  0.00  0.00    +0.000 C 
ATOM     21  C   UNL     1      10.086  11.792  18.726  0.00  0.00    +0.000 C 
ATOM     22  C   UNL     1      11.554  11.929  18.220  0.00  0.00    +0.000 C 
ATOM     23  C   UNL     1       9.475  10.697  17.825  0.00  0.00    +0.000 C 
ATOM     24  C   UNL     1       9.173  13.135  18.842  0.00  0.00    +0.000 C 
ATOM     25  C   UNL     1       8.315  13.766  17.742  0.00  0.00    +0.000 C 
ATOM     26  C   UNL     1       7.124  14.631  18.419  0.00  0.00    +0.000 C 
ATOM     27  C   UNL     1       7.520  15.913  19.335  0.00  0.00    +0.000 C 
ATOM     28  C   UNL     1       7.241  17.131  18.400  0.00  0.00    +0.000 C 
ATOM     29  C   UNL     1       6.924  15.096  23.239  0.00  0.00    +0.000 C 
ATOM     30  C   UNL     1       7.652  13.831  23.731  0.00  0.00    +0.000 C 
ENDROOT
BRANCH  20  31
ATOM     31  O   UNL     1       8.958  10.640  20.619  0.00  0.00    +0.000 OA
ATOM     32  H   UNL     1       8.634  11.135  21.389  0.00  0.00    +0.000 HD
ENDBRANCH  20  31
TORSDOF 1
ENDMDL
MODEL 9
REMARK VINA RESULT:      -6.1      0.958      1.023
REMARK  Name = 
REMARK  9 active torsions:
REMARK  status: ('A' for Active; 'I' for Inactive)
REMARK    1  A    between atoms: C_1  and  C_2
REMARK    2  A    between atoms: C_2  and  C_3
REMARK    3  A    between atoms: C_6  and  C_7
REMARK    4  A    between atoms: C_10  and  C_11
REMARK    5  A    between atoms: C_16  and  C_17
REMARK    6  A    between atoms: C_20  and  O_21
REMARK    7  A    between atoms: C_22  and  C_23
REMARK    8  A    between atoms: C_22  and  C_24
REMARK    9  A    between atoms: C_28  and  C_29
REMARK                            x       y       z     vdW  Elec       q    Type
REMARK                         _______ _______ _______ _____ _____    ______ ____
ROOT
ATOM      1  C   UNL     1      -7.549  13.481  18.936  0.00  0.00    +0.000 C 
ATOM      2  C   UNL     1      -6.927  12.478  19.916  0.00  0.00    +0.000 C 
ATOM      3  C   UNL     1      -6.671  11.160  19.135  0.00  0.00    +0.000 C 
ATOM      4  C   UNL     1      -7.886  12.259  21.107  0.00  0.00    +0.000 C 
ATOM      5  C   UNL     1      -7.916  13.463  22.115  0.00  0.00    +0.000 C 
ATOM      6  C   UNL     1      -6.509  13.725  22.747  0.00  0.00    +0.000 C 
ATOM      7  C   UNL     1      -6.304  12.462  23.655  0.00  0.00    +0.000 C 
ATOM      8  C   UNL     1      -6.256  14.981  23.691  0.00  0.00    +0.000 C 
ATOM      9  C   UNL     1      -4.648  15.293  24.068  0.00  0.00    +0.000 C 
ATOM     10  C   UNL     1      -3.642  15.479  22.729  0.00  0.00    +0.000 C 
ATOM     11  C   UNL     1      -3.899  16.967  22.463  0.00  0.00    +0.000 C 
ATOM     12  C   UNL     1      -4.158  14.183  22.115  0.00  0.00    +0.000 C 
ATOM     13  C   UNL     1      -3.677  13.090  22.713  0.00  0.00    +0.000 C 
ATOM     14  C   UNL     1      -2.452  13.014  23.569  0.00  0.00    +0.000 C 
ATOM     15  C   UNL     1      -1.418  13.729  22.740  0.00  0.00    +0.000 C 
ATOM     16  C   UNL     1      -1.022  12.764  21.450  0.00  0.00    +0.000 C 
ATOM     17  C   UNL     1      -0.041  11.761  22.129  0.00  0.00    +0.000 C 
ATOM     18  C   UNL     1      -2.174  11.949  20.775  0.00  0.00    +0.000 C 
ATOM     19  C   UNL     1      -1.863  11.060  19.568  0.00  0.00    +0.000 C 
ATOM     20  C   UNL     1      -1.008  11.737  18.491  0.00  0.00    +0.000 C 
ATOM     21  C   UNL     1       0.201  12.539  19.098  0.00  0.00    +0.000 C 
ATOM     22  C   UNL     1       1.235  11.459  19.539  0.00  0.00    +0.000 C 
ATOM     23  C   UNL     1       0.903  13.284  17.942  0.00  0.00    +0.000 C 
ATOM     24  C   UNL     1      -0.428  13.523  20.231  0.00  0.00    +0.000 C 
ATOM     25  C   UNL     1       0.152  14.852  20.727  0.00  0.00    +0.000 C 
ATOM     26  C   UNL     1      -1.043  15.774  21.315  0.00  0.00    +0.000 C 
ATOM     27  C   UNL     1      -1.866  15.244  22.611  0.00  0.00    +0.000 C 
ATOM     28  C   UNL     1      -1.272  16.080  23.788  0.00  0.00    +0.000 C 
ATOM     29  C   UNL     1      -5.555  14.018  21.538  0.00  0.00    +0.000 C 
ATOM     30  C   UNL     1      -5.560  12.958  20.421  0.00  0.00    +0.000 C 
ENDROOT
BRANCH  20  31
ATOM     31  O   UNL     1      -1.836  12.572  17.674  0.00  0.00    +0.000 OA
ATOM     32  H   UNL     1      -2.759  12.487  17.963  0.00  0.00    +0.000 HD
ENDBRANCH  20  31
TORSDOF 1
ENDMDL
