MODEL 1
REMARK VINA RESULT:      -7.4      0.000      0.000
REMARK  Name = 
REMARK  5 active torsions:
REMARK  status: ('A' for Active; 'I' for Inactive)
REMARK    1  A    between atoms: C_1  and  C_2
REMARK    2  A    between atoms: C_2  and  N_3
REMARK    3  A    between atoms: C_5  and  C_6
REMARK    4  A    between atoms: C_12  and  C_13
REMARK    5  A    between atoms: C_16  and  C_17
REMARK                            x       y       z     vdW  Elec       q    Type
REMARK                         _______ _______ _______ _____ _____    ______ ____
ROOT
ATOM      1  C   UNL     1       4.210   2.940  18.523  0.00  0.00    +0.000 C 
ATOM      2  O   UNL     1       4.215   1.731  18.315  0.00  0.00    +0.000 OA
ATOM      3  N   UNL     1       3.417   3.566  19.485  0.00  0.00    +0.000 N 
ATOM      4  C   UNL     1       2.745   2.750  20.488  0.00  0.00    +0.000 C 
ATOM      5  C   UNL     1       1.255   3.065  20.511  0.00  0.00    +0.000 C 
ATOM      6  C   UNL     1       1.014   4.556  20.749  0.00  0.00    +0.000 C 
ATOM      7  C   UNL     1       1.779   5.421  19.734  0.00  0.00    +0.000 C 
ATOM      8  C   UNL     1       3.259   5.016  19.654  0.00  0.00    +0.000 C 
ENDROOT
BRANCH   1  11
ATOM      9  N   UNL     1       5.725   4.647  15.613  0.00  0.00    +0.000 N 
ATOM     10  N   UNL     1       4.887   3.903  16.398  0.00  0.00    +0.000 NA
ATOM     11  C   UNL     1       5.138   3.788  17.666  0.00  0.00    +0.000 C 
ATOM     12  C   UNL     1       6.218   4.546  18.369  0.00  0.00    +0.000 C 
ATOM     13  C   UNL     1       7.376   4.805  17.434  0.00  0.00    +0.000 C 
ATOM     14  C   UNL     1       6.955   5.145  16.025  0.00  0.00    +0.000 C 
ATOM     15  O   UNL     1       7.721   5.759  15.281  0.00  0.00    +0.000 OA
BRANCH   9  17
ATOM     16  C   UNL     1       6.010   3.655  13.367  0.00  0.00    +0.000 C 
ATOM     17  C   UNL     1       5.333   4.727  14.207  0.00  0.00    +0.000 C 
ENDBRANCH   9  17
ENDBRANCH   1  11
BRANCH   7  18
ATOM     18  C   UNL     1       1.663   6.872  20.044  0.00  0.00    +0.000 A 
ATOM     19  N   UNL     1       2.094   7.828  19.212  0.00  0.00    +0.000 NA
ATOM     20  O   UNL     1       1.818   9.006  19.911  0.00  0.00    +0.000 OA
ATOM     21  C   UNL     1       1.255   8.629  21.096  0.00  0.00    +0.000 A 
ATOM     22  C   UNL     1       0.866   9.700  22.029  0.00  0.00    +0.000 C 
ATOM     23  N   UNL     1       1.140   7.328  21.228  0.00  0.00    +0.000 NA
ENDBRANCH   7  18
TORSDOF 3
ENDMDL
MODEL 2
REMARK VINA RESULT:      -7.4      2.734      5.433
REMARK  Name = 
REMARK  5 active torsions:
REMARK  status: ('A' for Active; 'I' for Inactive)
REMARK    1  A    between atoms: C_1  and  C_2
REMARK    2  A    between atoms: C_2  and  N_3
REMARK    3  A    between atoms: C_5  and  C_6
REMARK    4  A    between atoms: C_12  and  C_13
REMARK    5  A    between atoms: C_16  and  C_17
REMARK                            x       y       z     vdW  Elec       q    Type
REMARK                         _______ _______ _______ _____ _____    ______ ____
ROOT
ATOM      1  C   UNL     1       3.235   5.068  18.171  0.00  0.00    +0.000 C 
ATOM      2  O   UNL     1       2.485   6.037  18.114  0.00  0.00    +0.000 OA
ATOM      3  N   UNL     1       3.007   3.945  18.966  0.00  0.00    +0.000 N 
ATOM      4  C   UNL     1       1.694   3.761  19.571  0.00  0.00    +0.000 C 
ATOM      5  C   UNL     1       1.832   3.551  21.073  0.00  0.00    +0.000 C 
ATOM      6  C   UNL     1       2.758   2.372  21.378  0.00  0.00    +0.000 C 
ATOM      7  C   UNL     1       4.120   2.531  20.682  0.00  0.00    +0.000 C 
ATOM      8  C   UNL     1       3.954   2.845  19.188  0.00  0.00    +0.000 C 
ENDROOT
BRANCH   1  11
ATOM      9  N   UNL     1       6.543   6.036  16.827  0.00  0.00    +0.000 N 
ATOM     10  N   UNL     1       5.421   5.968  17.608  0.00  0.00    +0.000 NA
ATOM     11  C   UNL     1       4.487   5.119  17.308  0.00  0.00    +0.000 C 
ATOM     12  C   UNL     1       4.620   4.088  16.231  0.00  0.00    +0.000 C 
ATOM     13  C   UNL     1       5.506   4.597  15.119  0.00  0.00    +0.000 C 
ATOM     14  C   UNL     1       6.691   5.397  15.604  0.00  0.00    +0.000 C 
ATOM     15  O   UNL     1       7.686   5.524  14.889  0.00  0.00    +0.000 OA
BRANCH   9  17
ATOM     16  C   UNL     1       8.036   6.710  18.679  0.00  0.00    +0.000 C 
ATOM     17  C   UNL     1       7.537   7.011  17.273  0.00  0.00    +0.000 C 
ENDBRANCH   9  17
ENDBRANCH   1  11
BRANCH   7  18
ATOM     18  C   UNL     1       4.974   1.324  20.859  0.00  0.00    +0.000 A 
ATOM     19  N   UNL     1       5.197   0.444  19.874  0.00  0.00    +0.000 NA
ATOM     20  O   UNL     1       6.005  -0.518  20.486  0.00  0.00    +0.000 OA
ATOM     21  C   UNL     1       6.176  -0.115  21.779  0.00  0.00    +0.000 A 
ATOM     22  C   UNL     1       7.001  -0.969  22.649  0.00  0.00    +0.000 C 
ATOM     23  N   UNL     1       5.560   1.010  22.058  0.00  0.00    +0.000 NA
ENDBRANCH   7  18
TORSDOF 3
ENDMDL
MODEL 3
REMARK VINA RESULT:      -7.3      1.111      2.085
REMARK  Name = 
REMARK  5 active torsions:
REMARK  status: ('A' for Active; 'I' for Inactive)
REMARK    1  A    between atoms: C_1  and  C_2
REMARK    2  A    between atoms: C_2  and  N_3
REMARK    3  A    between atoms: C_5  and  C_6
REMARK    4  A    between atoms: C_12  and  C_13
REMARK    5  A    between atoms: C_16  and  C_17
REMARK                            x       y       z     vdW  Elec       q    Type
REMARK                         _______ _______ _______ _____ _____    ______ ____
ROOT
ATOM      1  C   UNL     1       3.924   2.789  18.269  0.00  0.00    +0.000 C 
ATOM      2  O   UNL     1       3.851   1.614  17.926  0.00  0.00    +0.000 OA
ATOM      3  N   UNL     1       3.131   3.368  19.260  0.00  0.00    +0.000 N 
ATOM      4  C   UNL     1       2.350   2.503  20.136  0.00  0.00    +0.000 C 
ATOM      5  C   UNL     1       0.889   2.930  20.130  0.00  0.00    +0.000 C 
ATOM      6  C   UNL     1       0.746   4.401  20.524  0.00  0.00    +0.000 C 
ATOM      7  C   UNL     1       1.624   5.307  19.646  0.00  0.00    +0.000 C 
ATOM      8  C   UNL     1       3.072   4.798  19.585  0.00  0.00    +0.000 C 
ENDROOT
BRANCH   1  11
ATOM      9  N   UNL     1       6.964   4.773  17.557  0.00  0.00    +0.000 N 
ATOM     10  N   UNL     1       6.038   3.984  18.184  0.00  0.00    +0.000 NA
ATOM     11  C   UNL     1       4.955   3.649  17.553  0.00  0.00    +0.000 C 
ATOM     12  C   UNL     1       4.710   3.953  16.110  0.00  0.00    +0.000 C 
ATOM     13  C   UNL     1       5.394   5.241  15.716  0.00  0.00    +0.000 C 
ATOM     14  C   UNL     1       6.755   5.422  16.346  0.00  0.00    +0.000 C 
ATOM     15  O   UNL     1       7.580   6.178  15.832  0.00  0.00    +0.000 OA
BRANCH   9  17
ATOM     16  C   UNL     1       7.816   5.848  19.612  0.00  0.00    +0.000 C 
ATOM     17  C   UNL     1       8.154   5.066  18.352  0.00  0.00    +0.000 C 
ENDBRANCH   9  17
ENDBRANCH   1  11
BRANCH   7  18
ATOM     18  C   UNL     1       1.599   6.721  20.113  0.00  0.00    +0.000 A 
ATOM     19  N   UNL     1       2.138   7.726  19.411  0.00  0.00    +0.000 NA
ATOM     20  O   UNL     1       1.916   8.838  20.227  0.00  0.00    +0.000 OA
ATOM     21  C   UNL     1       1.272   8.379  21.339  0.00  0.00    +0.000 A 
ATOM     22  C   UNL     1       0.918   9.369  22.371  0.00  0.00    +0.000 C 
ATOM     23  N   UNL     1       1.056   7.085  21.319  0.00  0.00    +0.000 NA
ENDBRANCH   7  18
TORSDOF 3
ENDMDL
MODEL 4
REMARK VINA RESULT:      -7.3      2.621      6.242
REMARK  Name = 
REMARK  5 active torsions:
REMARK  status: ('A' for Active; 'I' for Inactive)
REMARK    1  A    between atoms: C_1  and  C_2
REMARK    2  A    between atoms: C_2  and  N_3
REMARK    3  A    between atoms: C_5  and  C_6
REMARK    4  A    between atoms: C_12  and  C_13
REMARK    5  A    between atoms: C_16  and  C_17
REMARK                            x       y       z     vdW  Elec       q    Type
REMARK                         _______ _______ _______ _____ _____    ______ ____
ROOT
ATOM      1  C   UNL     1       3.150   4.377  17.280  0.00  0.00    +0.000 C 
ATOM      2  O   UNL     1       2.575   3.365  16.894  0.00  0.00    +0.000 OA
ATOM      3  N   UNL     1       4.352   4.846  16.750  0.00  0.00    +0.000 N 
ATOM      4  C   UNL     1       4.842   4.280  15.499  0.00  0.00    +0.000 C 
ATOM      5  C   UNL     1       6.273   3.790  15.669  0.00  0.00    +0.000 C 
ATOM      6  C   UNL     1       7.183   4.914  16.169  0.00  0.00    +0.000 C 
ATOM      7  C   UNL     1       6.629   5.559  17.450  0.00  0.00    +0.000 C 
ATOM      8  C   UNL     1       5.153   5.952  17.288  0.00  0.00    +0.000 C 
ENDROOT
BRANCH   1  11
ATOM      9  N   UNL     1       1.885   7.158  19.365  0.00  0.00    +0.000 N 
ATOM     10  N   UNL     1       2.459   6.448  18.346  0.00  0.00    +0.000 NA
ATOM     11  C   UNL     1       2.490   5.153  18.409  0.00  0.00    +0.000 C 
ATOM     12  C   UNL     1       1.797   4.360  19.472  0.00  0.00    +0.000 C 
ATOM     13  C   UNL     1       1.751   5.136  20.766  0.00  0.00    +0.000 C 
ATOM     14  C   UNL     1       1.492   6.612  20.580  0.00  0.00    +0.000 C 
ATOM     15  O   UNL     1       1.035   7.282  21.508  0.00  0.00    +0.000 OA
BRANCH   9  17
ATOM     16  C   UNL     1       2.067   8.988  17.714  0.00  0.00    +0.000 C 
ATOM     17  C   UNL     1       1.886   8.607  19.175  0.00  0.00    +0.000 C 
ENDBRANCH   9  17
ENDBRANCH   1  11
BRANCH   7  18
ATOM     18  C   UNL     1       7.431   6.743  17.863  0.00  0.00    +0.000 A 
ATOM     19  N   UNL     1       8.266   6.722  18.910  0.00  0.00    +0.000 NA
ATOM     20  O   UNL     1       8.765   8.028  18.944  0.00  0.00    +0.000 OA
ATOM     21  C   UNL     1       8.167   8.696  17.914  0.00  0.00    +0.000 A 
ATOM     22  C   UNL     1       8.528  10.112  17.730  0.00  0.00    +0.000 C 
ATOM     23  N   UNL     1       7.337   7.952  17.222  0.00  0.00    +0.000 NA
ENDBRANCH   7  18
TORSDOF 3
ENDMDL
MODEL 5
REMARK VINA RESULT:      -7.3      0.942      1.213
REMARK  Name = 
REMARK  5 active torsions:
REMARK  status: ('A' for Active; 'I' for Inactive)
REMARK    1  A    between atoms: C_1  and  C_2
REMARK    2  A    between atoms: C_2  and  N_3
REMARK    3  A    between atoms: C_5  and  C_6
REMARK    4  A    between atoms: C_12  and  C_13
REMARK    5  A    between atoms: C_16  and  C_17
REMARK                            x       y       z     vdW  Elec       q    Type
REMARK                         _______ _______ _______ _____ _____    ______ ____
ROOT
ATOM      1  C   UNL     1       4.315   3.152  18.714  0.00  0.00    +0.000 C 
ATOM      2  O   UNL     1       4.325   1.925  18.695  0.00  0.00    +0.000 OA
ATOM      3  N   UNL     1       3.523   3.916  19.571  0.00  0.00    +0.000 N 
ATOM      4  C   UNL     1       2.860   3.263  20.693  0.00  0.00    +0.000 C 
ATOM      5  C   UNL     1       1.369   3.570  20.674  0.00  0.00    +0.000 C 
ATOM      6  C   UNL     1       1.121   5.080  20.680  0.00  0.00    +0.000 C 
ATOM      7  C   UNL     1       1.877   5.780  19.539  0.00  0.00    +0.000 C 
ATOM      8  C   UNL     1       3.358   5.374  19.515  0.00  0.00    +0.000 C 
ENDROOT
BRANCH   1  11
ATOM      9  N   UNL     1       5.721   4.529  15.582  0.00  0.00    +0.000 N 
ATOM     10  N   UNL     1       4.893   3.911  16.480  0.00  0.00    +0.000 NA
ATOM     11  C   UNL     1       5.234   3.861  17.730  0.00  0.00    +0.000 C 
ATOM     12  C   UNL     1       6.423   4.573  18.294  0.00  0.00    +0.000 C 
ATOM     13  C   UNL     1       7.519   4.672  17.260  0.00  0.00    +0.000 C 
ATOM     14  C   UNL     1       7.014   4.950  15.864  0.00  0.00    +0.000 C 
ATOM     15  O   UNL     1       7.764   5.447  15.022  0.00  0.00    +0.000 OA
BRANCH   9  17
ATOM     16  C   UNL     1       5.947   3.534  13.331  0.00  0.00    +0.000 C 
ATOM     17  C   UNL     1       5.225   4.547  14.207  0.00  0.00    +0.000 C 
ENDBRANCH   9  17
ENDBRANCH   1  11
BRANCH   7  18
ATOM     18  C   UNL     1       1.754   7.261  19.621  0.00  0.00    +0.000 A 
ATOM     19  N   UNL     1       1.467   7.901  20.762  0.00  0.00    +0.000 NA
ATOM     20  O   UNL     1       1.420   9.242  20.370  0.00  0.00    +0.000 OA
ATOM     21  C   UNL     1       1.678   9.262  19.030  0.00  0.00    +0.000 A 
ATOM     22  C   UNL     1       1.687  10.575  18.364  0.00  0.00    +0.000 C 
ATOM     23  N   UNL     1       1.888   8.070  18.522  0.00  0.00    +0.000 NA
ENDBRANCH   7  18
TORSDOF 3
ENDMDL
MODEL 6
REMARK VINA RESULT:      -7.0      1.745      2.479
REMARK  Name = 
REMARK  5 active torsions:
REMARK  status: ('A' for Active; 'I' for Inactive)
REMARK    1  A    between atoms: C_1  and  C_2
REMARK    2  A    between atoms: C_2  and  N_3
REMARK    3  A    between atoms: C_5  and  C_6
REMARK    4  A    between atoms: C_12  and  C_13
REMARK    5  A    between atoms: C_16  and  C_17
REMARK                            x       y       z     vdW  Elec       q    Type
REMARK                         _______ _______ _______ _____ _____    ______ ____
ROOT
ATOM      1  C   UNL     1       4.371   3.892  18.841  0.00  0.00    +0.000 C 
ATOM      2  O   UNL     1       4.357   2.704  19.146  0.00  0.00    +0.000 OA
ATOM      3  N   UNL     1       3.596   4.871  19.464  0.00  0.00    +0.000 N 
ATOM      4  C   UNL     1       2.923   4.549  20.716  0.00  0.00    +0.000 C 
ATOM      5  C   UNL     1       1.439   4.871  20.612  0.00  0.00    +0.000 C 
ATOM      6  C   UNL     1       1.220   6.333  20.219  0.00  0.00    +0.000 C 
ATOM      7  C   UNL     1       1.988   6.692  18.936  0.00  0.00    +0.000 C 
ATOM      8  C   UNL     1       3.460   6.265  19.024  0.00  0.00    +0.000 C 
ENDROOT
BRANCH   1  11
ATOM      9  N   UNL     1       6.840   5.761  16.817  0.00  0.00    +0.000 N 
ATOM     10  N   UNL     1       6.013   5.375  17.838  0.00  0.00    +0.000 NA
ATOM     11  C   UNL     1       5.302   4.298  17.708  0.00  0.00    +0.000 C 
ATOM     12  C   UNL     1       5.434   3.352  16.557  0.00  0.00    +0.000 C 
ATOM     13  C   UNL     1       5.837   4.095  15.305  0.00  0.00    +0.000 C 
ATOM     14  C   UNL     1       6.843   5.194  15.549  0.00  0.00    +0.000 C 
ATOM     15  O   UNL     1       7.552   5.600  14.627  0.00  0.00    +0.000 OA
BRANCH   9  17
ATOM     16  C   UNL     1       8.074   7.047  18.530  0.00  0.00    +0.000 C 
ATOM     17  C   UNL     1       7.610   6.974  17.083  0.00  0.00    +0.000 C 
ENDBRANCH   9  17
ENDBRANCH   1  11
BRANCH   7  18
ATOM     18  C   UNL     1       1.894   8.144  18.625  0.00  0.00    +0.000 A 
ATOM     19  N   UNL     1       2.392   8.678  17.502  0.00  0.00    +0.000 NA
ATOM     20  O   UNL     1       2.113  10.040  17.647  0.00  0.00    +0.000 OA
ATOM     21  C   UNL     1       1.482  10.179  18.849  0.00  0.00    +0.000 A 
ATOM     22  C   UNL     1       1.076  11.538  19.245  0.00  0.00    +0.000 C 
ATOM     23  N   UNL     1       1.325   9.044  19.490  0.00  0.00    +0.000 NA
ENDBRANCH   7  18
TORSDOF 3
ENDMDL
MODEL 7
REMARK VINA RESULT:      -6.9      2.495      4.963
REMARK  Name = 
REMARK  5 active torsions:
REMARK  status: ('A' for Active; 'I' for Inactive)
REMARK    1  A    between atoms: C_1  and  C_2
REMARK    2  A    between atoms: C_2  and  N_3
REMARK    3  A    between atoms: C_5  and  C_6
REMARK    4  A    between atoms: C_12  and  C_13
REMARK    5  A    between atoms: C_16  and  C_17
REMARK                            x       y       z     vdW  Elec       q    Type
REMARK                         _______ _______ _______ _____ _____    ______ ____
ROOT
ATOM      1  C   UNL     1       2.892   5.438  18.127  0.00  0.00    +0.000 C 
ATOM      2  O   UNL     1       2.098   6.372  18.085  0.00  0.00    +0.000 OA
ATOM      3  N   UNL     1       2.683   4.263  18.848  0.00  0.00    +0.000 N 
ATOM      4  C   UNL     1       1.353   3.984  19.377  0.00  0.00    +0.000 C 
ATOM      5  C   UNL     1       1.430   3.696  20.870  0.00  0.00    +0.000 C 
ATOM      6  C   UNL     1       2.399   2.546  21.157  0.00  0.00    +0.000 C 
ATOM      7  C   UNL     1       3.782   2.807  20.538  0.00  0.00    +0.000 C 
ATOM      8  C   UNL     1       3.670   3.197  19.057  0.00  0.00    +0.000 C 
ENDROOT
BRANCH   1  11
ATOM      9  N   UNL     1       5.711   4.760  15.829  0.00  0.00    +0.000 N 
ATOM     10  N   UNL     1       4.545   4.638  16.536  0.00  0.00    +0.000 NA
ATOM     11  C   UNL     1       4.179   5.595  17.331  0.00  0.00    +0.000 C 
ATOM     12  C   UNL     1       4.883   6.912  17.420  0.00  0.00    +0.000 C 
ATOM     13  C   UNL     1       6.357   6.744  17.138  0.00  0.00    +0.000 C 
ATOM     14  C   UNL     1       6.656   5.757  16.035  0.00  0.00    +0.000 C 
ATOM     15  O   UNL     1       7.727   5.810  15.430  0.00  0.00    +0.000 OA
BRANCH   9  17
ATOM     16  C   UNL     1       5.645   3.930  13.502  0.00  0.00    +0.000 C 
ATOM     17  C   UNL     1       6.010   3.633  14.948  0.00  0.00    +0.000 C 
ENDBRANCH   9  17
ENDBRANCH   1  11
BRANCH   7  18
ATOM     18  C   UNL     1       4.685   1.634  20.691  0.00  0.00    +0.000 A 
ATOM     19  N   UNL     1       4.996   0.821  19.673  0.00  0.00    +0.000 NA
ATOM     20  O   UNL     1       5.822  -0.135  20.271  0.00  0.00    +0.000 OA
ATOM     21  C   UNL     1       5.912   0.204  21.591  0.00  0.00    +0.000 A 
ATOM     22  C   UNL     1       6.738  -0.658  22.453  0.00  0.00    +0.000 C 
ATOM     23  N   UNL     1       5.230   1.281  21.900  0.00  0.00    +0.000 NA
ENDBRANCH   7  18
TORSDOF 3
ENDMDL
MODEL 8
REMARK VINA RESULT:      -6.9      1.294      2.313
REMARK  Name = 
REMARK  5 active torsions:
REMARK  status: ('A' for Active; 'I' for Inactive)
REMARK    1  A    between atoms: C_1  and  C_2
REMARK    2  A    between atoms: C_2  and  N_3
REMARK    3  A    between atoms: C_5  and  C_6
REMARK    4  A    between atoms: C_12  and  C_13
REMARK    5  A    between atoms: C_16  and  C_17
REMARK                            x       y       z     vdW  Elec       q    Type
REMARK                         _______ _______ _______ _____ _____    ______ ____
ROOT
ATOM      1  C   UNL     1       4.123   3.003  18.665  0.00  0.00    +0.000 C 
ATOM      2  O   UNL     1       4.089   1.777  18.630  0.00  0.00    +0.000 OA
ATOM      3  N   UNL     1       3.357   3.784  19.529  0.00  0.00    +0.000 N 
ATOM      4  C   UNL     1       2.667   3.141  20.641  0.00  0.00    +0.000 C 
ATOM      5  C   UNL     1       1.188   3.502  20.622  0.00  0.00    +0.000 C 
ATOM      6  C   UNL     1       0.995   5.020  20.647  0.00  0.00    +0.000 C 
ATOM      7  C   UNL     1       1.780   5.706  19.517  0.00  0.00    +0.000 C 
ATOM      8  C   UNL     1       3.245   5.247  19.492  0.00  0.00    +0.000 C 
ENDROOT
BRANCH   1  11
ATOM      9  N   UNL     1       6.801   5.154  17.293  0.00  0.00    +0.000 N 
ATOM     10  N   UNL     1       5.956   4.515  18.160  0.00  0.00    +0.000 NA
ATOM     11  C   UNL     1       5.070   3.690  17.693  0.00  0.00    +0.000 C 
ATOM     12  C   UNL     1       5.004   3.271  16.259  0.00  0.00    +0.000 C 
ATOM     13  C   UNL     1       5.484   4.386  15.359  0.00  0.00    +0.000 C 
ATOM     14  C   UNL     1       6.667   5.144  15.911  0.00  0.00    +0.000 C 
ATOM     15  O   UNL     1       7.403   5.779  15.154  0.00  0.00    +0.000 OA
BRANCH   9  17
ATOM     16  C   UNL     1       7.879   5.782  19.427  0.00  0.00    +0.000 C 
ATOM     17  C   UNL     1       7.772   6.041  17.932  0.00  0.00    +0.000 C 
ENDBRANCH   9  17
ENDBRANCH   1  11
BRANCH   7  18
ATOM     18  C   UNL     1       1.710   7.190  19.619  0.00  0.00    +0.000 A 
ATOM     19  N   UNL     1       1.457   7.826  20.770  0.00  0.00    +0.000 NA
ATOM     20  O   UNL     1       1.454   9.172  20.395  0.00  0.00    +0.000 OA
ATOM     21  C   UNL     1       1.700   9.200  19.053  0.00  0.00    +0.000 A 
ATOM     22  C   UNL     1       1.749  10.520  18.403  0.00  0.00    +0.000 C 
ATOM     23  N   UNL     1       1.862   8.008  18.528  0.00  0.00    +0.000 NA
ENDBRANCH   7  18
TORSDOF 3
ENDMDL
MODEL 9
REMARK VINA RESULT:      -6.8      1.760      6.879
REMARK  Name = 
REMARK  5 active torsions:
REMARK  status: ('A' for Active; 'I' for Inactive)
REMARK    1  A    between atoms: C_1  and  C_2
REMARK    2  A    between atoms: C_2  and  N_3
REMARK    3  A    between atoms: C_5  and  C_6
REMARK    4  A    between atoms: C_12  and  C_13
REMARK    5  A    between atoms: C_16  and  C_17
REMARK                            x       y       z     vdW  Elec       q    Type
REMARK                         _______ _______ _______ _____ _____    ______ ____
ROOT
ATOM      1  C   UNL     1       2.178   5.727  20.083  0.00  0.00    +0.000 C 
ATOM      2  O   UNL     1       1.780   5.414  21.200  0.00  0.00    +0.000 OA
ATOM      3  N   UNL     1       2.781   4.843  19.189  0.00  0.00    +0.000 N 
ATOM      4  C   UNL     1       2.713   3.411  19.455  0.00  0.00    +0.000 C 
ATOM      5  C   UNL     1       4.109   2.805  19.430  0.00  0.00    +0.000 C 
ATOM      6  C   UNL     1       4.809   3.094  18.101  0.00  0.00    +0.000 C 
ATOM      7  C   UNL     1       4.818   4.599  17.785  0.00  0.00    +0.000 C 
ATOM      8  C   UNL     1       3.415   5.209  17.916  0.00  0.00    +0.000 C 
ENDROOT
BRANCH   1  11
ATOM      9  N   UNL     1       1.236   9.304  20.138  0.00  0.00    +0.000 N 
ATOM     10  N   UNL     1       1.429   7.999  20.505  0.00  0.00    +0.000 NA
ATOM     11  C   UNL     1       1.989   7.179  19.671  0.00  0.00    +0.000 C 
ATOM     12  C   UNL     1       2.582   7.603  18.365  0.00  0.00    +0.000 C 
ATOM     13  C   UNL     1       1.833   8.789  17.804  0.00  0.00    +0.000 C 
ATOM     14  C   UNL     1       1.417   9.794  18.851  0.00  0.00    +0.000 C 
ATOM     15  O   UNL     1       1.176  10.959  18.530  0.00  0.00    +0.000 OA
BRANCH   9  17
ATOM     16  C   UNL     1      -0.079   9.310  22.230  0.00  0.00    +0.000 C 
ATOM     17  C   UNL     1       0.619  10.141  21.164  0.00  0.00    +0.000 C 
ENDBRANCH   9  17
ENDBRANCH   1  11
BRANCH   7  18
ATOM     18  C   UNL     1       5.371   4.875  16.430  0.00  0.00    +0.000 A 
ATOM     19  N   UNL     1       5.578   6.116  15.972  0.00  0.00    +0.000 NA
ATOM     20  O   UNL     1       6.061   5.900  14.678  0.00  0.00    +0.000 OA
ATOM     21  C   UNL     1       6.084   4.547  14.495  0.00  0.00    +0.000 A 
ATOM     22  C   UNL     1       6.560   4.051  13.194  0.00  0.00    +0.000 C 
ATOM     23  N   UNL     1       5.668   3.873  15.541  0.00  0.00    +0.000 NA
ENDBRANCH   7  18
TORSDOF 3
ENDMDL
