MODEL 1
REMARK VINA RESULT:      -7.8      0.000      0.000
REMARK  Name = 
REMARK  7 active torsions:
REMARK  status: ('A' for Active; 'I' for Inactive)
REMARK    1  A    between atoms: C_1  and  C_2
REMARK    2  A    between atoms: C_5  and  C_6
REMARK    3  A    between atoms: N_15  and  C_16
REMARK    4  A    between atoms: C_18  and  C_19
REMARK    5  A    between atoms: C_19  and  N_20
REMARK    6  A    between atoms: C_22  and  C_23
REMARK    7  A    between atoms: C_25  and  C_26
REMARK                            x       y       z     vdW  Elec       q    Type
REMARK                         _______ _______ _______ _____ _____    ______ ____
ROOT
ATOM      1  C   UNL     1       2.115   9.576  17.585  0.00  0.00    +0.000 C 
ATOM      2  C   UNL     1       1.518   9.358  18.940  0.00  0.00    +0.000 A 
ATOM      3  C   UNL     1       0.908  10.347  19.619  0.00  0.00    +0.000 A 
ATOM      4  N   UNL     1       0.422  10.078  20.885  0.00  0.00    +0.000 N 
ATOM      5  C   UNL     1      -0.169  10.866  21.841  0.00  0.00    +0.000 A 
ATOM      6  C   UNL     1      -0.258  10.056  22.959  0.00  0.00    +0.000 A 
ATOM      7  N   UNL     1       0.175   8.775  22.690  0.00  0.00    +0.000 NA
ATOM      8  C   UNL     1       0.588   8.837  21.440  0.00  0.00    +0.000 A 
ATOM      9  C   UNL     1       1.220   7.786  20.656  0.00  0.00    +0.000 A 
ATOM     10  N   UNL     1       1.337   6.496  21.157  0.00  0.00    +0.000 N 
ATOM     11  N   UNL     1       1.656   8.084  19.450  0.00  0.00    +0.000 NA
ATOM     12  H   UNL     1       0.758   6.323  21.971  0.00  0.00    +0.000 HD
ENDROOT
BRANCH   5  13
ATOM     13  C   UNL     1      -0.577  12.280  21.708  0.00  0.00    +0.000 A 
ATOM     14  C   UNL     1       0.219  13.442  21.730  0.00  0.00    +0.000 A 
ATOM     15  N   UNL     1      -0.508  14.558  21.633  0.00  0.00    +0.000 NA
ATOM     16  N   UNL     1      -1.770  14.104  21.540  0.00  0.00    +0.000 N 
ATOM     17  C   UNL     1      -1.860  12.739  21.545  0.00  0.00    +0.000 A 
ATOM     18  H   UNL     1      -2.520  14.784  21.488  0.00  0.00    +0.000 HD
ENDBRANCH   5  13
BRANCH  10  19
ATOM     19  C   UNL     1       1.971   5.455  20.561  0.00  0.00    +0.000 A 
ATOM     20  C   UNL     1       3.300   5.334  20.207  0.00  0.00    +0.000 A 
ATOM     21  C   UNL     1       3.561   4.108  19.524  0.00  0.00    +0.000 A 
ATOM     22  N   UNL     1       2.511   3.293  19.387  0.00  0.00    +0.000 NA
ATOM     23  S   UNL     1       1.191   3.999  20.103  0.00  0.00    +0.000 S 
BRANCH  21  24
ATOM     24  C   UNL     1       4.899   3.703  18.963  0.00  0.00    +0.000 C 
BRANCH  24  25
ATOM     25  N   UNL     1       5.456   4.757  18.085  0.00  0.00    +0.000 NA
ATOM     26  C   UNL     1       6.934   4.762  18.130  0.00  0.00    +0.000 C 
ATOM     27  C   UNL     1       7.532   5.841  17.204  0.00  0.00    +0.000 C 
ATOM     28  C   UNL     1       7.395   7.252  17.772  0.00  0.00    +0.000 C 
ATOM     29  O   UNL     1       7.050   5.749  15.855  0.00  0.00    +0.000 OA
ATOM     30  C   UNL     1       5.639   5.538  15.699  0.00  0.00    +0.000 C 
ATOM     31  C   UNL     1       4.860   6.849  15.689  0.00  0.00    +0.000 C 
ATOM     32  C   UNL     1       5.065   4.497  16.686  0.00  0.00    +0.000 C 
ENDBRANCH  24  25
ENDBRANCH  21  24
ENDBRANCH  10  19
TORSDOF 4
ENDMDL
MODEL 2
REMARK VINA RESULT:      -7.6      2.766      4.351
REMARK  Name = 
REMARK  7 active torsions:
REMARK  status: ('A' for Active; 'I' for Inactive)
REMARK    1  A    between atoms: C_1  and  C_2
REMARK    2  A    between atoms: C_5  and  C_6
REMARK    3  A    between atoms: N_15  and  C_16
REMARK    4  A    between atoms: C_18  and  C_19
REMARK    5  A    between atoms: C_19  and  N_20
REMARK    6  A    between atoms: C_22  and  C_23
REMARK    7  A    between atoms: C_25  and  C_26
REMARK                            x       y       z     vdW  Elec       q    Type
REMARK                         _______ _______ _______ _____ _____    ______ ____
ROOT
ATOM      1  C   UNL     1      -2.172  11.420  17.278  0.00  0.00    +0.000 C 
ATOM      2  C   UNL     1      -1.735  11.291  18.704  0.00  0.00    +0.000 A 
ATOM      3  C   UNL     1      -2.339  11.965  19.700  0.00  0.00    +0.000 A 
ATOM      4  N   UNL     1      -1.848  11.827  20.984  0.00  0.00    +0.000 N 
ATOM      5  C   UNL     1      -2.183  12.419  22.177  0.00  0.00    +0.000 A 
ATOM      6  C   UNL     1      -1.206  12.003  23.063  0.00  0.00    +0.000 A 
ATOM      7  N   UNL     1      -0.339  11.106  22.475  0.00  0.00    +0.000 NA
ATOM      8  C   UNL     1      -0.751  11.041  21.225  0.00  0.00    +0.000 A 
ATOM      9  C   UNL     1      -0.152  10.300  20.126  0.00  0.00    +0.000 A 
ATOM     10  N   UNL     1       0.911   9.436  20.345  0.00  0.00    +0.000 N 
ATOM     11  N   UNL     1      -0.661  10.452  18.920  0.00  0.00    +0.000 NA
ATOM     12  H   UNL     1       1.056   9.210  21.322  0.00  0.00    +0.000 HD
ENDROOT
BRANCH   5  13
ATOM     13  C   UNL     1      -3.315  13.332  22.435  0.00  0.00    +0.000 A 
ATOM     14  C   UNL     1      -4.617  13.031  22.883  0.00  0.00    +0.000 A 
ATOM     15  N   UNL     1      -5.394  14.116  22.950  0.00  0.00    +0.000 NA
ATOM     16  N   UNL     1      -4.581  15.110  22.553  0.00  0.00    +0.000 N 
ATOM     17  C   UNL     1      -3.310  14.695  22.266  0.00  0.00    +0.000 A 
ATOM     18  H   UNL     1      -4.965  16.047  22.492  0.00  0.00    +0.000 HD
ENDBRANCH   5  13
BRANCH  10  19
ATOM     19  C   UNL     1       1.603   8.752  19.399  0.00  0.00    +0.000 A 
ATOM     20  C   UNL     1       2.184   7.502  19.480  0.00  0.00    +0.000 A 
ATOM     21  C   UNL     1       2.894   7.165  18.288  0.00  0.00    +0.000 A 
ATOM     22  N   UNL     1       2.839   8.074  17.311  0.00  0.00    +0.000 NA
ATOM     23  S   UNL     1       1.906   9.349  17.821  0.00  0.00    +0.000 S 
BRANCH  21  24
ATOM     24  C   UNL     1       3.680   5.896  18.084  0.00  0.00    +0.000 C 
BRANCH  24  25
ATOM     25  N   UNL     1       3.001   4.737  18.706  0.00  0.00    +0.000 NA
ATOM     26  C   UNL     1       2.603   3.742  17.686  0.00  0.00    +0.000 C 
ATOM     27  C   UNL     1       1.913   2.517  18.319  0.00  0.00    +0.000 C 
ATOM     28  C   UNL     1       0.480   2.807  18.761  0.00  0.00    +0.000 C 
ATOM     29  O   UNL     1       2.692   1.913  19.363  0.00  0.00    +0.000 OA
ATOM     30  C   UNL     1       3.299   2.813  20.302  0.00  0.00    +0.000 C 
ATOM     31  C   UNL     1       2.362   3.155  21.456  0.00  0.00    +0.000 C 
ATOM     32  C   UNL     1       3.924   4.059  19.637  0.00  0.00    +0.000 C 
ENDBRANCH  24  25
ENDBRANCH  21  24
ENDBRANCH  10  19
TORSDOF 4
ENDMDL
MODEL 3
REMARK VINA RESULT:      -7.5      2.594      3.567
REMARK  Name = 
REMARK  7 active torsions:
REMARK  status: ('A' for Active; 'I' for Inactive)
REMARK    1  A    between atoms: C_1  and  C_2
REMARK    2  A    between atoms: C_5  and  C_6
REMARK    3  A    between atoms: N_15  and  C_16
REMARK    4  A    between atoms: C_18  and  C_19
REMARK    5  A    between atoms: C_19  and  N_20
REMARK    6  A    between atoms: C_22  and  C_23
REMARK    7  A    between atoms: C_25  and  C_26
REMARK                            x       y       z     vdW  Elec       q    Type
REMARK                         _______ _______ _______ _____ _____    ______ ____
ROOT
ATOM      1  C   UNL     1      -2.749  10.229  16.666  0.00  0.00    +0.000 C 
ATOM      2  C   UNL     1      -2.303  10.706  18.013  0.00  0.00    +0.000 A 
ATOM      3  C   UNL     1      -2.996  11.622  18.713  0.00  0.00    +0.000 A 
ATOM      4  N   UNL     1      -2.494  12.044  19.930  0.00  0.00    +0.000 N 
ATOM      5  C   UNL     1      -2.911  12.994  20.829  0.00  0.00    +0.000 A 
ATOM      6  C   UNL     1      -1.888  13.073  21.757  0.00  0.00    +0.000 A 
ATOM      7  N   UNL     1      -0.904  12.140  21.505  0.00  0.00    +0.000 NA
ATOM      8  C   UNL     1      -1.301  11.555  20.392  0.00  0.00    +0.000 A 
ATOM      9  C   UNL     1      -0.603  10.537  19.622  0.00  0.00    +0.000 A 
ATOM     10  N   UNL     1       0.570   9.964  20.096  0.00  0.00    +0.000 N 
ATOM     11  N   UNL     1      -1.124  10.156  18.475  0.00  0.00    +0.000 NA
ATOM     12  H   UNL     1       0.741  10.145  21.079  0.00  0.00    +0.000 HD
ENDROOT
BRANCH   5  13
ATOM     13  C   UNL     1      -4.159  13.783  20.782  0.00  0.00    +0.000 A 
ATOM     14  C   UNL     1      -4.326  15.182  20.741  0.00  0.00    +0.000 A 
ATOM     15  N   UNL     1      -5.613  15.540  20.761  0.00  0.00    +0.000 NA
ATOM     16  N   UNL     1      -6.266  14.366  20.804  0.00  0.00    +0.000 N 
ATOM     17  C   UNL     1      -5.435  13.279  20.783  0.00  0.00    +0.000 A 
ATOM     18  H   UNL     1      -7.278  14.382  20.857  0.00  0.00    +0.000 HD
ENDBRANCH   5  13
BRANCH  10  19
ATOM     19  C   UNL     1       1.351   9.069  19.442  0.00  0.00    +0.000 A 
ATOM     20  C   UNL     1       1.781   7.824  19.856  0.00  0.00    +0.000 A 
ATOM     21  C   UNL     1       2.660   7.219  18.908  0.00  0.00    +0.000 A 
ATOM     22  N   UNL     1       2.874   7.924  17.793  0.00  0.00    +0.000 NA
ATOM     23  S   UNL     1       1.995   9.330  17.875  0.00  0.00    +0.000 S 
BRANCH  21  24
ATOM     24  C   UNL     1       3.340   5.887  19.091  0.00  0.00    +0.000 C 
BRANCH  24  25
ATOM     25  N   UNL     1       4.524   5.761  18.213  0.00  0.00    +0.000 NA
ATOM     26  C   UNL     1       5.742   5.466  18.998  0.00  0.00    +0.000 C 
ATOM     27  C   UNL     1       6.982   5.310  18.096  0.00  0.00    +0.000 C 
ATOM     28  C   UNL     1       7.505   6.645  17.571  0.00  0.00    +0.000 C 
ATOM     29  O   UNL     1       6.793   4.350  17.046  0.00  0.00    +0.000 OA
ATOM     30  C   UNL     1       5.542   4.418  16.343  0.00  0.00    +0.000 C 
ATOM     31  C   UNL     1       5.592   5.402  15.179  0.00  0.00    +0.000 C 
ATOM     32  C   UNL     1       4.330   4.638  17.274  0.00  0.00    +0.000 C 
ENDBRANCH  24  25
ENDBRANCH  21  24
ENDBRANCH  10  19
TORSDOF 4
ENDMDL
MODEL 4
REMARK VINA RESULT:      -7.4      1.939      2.468
REMARK  Name = 
REMARK  7 active torsions:
REMARK  status: ('A' for Active; 'I' for Inactive)
REMARK    1  A    between atoms: C_1  and  C_2
REMARK    2  A    between atoms: C_5  and  C_6
REMARK    3  A    between atoms: N_15  and  C_16
REMARK    4  A    between atoms: C_18  and  C_19
REMARK    5  A    between atoms: C_19  and  N_20
REMARK    6  A    between atoms: C_22  and  C_23
REMARK    7  A    between atoms: C_25  and  C_26
REMARK                            x       y       z     vdW  Elec       q    Type
REMARK                         _______ _______ _______ _____ _____    ______ ____
ROOT
ATOM      1  C   UNL     1       1.754  12.979  18.507  0.00  0.00    +0.000 C 
ATOM      2  C   UNL     1       1.012  12.256  19.588  0.00  0.00    +0.000 A 
ATOM      3  C   UNL     1       0.233  12.903  20.474  0.00  0.00    +0.000 A 
ATOM      4  N   UNL     1      -0.383  12.171  21.472  0.00  0.00    +0.000 N 
ATOM      5  C   UNL     1      -1.161  12.530  22.545  0.00  0.00    +0.000 A 
ATOM      6  C   UNL     1      -1.316  11.364  23.272  0.00  0.00    +0.000 A 
ATOM      7  N   UNL     1      -0.738  10.288  22.633  0.00  0.00    +0.000 NA
ATOM      8  C   UNL     1      -0.176  10.819  21.565  0.00  0.00    +0.000 A 
ATOM      9  C   UNL     1       0.643  10.154  20.563  0.00  0.00    +0.000 A 
ATOM     10  N   UNL     1       0.812   8.776  20.582  0.00  0.00    +0.000 N 
ATOM     11  N   UNL     1       1.200  10.890  19.624  0.00  0.00    +0.000 NA
ATOM     12  H   UNL     1       0.153   8.295  21.182  0.00  0.00    +0.000 HD
ENDROOT
BRANCH   5  13
ATOM     13  C   UNL     1      -1.675  13.877  22.865  0.00  0.00    +0.000 A 
ATOM     14  C   UNL     1      -1.368  14.711  23.959  0.00  0.00    +0.000 A 
ATOM     15  N   UNL     1      -2.073  15.845  23.946  0.00  0.00    +0.000 NA
ATOM     16  N   UNL     1      -2.823  15.737  22.836  0.00  0.00    +0.000 N 
ATOM     17  C   UNL     1      -2.595  14.587  22.133  0.00  0.00    +0.000 A 
ATOM     18  H   UNL     1      -3.478  16.482  22.627  0.00  0.00    +0.000 HD
ENDBRANCH   5  13
BRANCH  10  19
ATOM     19  C   UNL     1       1.608   8.051  19.757  0.00  0.00    +0.000 A 
ATOM     20  C   UNL     1       2.188   6.817  19.972  0.00  0.00    +0.000 A 
ATOM     21  C   UNL     1       3.027   6.424  18.886  0.00  0.00    +0.000 A 
ATOM     22  N   UNL     1       3.071   7.276  17.858  0.00  0.00    +0.000 NA
ATOM     23  S   UNL     1       2.078   8.564  18.190  0.00  0.00    +0.000 S 
BRANCH  21  24
ATOM     24  C   UNL     1       3.840   5.157  18.841  0.00  0.00    +0.000 C 
BRANCH  24  25
ATOM     25  N   UNL     1       5.079   5.339  18.052  0.00  0.00    +0.000 NA
ATOM     26  C   UNL     1       6.259   5.465  18.933  0.00  0.00    +0.000 C 
ATOM     27  C   UNL     1       7.562   5.634  18.125  0.00  0.00    +0.000 C 
ATOM     28  C   UNL     1       7.713   7.032  17.530  0.00  0.00    +0.000 C 
ATOM     29  O   UNL     1       7.750   4.603  17.144  0.00  0.00    +0.000 OA
ATOM     30  C   UNL     1       6.598   4.255  16.362  0.00  0.00    +0.000 C 
ATOM     31  C   UNL     1       6.454   5.142  15.128  0.00  0.00    +0.000 C 
ATOM     32  C   UNL     1       5.301   4.157  17.194  0.00  0.00    +0.000 C 
ENDBRANCH  24  25
ENDBRANCH  21  24
ENDBRANCH  10  19
TORSDOF 4
ENDMDL
MODEL 5
REMARK VINA RESULT:      -7.3      0.694      1.294
REMARK  Name = 
REMARK  7 active torsions:
REMARK  status: ('A' for Active; 'I' for Inactive)
REMARK    1  A    between atoms: C_1  and  C_2
REMARK    2  A    between atoms: C_5  and  C_6
REMARK    3  A    between atoms: N_15  and  C_16
REMARK    4  A    between atoms: C_18  and  C_19
REMARK    5  A    between atoms: C_19  and  N_20
REMARK    6  A    between atoms: C_22  and  C_23
REMARK    7  A    between atoms: C_25  and  C_26
REMARK                            x       y       z     vdW  Elec       q    Type
REMARK                         _______ _______ _______ _____ _____    ______ ____
ROOT
ATOM      1  C   UNL     1       2.088   9.713  17.628  0.00  0.00    +0.000 C 
ATOM      2  C   UNL     1       1.507   9.413  18.975  0.00  0.00    +0.000 A 
ATOM      3  C   UNL     1       0.883  10.353  19.709  0.00  0.00    +0.000 A 
ATOM      4  N   UNL     1       0.414  10.009  20.963  0.00  0.00    +0.000 N 
ATOM      5  C   UNL     1      -0.185  10.733  21.963  0.00  0.00    +0.000 A 
ATOM      6  C   UNL     1      -0.248   9.864  23.037  0.00  0.00    +0.000 A 
ATOM      7  N   UNL     1       0.207   8.607  22.699  0.00  0.00    +0.000 NA
ATOM      8  C   UNL     1       0.608   8.743  21.450  0.00  0.00    +0.000 A 
ATOM      9  C   UNL     1       1.253   7.748  20.608  0.00  0.00    +0.000 A 
ATOM     10  N   UNL     1       1.399   6.436  21.039  0.00  0.00    +0.000 N 
ATOM     11  N   UNL     1       1.674   8.116  19.416  0.00  0.00    +0.000 NA
ATOM     12  H   UNL     1       0.831   6.209  21.847  0.00  0.00    +0.000 HD
ENDROOT
BRANCH   5  13
ATOM     13  C   UNL     1      -0.621  12.144  21.908  0.00  0.00    +0.000 A 
ATOM     14  C   UNL     1       0.158  13.312  21.783  0.00  0.00    +0.000 A 
ATOM     15  N   UNL     1      -0.583  14.422  21.822  0.00  0.00    +0.000 NA
ATOM     16  N   UNL     1      -1.837  13.959  21.963  0.00  0.00    +0.000 N 
ATOM     17  C   UNL     1      -1.915  12.594  21.984  0.00  0.00    +0.000 A 
ATOM     18  H   UNL     1      -2.590  14.633  22.050  0.00  0.00    +0.000 HD
ENDBRANCH   5  13
BRANCH  10  19
ATOM     19  C   UNL     1       2.047   5.440  20.384  0.00  0.00    +0.000 A 
ATOM     20  C   UNL     1       3.405   5.240  20.232  0.00  0.00    +0.000 A 
ATOM     21  C   UNL     1       3.689   4.114  19.402  0.00  0.00    +0.000 A 
ATOM     22  N   UNL     1       2.622   3.441  18.963  0.00  0.00    +0.000 NA
ATOM     23  S   UNL     1       1.253   4.159  19.568  0.00  0.00    +0.000 S 
BRANCH  21  24
ATOM     24  C   UNL     1       5.071   3.666  19.001  0.00  0.00    +0.000 C 
BRANCH  24  25
ATOM     25  N   UNL     1       5.626   4.525  17.932  0.00  0.00    +0.000 NA
ATOM     26  C   UNL     1       4.968   4.255  16.635  0.00  0.00    +0.000 C 
ATOM     27  C   UNL     1       5.520   5.157  15.513  0.00  0.00    +0.000 C 
ATOM     28  C   UNL     1       6.903   4.724  15.031  0.00  0.00    +0.000 C 
ATOM     29  O   UNL     1       5.472   6.554  15.843  0.00  0.00    +0.000 OA
ATOM     30  C   UNL     1       5.903   6.907  17.166  0.00  0.00    +0.000 C 
ATOM     31  C   UNL     1       7.410   7.134  17.236  0.00  0.00    +0.000 C 
ATOM     32  C   UNL     1       5.382   5.944  18.256  0.00  0.00    +0.000 C 
ENDBRANCH  24  25
ENDBRANCH  21  24
ENDBRANCH  10  19
TORSDOF 4
ENDMDL
MODEL 6
REMARK VINA RESULT:      -7.2      1.775      2.924
REMARK  Name = 
REMARK  7 active torsions:
REMARK  status: ('A' for Active; 'I' for Inactive)
REMARK    1  A    between atoms: C_1  and  C_2
REMARK    2  A    between atoms: C_5  and  C_6
REMARK    3  A    between atoms: N_15  and  C_16
REMARK    4  A    between atoms: C_18  and  C_19
REMARK    5  A    between atoms: C_19  and  N_20
REMARK    6  A    between atoms: C_22  and  C_23
REMARK    7  A    between atoms: C_25  and  C_26
REMARK                            x       y       z     vdW  Elec       q    Type
REMARK                         _______ _______ _______ _____ _____    ______ ____
ROOT
ATOM      1  C   UNL     1      -0.095   9.462  23.368  0.00  0.00    +0.000 C 
ATOM      2  C   UNL     1       0.062  10.169  22.057  0.00  0.00    +0.000 A 
ATOM      3  C   UNL     1      -0.416  11.409  21.853  0.00  0.00    +0.000 A 
ATOM      4  N   UNL     1      -0.271  11.977  20.601  0.00  0.00    +0.000 N 
ATOM      5  C   UNL     1      -0.702  13.163  20.061  0.00  0.00    +0.000 A 
ATOM      6  C   UNL     1      -0.400  13.068  18.715  0.00  0.00    +0.000 A 
ATOM      7  N   UNL     1       0.283  11.904  18.431  0.00  0.00    +0.000 NA
ATOM      8  C   UNL     1       0.324  11.272  19.588  0.00  0.00    +0.000 A 
ATOM      9  C   UNL     1       0.862   9.949  19.862  0.00  0.00    +0.000 A 
ATOM     10  N   UNL     1       1.538   9.237  18.881  0.00  0.00    +0.000 N 
ATOM     11  N   UNL     1       0.712   9.453  21.073  0.00  0.00    +0.000 NA
ATOM     12  H   UNL     1       1.808   9.801  18.083  0.00  0.00    +0.000 HD
ENDROOT
BRANCH   5  13
ATOM     13  C   UNL     1      -1.377  14.272  20.765  0.00  0.00    +0.000 A 
ATOM     14  C   UNL     1      -2.749  14.450  21.037  0.00  0.00    +0.000 A 
ATOM     15  N   UNL     1      -2.998  15.610  21.651  0.00  0.00    +0.000 NA
ATOM     16  N   UNL     1      -1.782  16.166  21.779  0.00  0.00    +0.000 N 
ATOM     17  C   UNL     1      -0.770  15.385  21.293  0.00  0.00    +0.000 A 
ATOM     18  H   UNL     1      -1.718  17.087  22.199  0.00  0.00    +0.000 HD
ENDBRANCH   5  13
BRANCH  10  19
ATOM     19  C   UNL     1       2.015   7.971  18.987  0.00  0.00    +0.000 A 
ATOM     20  C   UNL     1       2.590   7.174  18.017  0.00  0.00    +0.000 A 
ATOM     21  C   UNL     1       2.890   5.867  18.508  0.00  0.00    +0.000 A 
ATOM     22  N   UNL     1       2.610   5.661  19.798  0.00  0.00    +0.000 NA
ATOM     23  S   UNL     1       1.991   7.061  20.440  0.00  0.00    +0.000 S 
BRANCH  21  24
ATOM     24  C   UNL     1       3.473   4.750  17.682  0.00  0.00    +0.000 C 
BRANCH  24  25
ATOM     25  N   UNL     1       4.837   5.081  17.215  0.00  0.00    +0.000 NA
ATOM     26  C   UNL     1       5.753   5.300  18.355  0.00  0.00    +0.000 C 
ATOM     27  C   UNL     1       7.186   5.625  17.885  0.00  0.00    +0.000 C 
ATOM     28  C   UNL     1       7.326   7.048  17.352  0.00  0.00    +0.000 C 
ATOM     29  O   UNL     1       7.710   4.648  16.973  0.00  0.00    +0.000 OA
ATOM     30  C   UNL     1       6.822   4.211  15.934  0.00  0.00    +0.000 C 
ATOM     31  C   UNL     1       6.883   5.116  14.707  0.00  0.00    +0.000 C 
ATOM     32  C   UNL     1       5.381   3.956  16.429  0.00  0.00    +0.000 C 
ENDBRANCH  24  25
ENDBRANCH  21  24
ENDBRANCH  10  19
TORSDOF 4
ENDMDL
MODEL 7
REMARK VINA RESULT:      -7.1      0.747      1.048
REMARK  Name = 
REMARK  7 active torsions:
REMARK  status: ('A' for Active; 'I' for Inactive)
REMARK    1  A    between atoms: C_1  and  C_2
REMARK    2  A    between atoms: C_5  and  C_6
REMARK    3  A    between atoms: N_15  and  C_16
REMARK    4  A    between atoms: C_18  and  C_19
REMARK    5  A    between atoms: C_19  and  N_20
REMARK    6  A    between atoms: C_22  and  C_23
REMARK    7  A    between atoms: C_25  and  C_26
REMARK                            x       y       z     vdW  Elec       q    Type
REMARK                         _______ _______ _______ _____ _____    ______ ____
ROOT
ATOM      1  C   UNL     1       2.073   9.668  17.641  0.00  0.00    +0.000 C 
ATOM      2  C   UNL     1       1.433   9.403  18.969  0.00  0.00    +0.000 A 
ATOM      3  C   UNL     1       0.749  10.352  19.634  0.00  0.00    +0.000 A 
ATOM      4  N   UNL     1       0.226  10.042  20.875  0.00  0.00    +0.000 N 
ATOM      5  C   UNL     1      -0.441  10.787  21.815  0.00  0.00    +0.000 A 
ATOM      6  C   UNL     1      -0.536   9.959  22.919  0.00  0.00    +0.000 A 
ATOM      7  N   UNL     1      -0.031   8.703  22.652  0.00  0.00    +0.000 NA
ATOM      8  C   UNL     1       0.429   8.802  21.421  0.00  0.00    +0.000 A 
ATOM      9  C   UNL     1       1.142   7.794  20.652  0.00  0.00    +0.000 A 
ATOM     10  N   UNL     1       1.300   6.505  21.141  0.00  0.00    +0.000 N 
ATOM     11  N   UNL     1       1.612   8.129  19.468  0.00  0.00    +0.000 NA
ATOM     12  H   UNL     1       0.698   6.292  21.928  0.00  0.00    +0.000 HD
ENDROOT
BRANCH   5  13
ATOM     13  C   UNL     1      -0.911  12.182  21.683  0.00  0.00    +0.000 A 
ATOM     14  C   UNL     1      -0.562  13.315  22.445  0.00  0.00    +0.000 A 
ATOM     15  N   UNL     1      -1.234  14.406  22.067  0.00  0.00    +0.000 NA
ATOM     16  N   UNL     1      -2.004  13.969  21.057  0.00  0.00    +0.000 N 
ATOM     17  C   UNL     1      -1.820  12.645  20.765  0.00  0.00    +0.000 A 
ATOM     18  H   UNL     1      -2.640  14.626  20.620  0.00  0.00    +0.000 HD
ENDBRANCH   5  13
BRANCH  10  19
ATOM     19  C   UNL     1       2.007   5.503  20.559  0.00  0.00    +0.000 A 
ATOM     20  C   UNL     1       3.353   5.452  20.255  0.00  0.00    +0.000 A 
ATOM     21  C   UNL     1       3.700   4.249  19.569  0.00  0.00    +0.000 A 
ATOM     22  N   UNL     1       2.698   3.384  19.385  0.00  0.00    +0.000 NA
ATOM     23  S   UNL     1       1.319   4.016  20.057  0.00  0.00    +0.000 S 
BRANCH  21  24
ATOM     24  C   UNL     1       5.077   3.918  19.055  0.00  0.00    +0.000 C 
BRANCH  24  25
ATOM     25  N   UNL     1       5.357   4.613  17.780  0.00  0.00    +0.000 NA
ATOM     26  C   UNL     1       5.792   6.007  18.016  0.00  0.00    +0.000 C 
ATOM     27  C   UNL     1       6.109   6.740  16.696  0.00  0.00    +0.000 C 
ATOM     28  C   UNL     1       4.854   7.141  15.925  0.00  0.00    +0.000 C 
ATOM     29  O   UNL     1       7.050   6.031  15.875  0.00  0.00    +0.000 OA
ATOM     30  C   UNL     1       6.834   4.618  15.741  0.00  0.00    +0.000 C 
ATOM     31  C   UNL     1       5.875   4.289  14.601  0.00  0.00    +0.000 C 
ATOM     32  C   UNL     1       6.457   3.929  17.071  0.00  0.00    +0.000 C 
ENDBRANCH  24  25
ENDBRANCH  21  24
ENDBRANCH  10  19
TORSDOF 4
ENDMDL
MODEL 8
REMARK VINA RESULT:      -7.1      1.965      2.752
REMARK  Name = 
REMARK  7 active torsions:
REMARK  status: ('A' for Active; 'I' for Inactive)
REMARK    1  A    between atoms: C_1  and  C_2
REMARK    2  A    between atoms: C_5  and  C_6
REMARK    3  A    between atoms: N_15  and  C_16
REMARK    4  A    between atoms: C_18  and  C_19
REMARK    5  A    between atoms: C_19  and  N_20
REMARK    6  A    between atoms: C_22  and  C_23
REMARK    7  A    between atoms: C_25  and  C_26
REMARK                            x       y       z     vdW  Elec       q    Type
REMARK                         _______ _______ _______ _____ _____    ______ ____
ROOT
ATOM      1  C   UNL     1      -1.840  10.014  17.086  0.00  0.00    +0.000 C 
ATOM      2  C   UNL     1      -1.344  10.442  18.433  0.00  0.00    +0.000 A 
ATOM      3  C   UNL     1      -1.788  11.560  19.035  0.00  0.00    +0.000 A 
ATOM      4  N   UNL     1      -1.248  11.911  20.258  0.00  0.00    +0.000 N 
ATOM      5  C   UNL     1      -1.426  12.999  21.076  0.00  0.00    +0.000 A 
ATOM      6  C   UNL     1      -0.469  12.858  22.063  0.00  0.00    +0.000 A 
ATOM      7  N   UNL     1       0.227  11.675  21.928  0.00  0.00    +0.000 NA
ATOM      8  C   UNL     1      -0.262  11.146  20.824  0.00  0.00    +0.000 A 
ATOM      9  C   UNL     1       0.161   9.924  20.157  0.00  0.00    +0.000 A 
ATOM     10  N   UNL     1       1.102   9.085  20.737  0.00  0.00    +0.000 N 
ATOM     11  N   UNL     1      -0.390   9.622  18.999  0.00  0.00    +0.000 NA
ATOM     12  H   UNL     1       1.269   9.280  21.718  0.00  0.00    +0.000 HD
ENDROOT
BRANCH   5  13
ATOM     13  C   UNL     1      -2.401  14.096  20.904  0.00  0.00    +0.000 A 
ATOM     14  C   UNL     1      -3.795  14.089  21.111  0.00  0.00    +0.000 A 
ATOM     15  N   UNL     1      -4.360  15.259  20.801  0.00  0.00    +0.000 NA
ATOM     16  N   UNL     1      -3.322  16.014  20.405  0.00  0.00    +0.000 N 
ATOM     17  C   UNL     1      -2.118  15.371  20.482  0.00  0.00    +0.000 A 
ATOM     18  H   UNL     1      -3.512  16.957  20.083  0.00  0.00    +0.000 HD
ENDBRANCH   5  13
BRANCH  10  19
ATOM     19  C   UNL     1       1.634   7.966  20.184  0.00  0.00    +0.000 A 
ATOM     20  C   UNL     1       2.408   7.841  19.048  0.00  0.00    +0.000 A 
ATOM     21  C   UNL     1       2.705   6.477  18.751  0.00  0.00    +0.000 A 
ATOM     22  N   UNL     1       2.233   5.583  19.625  0.00  0.00    +0.000 NA
ATOM     23  S   UNL     1       1.431   6.392  20.833  0.00  0.00    +0.000 S 
BRANCH  21  24
ATOM     24  C   UNL     1       3.484   6.007  17.550  0.00  0.00    +0.000 C 
BRANCH  24  25
ATOM     25  N   UNL     1       4.942   6.119  17.776  0.00  0.00    +0.000 NA
ATOM     26  C   UNL     1       5.538   4.799  18.074  0.00  0.00    +0.000 C 
ATOM     27  C   UNL     1       7.062   4.894  18.291  0.00  0.00    +0.000 C 
ATOM     28  C   UNL     1       7.432   5.495  19.645  0.00  0.00    +0.000 C 
ATOM     29  O   UNL     1       7.743   5.541  17.205  0.00  0.00    +0.000 OA
ATOM     30  C   UNL     1       7.132   6.737  16.698  0.00  0.00    +0.000 C 
ATOM     31  C   UNL     1       7.574   7.978  17.468  0.00  0.00    +0.000 C 
ATOM     32  C   UNL     1       5.598   6.626  16.554  0.00  0.00    +0.000 C 
ENDBRANCH  24  25
ENDBRANCH  21  24
ENDBRANCH  10  19
TORSDOF 4
ENDMDL
MODEL 9
REMARK VINA RESULT:      -7.1      2.599      4.074
REMARK  Name = 
REMARK  7 active torsions:
REMARK  status: ('A' for Active; 'I' for Inactive)
REMARK    1  A    between atoms: C_1  and  C_2
REMARK    2  A    between atoms: C_5  and  C_6
REMARK    3  A    between atoms: N_15  and  C_16
REMARK    4  A    between atoms: C_18  and  C_19
REMARK    5  A    between atoms: C_19  and  N_20
REMARK    6  A    between atoms: C_22  and  C_23
REMARK    7  A    between atoms: C_25  and  C_26
REMARK                            x       y       z     vdW  Elec       q    Type
REMARK                         _______ _______ _______ _____ _____    ______ ____
ROOT
ATOM      1  C   UNL     1       2.046  13.740  19.136  0.00  0.00    +0.000 C 
ATOM      2  C   UNL     1       1.171  12.886  19.999  0.00  0.00    +0.000 A 
ATOM      3  C   UNL     1       0.366  13.410  20.941  0.00  0.00    +0.000 A 
ATOM      4  N   UNL     1      -0.378  12.551  21.728  0.00  0.00    +0.000 N 
ATOM      5  C   UNL     1      -1.216  12.758  22.796  0.00  0.00    +0.000 A 
ATOM      6  C   UNL     1      -1.508  11.491  23.265  0.00  0.00    +0.000 A 
ATOM      7  N   UNL     1      -0.951  10.515  22.466  0.00  0.00    +0.000 NA
ATOM      8  C   UNL     1      -0.269  11.195  21.566  0.00  0.00    +0.000 A 
ATOM      9  C   UNL     1       0.585  10.672  20.510  0.00  0.00    +0.000 A 
ATOM     10  N   UNL     1       0.661   9.307  20.267  0.00  0.00    +0.000 N 
ATOM     11  N   UNL     1       1.265  11.527  19.776  0.00  0.00    +0.000 NA
ATOM     12  H   UNL     1      -0.076   8.774  20.713  0.00  0.00    +0.000 HD
ENDROOT
BRANCH   5  13
ATOM     13  C   UNL     1      -1.666  14.056  23.341  0.00  0.00    +0.000 A 
ATOM     14  C   UNL     1      -1.120  14.816  24.395  0.00  0.00    +0.000 A 
ATOM     15  N   UNL     1      -1.830  15.919  24.646  0.00  0.00    +0.000 NA
ATOM     16  N   UNL     1      -2.824  15.865  23.744  0.00  0.00    +0.000 N 
ATOM     17  C   UNL     1      -2.749  14.781  22.913  0.00  0.00    +0.000 A 
ATOM     18  H   UNL     1      -3.526  16.597  23.760  0.00  0.00    +0.000 HD
ENDBRANCH   5  13
BRANCH  10  19
ATOM     19  C   UNL     1       1.473   8.693  19.371  0.00  0.00    +0.000 A 
ATOM     20  C   UNL     1       2.231   7.549  19.526  0.00  0.00    +0.000 A 
ATOM     21  C   UNL     1       3.018   7.268  18.368  0.00  0.00    +0.000 A 
ATOM     22  N   UNL     1       2.857   8.114  17.346  0.00  0.00    +0.000 NA
ATOM     23  S   UNL     1       1.732   9.257  17.773  0.00  0.00    +0.000 S 
BRANCH  21  24
ATOM     24  C   UNL     1       3.988   6.122  18.244  0.00  0.00    +0.000 C 
BRANCH  24  25
ATOM     25  N   UNL     1       3.406   4.865  18.762  0.00  0.00    +0.000 NA
ATOM     26  C   UNL     1       2.205   4.476  17.991  0.00  0.00    +0.000 C 
ATOM     27  C   UNL     1       1.597   3.155  18.505  0.00  0.00    +0.000 C 
ATOM     28  C   UNL     1       0.839   3.323  19.820  0.00  0.00    +0.000 C 
ATOM     29  O   UNL     1       2.552   2.084  18.561  0.00  0.00    +0.000 OA
ATOM     30  C   UNL     1       3.837   2.409  19.112  0.00  0.00    +0.000 C 
ATOM     31  C   UNL     1       3.863   2.262  20.630  0.00  0.00    +0.000 C 
ATOM     32  C   UNL     1       4.385   3.769  18.624  0.00  0.00    +0.000 C 
ENDBRANCH  24  25
ENDBRANCH  21  24
ENDBRANCH  10  19
TORSDOF 4
ENDMDL
