MODEL 1
REMARK VINA RESULT:      -8.4      0.000      0.000
REMARK  Name = 
REMARK  6 active torsions:
REMARK  status: ('A' for Active; 'I' for Inactive)
REMARK    1  A    between atoms: C_1  and  C_2
REMARK    2  A    between atoms: N_4  and  C_5
REMARK    3  A    between atoms: C_8  and  S_9
REMARK    4  A    between atoms: S_9  and  N_12
REMARK    5  A    between atoms: N_16  and  C_17
REMARK    6  A    between atoms: C_17  and  C_18
REMARK                            x       y       z     vdW  Elec       q    Type
REMARK                         _______ _______ _______ _____ _____    ______ ____
ROOT
ATOM      1  N   UNL     1       5.338   3.740  17.865  0.00  0.00    +0.000 N 
ATOM      2  C   UNL     1       4.097   4.076  18.373  0.00  0.00    +0.000 A 
ATOM      3  C   UNL     1       2.850   3.582  17.947  0.00  0.00    +0.000 A 
ATOM      4  C   UNL     1       1.930   4.217  18.749  0.00  0.00    +0.000 A 
ATOM      5  N   UNL     1       2.653   5.033  19.575  0.00  0.00    +0.000 N 
ATOM      6  N   UNL     1       3.989   4.899  19.413  0.00  0.00    +0.000 NA
ATOM      7  H   UNL     1       6.057   3.719  18.584  0.00  0.00    +0.000 HD
ENDROOT
BRANCH   1   8
ATOM      8  S   UNL     1       5.928   4.665  16.569  0.00  0.00    +0.000 S 
ATOM      9  O   UNL     1       4.819   5.281  15.866  0.00  0.00    +0.000 OA
ATOM     10  O   UNL     1       6.878   3.826  15.866  0.00  0.00    +0.000 OA
BRANCH   8  14
ATOM     11  C   UNL     1       8.320   8.036  18.588  0.00  0.00    +0.000 A 
ATOM     12  C   UNL     1       7.538   8.272  17.456  0.00  0.00    +0.000 A 
ATOM     13  C   UNL     1       6.806   7.249  16.853  0.00  0.00    +0.000 A 
ATOM     14  C   UNL     1       6.863   5.957  17.371  0.00  0.00    +0.000 A 
ATOM     15  C   UNL     1       7.616   5.701  18.522  0.00  0.00    +0.000 A 
ATOM     16  C   UNL     1       8.360   6.738  19.117  0.00  0.00    +0.000 A 
BRANCH  11  20
ATOM     17  C   UNL     1      10.138  11.210  19.548  0.00  0.00    +0.000 C 
ATOM     18  C   UNL     1       9.166  10.371  18.765  0.00  0.00    +0.000 C 
ATOM     19  O   UNL     1       8.536  10.874  17.840  0.00  0.00    +0.000 OA
ATOM     20  N   UNL     1       9.083   9.057  19.206  0.00  0.00    +0.000 N 
ATOM     21  H   UNL     1       9.541   8.828  20.078  0.00  0.00    +0.000 HD
ENDBRANCH  11  20
ENDBRANCH   8  14
ENDBRANCH   1   8
BRANCH   5  22
ATOM     22  C   UNL     1       2.115   6.087  20.429  0.00  0.00    +0.000 C 
BRANCH  22  23
ATOM     23  C   UNL     1       1.968   7.406  19.713  0.00  0.00    +0.000 A 
ATOM     24  C   UNL     1       2.462   7.534  18.400  0.00  0.00    +0.000 A 
ATOM     25  C   UNL     1       2.275   8.708  17.669  0.00  0.00    +0.000 A 
ATOM     26  C   UNL     1       1.574   9.771  18.229  0.00  0.00    +0.000 A 
ATOM     27  C   UNL     1       1.089   9.671  19.531  0.00  0.00    +0.000 A 
ATOM     28  C   UNL     1       1.294   8.504  20.274  0.00  0.00    +0.000 A 
ATOM     29 CL   UNL     1       0.690   8.487  21.893  0.00  0.00    +0.000 Cl
ENDBRANCH  22  23
ENDBRANCH   5  22
TORSDOF 5
ENDMDL
MODEL 2
REMARK VINA RESULT:      -8.1      3.805      5.642
REMARK  Name = 
REMARK  6 active torsions:
REMARK  status: ('A' for Active; 'I' for Inactive)
REMARK    1  A    between atoms: C_1  and  C_2
REMARK    2  A    between atoms: N_4  and  C_5
REMARK    3  A    between atoms: C_8  and  S_9
REMARK    4  A    between atoms: S_9  and  N_12
REMARK    5  A    between atoms: N_16  and  C_17
REMARK    6  A    between atoms: C_17  and  C_18
REMARK                            x       y       z     vdW  Elec       q    Type
REMARK                         _______ _______ _______ _____ _____    ______ ____
ROOT
ATOM      1  N   UNL     1       2.312   6.505  21.222  0.00  0.00    +0.000 N 
ATOM      2  C   UNL     1       1.519   7.567  20.825  0.00  0.00    +0.000 A 
ATOM      3  C   UNL     1       0.397   8.080  21.502  0.00  0.00    +0.000 A 
ATOM      4  C   UNL     1      -0.044   9.116  20.712  0.00  0.00    +0.000 A 
ATOM      5  N   UNL     1       0.805   9.158  19.640  0.00  0.00    +0.000 N 
ATOM      6  N   UNL     1       1.818   8.267  19.734  0.00  0.00    +0.000 NA
ATOM      7  H   UNL     1       3.290   6.642  20.978  0.00  0.00    +0.000 HD
ENDROOT
BRANCH   1   8
ATOM      8  S   UNL     1       1.859   4.954  20.699  0.00  0.00    +0.000 S 
ATOM      9  O   UNL     1       0.487   4.980  20.230  0.00  0.00    +0.000 OA
ATOM     10  O   UNL     1       2.270   4.035  21.741  0.00  0.00    +0.000 OA
BRANCH   8  14
ATOM     11  C   UNL     1       4.543   4.171  17.046  0.00  0.00    +0.000 A 
ATOM     12  C   UNL     1       3.189   3.830  17.044  0.00  0.00    +0.000 A 
ATOM     13  C   UNL     1       2.377   4.079  18.151  0.00  0.00    +0.000 A 
ATOM     14  C   UNL     1       2.920   4.663  19.293  0.00  0.00    +0.000 A 
ATOM     15  C   UNL     1       4.266   5.040  19.308  0.00  0.00    +0.000 A 
ATOM     16  C   UNL     1       5.081   4.776  18.191  0.00  0.00    +0.000 A 
BRANCH  11  20
ATOM     17  C   UNL     1       6.595   4.278  13.871  0.00  0.00    +0.000 C 
ATOM     18  C   UNL     1       5.787   4.856  15.001  0.00  0.00    +0.000 C 
ATOM     19  O   UNL     1       5.549   6.059  15.025  0.00  0.00    +0.000 OA
ATOM     20  N   UNL     1       5.389   3.913  15.939  0.00  0.00    +0.000 N 
ATOM     21  H   UNL     1       5.793   2.988  15.873  0.00  0.00    +0.000 HD
ENDBRANCH  11  20
ENDBRANCH   8  14
ENDBRANCH   1   8
BRANCH   5  22
ATOM     22  C   UNL     1       0.603   9.920  18.412  0.00  0.00    +0.000 C 
BRANCH  22  23
ATOM     23  C   UNL     1      -0.787  10.493  18.298  0.00  0.00    +0.000 A 
ATOM     24  C   UNL     1      -1.759   9.795  17.555  0.00  0.00    +0.000 A 
ATOM     25  C   UNL     1      -3.079  10.244  17.490  0.00  0.00    +0.000 A 
ATOM     26  C   UNL     1      -3.458  11.390  18.182  0.00  0.00    +0.000 A 
ATOM     27  C   UNL     1      -2.510  12.103  18.912  0.00  0.00    +0.000 A 
ATOM     28  C   UNL     1      -1.181  11.668  18.961  0.00  0.00    +0.000 A 
ATOM     29 CL   UNL     1      -0.069  12.638  19.859  0.00  0.00    +0.000 Cl
ENDBRANCH  22  23
ENDBRANCH   5  22
TORSDOF 5
ENDMDL
MODEL 3
REMARK VINA RESULT:      -8.0      2.286      3.064
REMARK  Name = 
REMARK  6 active torsions:
REMARK  status: ('A' for Active; 'I' for Inactive)
REMARK    1  A    between atoms: C_1  and  C_2
REMARK    2  A    between atoms: N_4  and  C_5
REMARK    3  A    between atoms: C_8  and  S_9
REMARK    4  A    between atoms: S_9  and  N_12
REMARK    5  A    between atoms: N_16  and  C_17
REMARK    6  A    between atoms: C_17  and  C_18
REMARK                            x       y       z     vdW  Elec       q    Type
REMARK                         _______ _______ _______ _____ _____    ______ ____
ROOT
ATOM      1  N   UNL     1       2.705   2.187  19.789  0.00  0.00    +0.000 N 
ATOM      2  C   UNL     1       2.069   3.368  20.125  0.00  0.00    +0.000 A 
ATOM      3  C   UNL     1       0.697   3.653  19.999  0.00  0.00    +0.000 A 
ATOM      4  C   UNL     1       0.564   4.944  20.455  0.00  0.00    +0.000 A 
ATOM      5  N   UNL     1       1.823   5.349  20.807  0.00  0.00    +0.000 N 
ATOM      6  N   UNL     1       2.746   4.367  20.687  0.00  0.00    +0.000 NA
ATOM      7  H   UNL     1       3.470   1.967  20.422  0.00  0.00    +0.000 HD
ENDROOT
BRANCH   1   8
ATOM      8  S   UNL     1       3.285   2.037  18.200  0.00  0.00    +0.000 S 
ATOM      9  O   UNL     1       2.171   2.046  17.272  0.00  0.00    +0.000 OA
ATOM     10  O   UNL     1       4.232   0.939  18.212  0.00  0.00    +0.000 OA
BRANCH   8  14
ATOM     11  C   UNL     1       5.728   5.893  17.632  0.00  0.00    +0.000 A 
ATOM     12  C   UNL     1       5.903   5.076  18.750  0.00  0.00    +0.000 A 
ATOM     13  C   UNL     1       5.167   3.902  18.913  0.00  0.00    +0.000 A 
ATOM     14  C   UNL     1       4.223   3.536  17.956  0.00  0.00    +0.000 A 
ATOM     15  C   UNL     1       4.050   4.323  16.812  0.00  0.00    +0.000 A 
ATOM     16  C   UNL     1       4.790   5.511  16.662  0.00  0.00    +0.000 A 
BRANCH  11  20
ATOM     17  C   UNL     1       8.147   8.796  17.787  0.00  0.00    +0.000 C 
ATOM     18  C   UNL     1       7.659   7.402  18.071  0.00  0.00    +0.000 C 
ATOM     19  O   UNL     1       8.324   6.659  18.788  0.00  0.00    +0.000 OA
ATOM     20  N   UNL     1       6.453   7.097  17.454  0.00  0.00    +0.000 N 
ATOM     21  H   UNL     1       6.102   7.750  16.766  0.00  0.00    +0.000 HD
ENDBRANCH  11  20
ENDBRANCH   8  14
ENDBRANCH   1   8
BRANCH   5  22
ATOM     22  C   UNL     1       2.234   6.715  21.110  0.00  0.00    +0.000 C 
BRANCH  22  23
ATOM     23  C   UNL     1       1.987   7.671  19.969  0.00  0.00    +0.000 A 
ATOM     24  C   UNL     1       2.543   7.390  18.706  0.00  0.00    +0.000 A 
ATOM     25  C   UNL     1       2.273   8.201  17.602  0.00  0.00    +0.000 A 
ATOM     26  C   UNL     1       1.426   9.297  17.735  0.00  0.00    +0.000 A 
ATOM     27  C   UNL     1       0.876   9.600  18.978  0.00  0.00    +0.000 A 
ATOM     28  C   UNL     1       1.163   8.802  20.092  0.00  0.00    +0.000 A 
ATOM     29 CL   UNL     1       0.466   9.278  21.600  0.00  0.00    +0.000 Cl
ENDBRANCH  22  23
ENDBRANCH   5  22
TORSDOF 5
ENDMDL
MODEL 4
REMARK VINA RESULT:      -7.9      0.588      1.097
REMARK  Name = 
REMARK  6 active torsions:
REMARK  status: ('A' for Active; 'I' for Inactive)
REMARK    1  A    between atoms: C_1  and  C_2
REMARK    2  A    between atoms: N_4  and  C_5
REMARK    3  A    between atoms: C_8  and  S_9
REMARK    4  A    between atoms: S_9  and  N_12
REMARK    5  A    between atoms: N_16  and  C_17
REMARK    6  A    between atoms: C_17  and  C_18
REMARK                            x       y       z     vdW  Elec       q    Type
REMARK                         _______ _______ _______ _____ _____    ______ ____
ROOT
ATOM      1  N   UNL     1       6.047   4.038  18.124  0.00  0.00    +0.000 N 
ATOM      2  C   UNL     1       4.734   4.168  18.537  0.00  0.00    +0.000 A 
ATOM      3  C   UNL     1       3.628   3.429  18.077  0.00  0.00    +0.000 A 
ATOM      4  C   UNL     1       2.556   3.927  18.782  0.00  0.00    +0.000 A 
ATOM      5  N   UNL     1       3.063   4.909  19.589  0.00  0.00    +0.000 N 
ATOM      6  N   UNL     1       4.408   5.014  19.511  0.00  0.00    +0.000 NA
ATOM      7  H   UNL     1       6.707   4.192  18.882  0.00  0.00    +0.000 HD
ENDROOT
BRANCH   1   8
ATOM      8  S   UNL     1       6.546   4.981  16.802  0.00  0.00    +0.000 S 
ATOM      9  O   UNL     1       5.383   5.450  16.072  0.00  0.00    +0.000 OA
ATOM     10  O   UNL     1       7.588   4.229  16.133  0.00  0.00    +0.000 OA
BRANCH   8  14
ATOM     11  C   UNL     1       8.570   8.580  18.830  0.00  0.00    +0.000 A 
ATOM     12  C   UNL     1       8.616   7.303  19.392  0.00  0.00    +0.000 A 
ATOM     13  C   UNL     1       8.009   6.213  18.769  0.00  0.00    +0.000 A 
ATOM     14  C   UNL     1       7.326   6.392  17.569  0.00  0.00    +0.000 A 
ATOM     15  C   UNL     1       7.291   7.656  16.970  0.00  0.00    +0.000 A 
ATOM     16  C   UNL     1       7.897   8.752  17.612  0.00  0.00    +0.000 A 
BRANCH  11  20
ATOM     17  C   UNL     1      10.133  11.909  19.712  0.00  0.00    +0.000 C 
ATOM     18  C   UNL     1       9.380  10.934  18.848  0.00  0.00    +0.000 C 
ATOM     19  O   UNL     1       9.017  11.271  17.726  0.00  0.00    +0.000 OA
ATOM     20  N   UNL     1       9.166   9.704  19.454  0.00  0.00    +0.000 N 
ATOM     21  H   UNL     1       9.381   9.624  20.439  0.00  0.00    +0.000 HD
ENDBRANCH  11  20
ENDBRANCH   8  14
ENDBRANCH   1   8
BRANCH   5  22
ATOM     22  C   UNL     1       2.287   5.892  20.337  0.00  0.00    +0.000 C 
BRANCH  22  23
ATOM     23  C   UNL     1       2.151   7.208  19.612  0.00  0.00    +0.000 A 
ATOM     24  C   UNL     1       2.620   7.315  18.289  0.00  0.00    +0.000 A 
ATOM     25  C   UNL     1       2.441   8.487  17.552  0.00  0.00    +0.000 A 
ATOM     26  C   UNL     1       1.773   9.569  18.117  0.00  0.00    +0.000 A 
ATOM     27  C   UNL     1       1.312   9.489  19.429  0.00  0.00    +0.000 A 
ATOM     28  C   UNL     1       1.510   8.323  20.178  0.00  0.00    +0.000 A 
ATOM     29 CL   UNL     1       0.939   8.331  21.809  0.00  0.00    +0.000 Cl
ENDBRANCH  22  23
ENDBRANCH   5  22
TORSDOF 5
ENDMDL
MODEL 5
REMARK VINA RESULT:      -7.9      3.706      5.590
REMARK  Name = 
REMARK  6 active torsions:
REMARK  status: ('A' for Active; 'I' for Inactive)
REMARK    1  A    between atoms: C_1  and  C_2
REMARK    2  A    between atoms: N_4  and  C_5
REMARK    3  A    between atoms: C_8  and  S_9
REMARK    4  A    between atoms: S_9  and  N_12
REMARK    5  A    between atoms: N_16  and  C_17
REMARK    6  A    between atoms: C_17  and  C_18
REMARK                            x       y       z     vdW  Elec       q    Type
REMARK                         _______ _______ _______ _____ _____    ______ ____
ROOT
ATOM      1  N   UNL     1       2.280   6.688  21.168  0.00  0.00    +0.000 N 
ATOM      2  C   UNL     1       1.456   7.741  20.814  0.00  0.00    +0.000 A 
ATOM      3  C   UNL     1       0.314   8.186  21.505  0.00  0.00    +0.000 A 
ATOM      4  C   UNL     1      -0.156   9.243  20.761  0.00  0.00    +0.000 A 
ATOM      5  N   UNL     1       0.697   9.360  19.697  0.00  0.00    +0.000 N 
ATOM      6  N   UNL     1       1.737   8.498  19.757  0.00  0.00    +0.000 NA
ATOM      7  H   UNL     1       3.254   6.867  20.937  0.00  0.00    +0.000 HD
ENDROOT
BRANCH   1   8
ATOM      8  S   UNL     1       1.880   5.148  20.573  0.00  0.00    +0.000 S 
ATOM      9  O   UNL     1       0.487   5.130  20.169  0.00  0.00    +0.000 OA
ATOM     10  O   UNL     1       2.385   4.193  21.538  0.00  0.00    +0.000 OA
BRANCH   8  14
ATOM     11  C   UNL     1       4.502   4.809  16.808  0.00  0.00    +0.000 A 
ATOM     12  C   UNL     1       4.734   5.790  17.775  0.00  0.00    +0.000 A 
ATOM     13  C   UNL     1       3.942   5.883  18.920  0.00  0.00    +0.000 A 
ATOM     14  C   UNL     1       2.885   4.995  19.105  0.00  0.00    +0.000 A 
ATOM     15  C   UNL     1       2.651   3.985  18.167  0.00  0.00    +0.000 A 
ATOM     16  C   UNL     1       3.448   3.906  17.009  0.00  0.00    +0.000 A 
BRANCH  11  20
ATOM     17  C   UNL     1       7.240   4.644  14.204  0.00  0.00    +0.000 C 
ATOM     18  C   UNL     1       6.669   4.630  15.596  0.00  0.00    +0.000 C 
ATOM     19  O   UNL     1       7.423   4.550  16.562  0.00  0.00    +0.000 OA
ATOM     20  N   UNL     1       5.284   4.707  15.631  0.00  0.00    +0.000 N 
ATOM     21  H   UNL     1       4.788   4.607  14.755  0.00  0.00    +0.000 HD
ENDBRANCH  11  20
ENDBRANCH   8  14
ENDBRANCH   1   8
BRANCH   5  22
ATOM     22  C   UNL     1       0.477  10.170  18.503  0.00  0.00    +0.000 C 
BRANCH  22  23
ATOM     23  C   UNL     1      -0.974  10.524  18.292  0.00  0.00    +0.000 A 
ATOM     24  C   UNL     1      -1.762   9.718  17.449  0.00  0.00    +0.000 A 
ATOM     25  C   UNL     1      -3.128   9.959  17.289  0.00  0.00    +0.000 A 
ATOM     26  C   UNL     1      -3.736  10.999  17.985  0.00  0.00    +0.000 A 
ATOM     27  C   UNL     1      -2.973  11.817  18.814  0.00  0.00    +0.000 A 
ATOM     28  C   UNL     1      -1.599  11.592  18.959  0.00  0.00    +0.000 A 
ATOM     29 CL   UNL     1      -0.727  12.681  19.978  0.00  0.00    +0.000 Cl
ENDBRANCH  22  23
ENDBRANCH   5  22
TORSDOF 5
ENDMDL
MODEL 6
REMARK VINA RESULT:      -7.9      6.092      8.765
REMARK  Name = 
REMARK  6 active torsions:
REMARK  status: ('A' for Active; 'I' for Inactive)
REMARK    1  A    between atoms: C_1  and  C_2
REMARK    2  A    between atoms: N_4  and  C_5
REMARK    3  A    between atoms: C_8  and  S_9
REMARK    4  A    between atoms: S_9  and  N_12
REMARK    5  A    between atoms: N_16  and  C_17
REMARK    6  A    between atoms: C_17  and  C_18
REMARK                            x       y       z     vdW  Elec       q    Type
REMARK                         _______ _______ _______ _____ _____    ______ ____
ROOT
ATOM      1  N   UNL     1       0.332  11.401  18.921  0.00  0.00    +0.000 N 
ATOM      2  C   UNL     1       1.121  12.526  18.765  0.00  0.00    +0.000 A 
ATOM      3  C   UNL     1       2.393  12.588  18.168  0.00  0.00    +0.000 A 
ATOM      4  C   UNL     1       2.760  13.911  18.260  0.00  0.00    +0.000 A 
ATOM      5  N   UNL     1       1.725  14.542  18.895  0.00  0.00    +0.000 N 
ATOM      6  N   UNL     1       0.677  13.724  19.139  0.00  0.00    +0.000 NA
ATOM      7  H   UNL     1      -0.659  11.609  18.827  0.00  0.00    +0.000 HD
ENDROOT
BRANCH   1   8
ATOM      8  S   UNL     1       0.540  10.492  20.341  0.00  0.00    +0.000 S 
ATOM      9  O   UNL     1      -0.757  10.146  20.891  0.00  0.00    +0.000 OA
ATOM     10  O   UNL     1       1.521  11.199  21.139  0.00  0.00    +0.000 OA
BRANCH   8  14
ATOM     11  C   UNL     1       2.536   6.600  18.915  0.00  0.00    +0.000 A 
ATOM     12  C   UNL     1       2.062   6.743  20.220  0.00  0.00    +0.000 A 
ATOM     13  C   UNL     1       1.448   7.921  20.645  0.00  0.00    +0.000 A 
ATOM     14  C   UNL     1       1.316   8.991  19.763  0.00  0.00    +0.000 A 
ATOM     15  C   UNL     1       1.756   8.863  18.442  0.00  0.00    +0.000 A 
ATOM     16  C   UNL     1       2.384   7.674  18.025  0.00  0.00    +0.000 A 
BRANCH  11  20
ATOM     17  C   UNL     1       3.449   3.188  17.563  0.00  0.00    +0.000 C 
ATOM     18  C   UNL     1       2.546   4.362  17.824  0.00  0.00    +0.000 C 
ATOM     19  O   UNL     1       1.372   4.318  17.467  0.00  0.00    +0.000 OA
ATOM     20  N   UNL     1       3.177   5.418  18.467  0.00  0.00    +0.000 N 
ATOM     21  H   UNL     1       4.183   5.377  18.556  0.00  0.00    +0.000 HD
ENDBRANCH  11  20
ENDBRANCH   8  14
ENDBRANCH   1   8
BRANCH   5  22
ATOM     22  C   UNL     1       1.749  15.895  19.441  0.00  0.00    +0.000 C 
BRANCH  22  23
ATOM     23  C   UNL     1       1.023  16.893  18.574  0.00  0.00    +0.000 A 
ATOM     24  C   UNL     1       1.719  17.527  17.527  0.00  0.00    +0.000 A 
ATOM     25  C   UNL     1       1.067  18.394  16.649  0.00  0.00    +0.000 A 
ATOM     26  C   UNL     1      -0.297  18.629  16.788  0.00  0.00    +0.000 A 
ATOM     27  C   UNL     1      -1.002  18.022  17.825  0.00  0.00    +0.000 A 
ATOM     28  C   UNL     1      -0.347  17.170  18.721  0.00  0.00    +0.000 A 
ATOM     29 CL   UNL     1      -1.294  16.493  19.998  0.00  0.00    +0.000 Cl
ENDBRANCH  22  23
ENDBRANCH   5  22
TORSDOF 5
ENDMDL
MODEL 7
REMARK VINA RESULT:      -7.8      5.565      8.279
REMARK  Name = 
REMARK  6 active torsions:
REMARK  status: ('A' for Active; 'I' for Inactive)
REMARK    1  A    between atoms: C_1  and  C_2
REMARK    2  A    between atoms: N_4  and  C_5
REMARK    3  A    between atoms: C_8  and  S_9
REMARK    4  A    between atoms: S_9  and  N_12
REMARK    5  A    between atoms: N_16  and  C_17
REMARK    6  A    between atoms: C_17  and  C_18
REMARK                            x       y       z     vdW  Elec       q    Type
REMARK                         _______ _______ _______ _____ _____    ______ ____
ROOT
ATOM      1  N   UNL     1       1.288  10.537  21.056  0.00  0.00    +0.000 N 
ATOM      2  C   UNL     1       0.243  10.890  21.889  0.00  0.00    +0.000 A 
ATOM      3  C   UNL     1      -0.565  10.020  22.644  0.00  0.00    +0.000 A 
ATOM      4  C   UNL     1      -1.455  10.844  23.294  0.00  0.00    +0.000 A 
ATOM      5  N   UNL     1      -1.146  12.116  22.897  0.00  0.00    +0.000 N 
ATOM      6  N   UNL     1      -0.056  12.170  22.099  0.00  0.00    +0.000 NA
ATOM      7  H   UNL     1       2.041  11.221  21.070  0.00  0.00    +0.000 HD
ENDROOT
BRANCH   1   8
ATOM      8  S   UNL     1       0.917  10.209  19.431  0.00  0.00    +0.000 S 
ATOM      9  O   UNL     1       1.590  11.167  18.575  0.00  0.00    +0.000 OA
ATOM     10  O   UNL     1      -0.521  10.037  19.367  0.00  0.00    +0.000 OA
BRANCH   8  14
ATOM     11  C   UNL     1       2.800   6.062  18.778  0.00  0.00    +0.000 A 
ATOM     12  C   UNL     1       2.280   6.442  20.017  0.00  0.00    +0.000 A 
ATOM     13  C   UNL     1       1.701   7.697  20.208  0.00  0.00    +0.000 A 
ATOM     14  C   UNL     1       1.650   8.605  19.153  0.00  0.00    +0.000 A 
ATOM     15  C   UNL     1       2.137   8.238  17.894  0.00  0.00    +0.000 A 
ATOM     16  C   UNL     1       2.730   6.974  17.714  0.00  0.00    +0.000 A 
BRANCH  11  20
ATOM     17  C   UNL     1       3.644   2.473  17.939  0.00  0.00    +0.000 C 
ATOM     18  C   UNL     1       2.811   3.726  17.920  0.00  0.00    +0.000 C 
ATOM     19  O   UNL     1       1.720   3.722  17.359  0.00  0.00    +0.000 OA
ATOM     20  N   UNL     1       3.407   4.800  18.567  0.00  0.00    +0.000 N 
ATOM     21  H   UNL     1       4.375   4.701  18.843  0.00  0.00    +0.000 HD
ENDBRANCH  11  20
ENDBRANCH   8  14
ENDBRANCH   1   8
BRANCH   5  22
ATOM     22  C   UNL     1      -1.959  13.307  23.119  0.00  0.00    +0.000 C 
BRANCH  22  23
ATOM     23  C   UNL     1      -3.435  13.052  22.949  0.00  0.00    +0.000 A 
ATOM     24  C   UNL     1      -4.271  13.074  24.082  0.00  0.00    +0.000 A 
ATOM     25  C   UNL     1      -5.653  12.925  23.962  0.00  0.00    +0.000 A 
ATOM     26  C   UNL     1      -6.230  12.770  22.706  0.00  0.00    +0.000 A 
ATOM     27  C   UNL     1      -5.421  12.732  21.573  0.00  0.00    +0.000 A 
ATOM     28  C   UNL     1      -4.032  12.858  21.691  0.00  0.00    +0.000 A 
ATOM     29 CL   UNL     1      -3.107  12.760  20.235  0.00  0.00    +0.000 Cl
ENDBRANCH  22  23
ENDBRANCH   5  22
TORSDOF 5
ENDMDL
MODEL 8
REMARK VINA RESULT:      -7.8      3.859      5.526
REMARK  Name = 
REMARK  6 active torsions:
REMARK  status: ('A' for Active; 'I' for Inactive)
REMARK    1  A    between atoms: C_1  and  C_2
REMARK    2  A    between atoms: N_4  and  C_5
REMARK    3  A    between atoms: C_8  and  S_9
REMARK    4  A    between atoms: S_9  and  N_12
REMARK    5  A    between atoms: N_16  and  C_17
REMARK    6  A    between atoms: C_17  and  C_18
REMARK                            x       y       z     vdW  Elec       q    Type
REMARK                         _______ _______ _______ _____ _____    ______ ____
ROOT
ATOM      1  N   UNL     1       2.347   6.045  21.293  0.00  0.00    +0.000 N 
ATOM      2  C   UNL     1       1.694   7.173  20.831  0.00  0.00    +0.000 A 
ATOM      3  C   UNL     1       0.533   7.756  21.371  0.00  0.00    +0.000 A 
ATOM      4  C   UNL     1       0.278   8.841  20.564  0.00  0.00    +0.000 A 
ATOM      5  N   UNL     1       1.262   8.840  19.613  0.00  0.00    +0.000 N 
ATOM      6  N   UNL     1       2.185   7.871  19.810  0.00  0.00    +0.000 NA
ATOM      7  H   UNL     1       3.356   6.111  21.184  0.00  0.00    +0.000 HD
ENDROOT
BRANCH   1   8
ATOM      8  S   UNL     1       1.854   4.545  20.667  0.00  0.00    +0.000 S 
ATOM      9  O   UNL     1       0.495   4.648  20.170  0.00  0.00    +0.000 OA
ATOM     10  O   UNL     1       2.208   3.551  21.660  0.00  0.00    +0.000 OA
BRANCH   8  14
ATOM     11  C   UNL     1       4.598   3.889  17.033  0.00  0.00    +0.000 A 
ATOM     12  C   UNL     1       3.228   3.625  16.972  0.00  0.00    +0.000 A 
ATOM     13  C   UNL     1       2.398   3.835  18.073  0.00  0.00    +0.000 A 
ATOM     14  C   UNL     1       2.939   4.301  19.270  0.00  0.00    +0.000 A 
ATOM     15  C   UNL     1       4.302   4.601  19.348  0.00  0.00    +0.000 A 
ATOM     16  C   UNL     1       5.133   4.376  18.234  0.00  0.00    +0.000 A 
BRANCH  11  20
ATOM     17  C   UNL     1       6.700   4.103  13.897  0.00  0.00    +0.000 C 
ATOM     18  C   UNL     1       5.877   4.642  15.034  0.00  0.00    +0.000 C 
ATOM     19  O   UNL     1       5.642   5.845  15.098  0.00  0.00    +0.000 OA
ATOM     20  N   UNL     1       5.460   3.668  15.931  0.00  0.00    +0.000 N 
ATOM     21  H   UNL     1       5.863   2.744  15.838  0.00  0.00    +0.000 HD
ENDBRANCH  11  20
ENDBRANCH   8  14
ENDBRANCH   1   8
BRANCH   5  22
ATOM     22  C   UNL     1       1.281   9.641  18.394  0.00  0.00    +0.000 C 
BRANCH  22  23
ATOM     23  C   UNL     1       0.644  10.997  18.572  0.00  0.00    +0.000 A 
ATOM     24  C   UNL     1       1.434  12.074  19.016  0.00  0.00    +0.000 A 
ATOM     25  C   UNL     1       0.907  13.363  19.115  0.00  0.00    +0.000 A 
ATOM     26  C   UNL     1      -0.415  13.603  18.755  0.00  0.00    +0.000 A 
ATOM     27  C   UNL     1      -1.218  12.550  18.325  0.00  0.00    +0.000 A 
ATOM     28  C   UNL     1      -0.699  11.252  18.246  0.00  0.00    +0.000 A 
ATOM     29 CL   UNL     1      -1.781  10.003  17.741  0.00  0.00    +0.000 Cl
ENDBRANCH  22  23
ENDBRANCH   5  22
TORSDOF 5
ENDMDL
MODEL 9
REMARK VINA RESULT:      -7.8      3.564      6.448
REMARK  Name = 
REMARK  6 active torsions:
REMARK  status: ('A' for Active; 'I' for Inactive)
REMARK    1  A    between atoms: C_1  and  C_2
REMARK    2  A    between atoms: N_4  and  C_5
REMARK    3  A    between atoms: C_8  and  S_9
REMARK    4  A    between atoms: S_9  and  N_12
REMARK    5  A    between atoms: N_16  and  C_17
REMARK    6  A    between atoms: C_17  and  C_18
REMARK                            x       y       z     vdW  Elec       q    Type
REMARK                         _______ _______ _______ _____ _____    ______ ____
ROOT
ATOM      1  N   UNL     1       1.671   4.382  18.498  0.00  0.00    +0.000 N 
ATOM      2  C   UNL     1       2.757   3.734  17.939  0.00  0.00    +0.000 A 
ATOM      3  C   UNL     1       3.066   2.365  18.041  0.00  0.00    +0.000 A 
ATOM      4  C   UNL     1       4.232   2.215  17.327  0.00  0.00    +0.000 A 
ATOM      5  N   UNL     1       4.549   3.462  16.861  0.00  0.00    +0.000 N 
ATOM      6  N   UNL     1       3.612   4.390  17.159  0.00  0.00    +0.000 NA
ATOM      7  H   UNL     1       1.320   5.129  17.904  0.00  0.00    +0.000 HD
ENDROOT
BRANCH   1   8
ATOM      8  S   UNL     1       1.858   5.009  20.066  0.00  0.00    +0.000 S 
ATOM      9  O   UNL     1       3.207   4.754  20.534  0.00  0.00    +0.000 OA
ATOM     10  O   UNL     1       0.711   4.558  20.826  0.00  0.00    +0.000 OA
BRANCH   8  14
ATOM     11  C   UNL     1       1.357   9.551  19.526  0.00  0.00    +0.000 A 
ATOM     12  C   UNL     1       0.990   8.910  20.711  0.00  0.00    +0.000 A 
ATOM     13  C   UNL     1       1.153   7.535  20.874  0.00  0.00    +0.000 A 
ATOM     14  C   UNL     1       1.676   6.770  19.833  0.00  0.00    +0.000 A 
ATOM     15  C   UNL     1       2.079   7.392  18.647  0.00  0.00    +0.000 A 
ATOM     16  C   UNL     1       1.901   8.779  18.488  0.00  0.00    +0.000 A 
BRANCH  11  20
ATOM     17  C   UNL     1       0.200  13.027  18.592  0.00  0.00    +0.000 C 
ATOM     18  C   UNL     1       0.063  11.541  18.777  0.00  0.00    +0.000 C 
ATOM     19  O   UNL     1      -0.978  10.981  18.449  0.00  0.00    +0.000 OA
ATOM     20  N   UNL     1       1.186  10.944  19.334  0.00  0.00    +0.000 N 
ATOM     21  H   UNL     1       1.905  11.552  19.701  0.00  0.00    +0.000 HD
ENDBRANCH  11  20
ENDBRANCH   8  14
ENDBRANCH   1   8
BRANCH   5  22
ATOM     22  C   UNL     1       5.819   3.860  16.264  0.00  0.00    +0.000 C 
BRANCH  22  23
ATOM     23  C   UNL     1       6.480   5.002  16.994  0.00  0.00    +0.000 A 
ATOM     24  C   UNL     1       7.378   4.720  18.041  0.00  0.00    +0.000 A 
ATOM     25  C   UNL     1       8.075   5.740  18.689  0.00  0.00    +0.000 A 
ATOM     26  C   UNL     1       7.903   7.062  18.291  0.00  0.00    +0.000 A 
ATOM     27  C   UNL     1       7.010   7.365  17.266  0.00  0.00    +0.000 A 
ATOM     28  C   UNL     1       6.293   6.346  16.629  0.00  0.00    +0.000 A 
ATOM     29 CL   UNL     1       5.179   6.821  15.396  0.00  0.00    +0.000 Cl
ENDBRANCH  22  23
ENDBRANCH   5  22
TORSDOF 5
ENDMDL
