MODEL 1
REMARK VINA RESULT:      -8.1      0.000      0.000
REMARK  Name = 
REMARK  3 active torsions:
REMARK  status: ('A' for Active; 'I' for Inactive)
REMARK    1  A    between atoms: C_1  and  N_2
REMARK    2  A    between atoms: N_2  and  C_22
REMARK    3  A    between atoms: C_11  and  C_12
REMARK                            x       y       z     vdW  Elec       q    Type
REMARK                         _______ _______ _______ _____ _____    ______ ____
ROOT
ATOM      1  C   UNL     1       1.962   5.386  21.026  0.00  0.00    +0.000 C 
ATOM      2  N   UNL     1       2.566   5.589  19.705  0.00  0.00    +0.000 N 
ATOM      3  C   UNL     1       2.721   6.739  18.936  0.00  0.00    +0.000 C 
ATOM      4  O   UNL     1       3.268   6.669  17.822  0.00  0.00    +0.000 OA
ATOM      5  N   UNL     1       2.210   7.970  19.318  0.00  0.00    +0.000 N 
ATOM      6  C   UNL     1       2.125   9.031  18.283  0.00  0.00    +0.000 C 
ATOM      7  C   UNL     1       0.685   9.607  18.140  0.00  0.00    +0.000 C 
ATOM      8  N   UNL     1       0.119   9.930  19.456  0.00  0.00    +0.000 N 
ATOM      9  C   UNL     1      -0.684  10.992  19.724  0.00  0.00    +0.000 A 
ATOM     10  N   UNL     1      -1.112  11.284  20.933  0.00  0.00    +0.000 NA
ATOM     11  C   UNL     1      -1.884  12.441  20.912  0.00  0.00    +0.000 A 
ATOM     12  N   UNL     1      -2.092  13.039  19.726  0.00  0.00    +0.000 NA
ATOM     13  S   UNL     1      -1.275  12.151  18.586  0.00  0.00    +0.000 S 
ATOM     14  C   UNL     1       0.224   8.871  20.461  0.00  0.00    +0.000 C 
ATOM     15  C   UNL     1       1.698   8.483  20.590  0.00  0.00    +0.000 C 
ENDROOT
BRANCH   2  16
ATOM     16  C   UNL     1       2.876   4.311  19.081  0.00  0.00    +0.000 A 
ATOM     17  C   UNL     1       3.968   3.538  19.495  0.00  0.00    +0.000 A 
ATOM     18  C   UNL     1       4.169   2.252  18.969  0.00  0.00    +0.000 A 
ATOM     19  C   UNL     1       3.290   1.730  18.007  0.00  0.00    +0.000 A 
ATOM     20  C   UNL     1       2.221   2.496  17.572  0.00  0.00    +0.000 A 
ATOM     21  C   UNL     1       2.026   3.766  18.105  0.00  0.00    +0.000 A 
ATOM     22  F   UNL     1       0.996   4.478  17.617  0.00  0.00    +0.000 F 
ENDBRANCH   2  16
BRANCH  11  23
ATOM     23  C   UNL     1      -2.440  12.971  22.164  0.00  0.00    +0.000 A 
ATOM     24  C   UNL     1      -3.727  12.617  22.588  0.00  0.00    +0.000 A 
ATOM     25  C   UNL     1      -4.250  13.132  23.778  0.00  0.00    +0.000 A 
ATOM     26  C   UNL     1      -3.488  14.004  24.554  0.00  0.00    +0.000 A 
ATOM     27  C   UNL     1      -2.203  14.358  24.147  0.00  0.00    +0.000 A 
ATOM     28  C   UNL     1      -1.680  13.843  22.960  0.00  0.00    +0.000 A 
ENDBRANCH  11  23
TORSDOF 2
ENDMDL
MODEL 2
REMARK VINA RESULT:      -7.9      0.935      1.550
REMARK  Name = 
REMARK  3 active torsions:
REMARK  status: ('A' for Active; 'I' for Inactive)
REMARK    1  A    between atoms: C_1  and  N_2
REMARK    2  A    between atoms: N_2  and  C_22
REMARK    3  A    between atoms: C_11  and  C_12
REMARK                            x       y       z     vdW  Elec       q    Type
REMARK                         _______ _______ _______ _____ _____    ______ ____
ROOT
ATOM      1  C   UNL     1       1.850   5.522  21.139  0.00  0.00    +0.000 C 
ATOM      2  N   UNL     1       2.368   5.707  19.778  0.00  0.00    +0.000 N 
ATOM      3  C   UNL     1       2.486   6.848  18.991  0.00  0.00    +0.000 C 
ATOM      4  O   UNL     1       2.957   6.763  17.844  0.00  0.00    +0.000 OA
ATOM      5  N   UNL     1       2.018   8.090  19.396  0.00  0.00    +0.000 N 
ATOM      6  C   UNL     1       1.878   9.144  18.359  0.00  0.00    +0.000 C 
ATOM      7  C   UNL     1       0.439   9.738  18.308  0.00  0.00    +0.000 C 
ATOM      8  N   UNL     1      -0.034  10.079  19.655  0.00  0.00    +0.000 N 
ATOM      9  C   UNL     1      -0.804  11.153  19.967  0.00  0.00    +0.000 A 
ATOM     10  N   UNL     1      -1.146  11.460  21.200  0.00  0.00    +0.000 NA
ATOM     11  C   UNL     1      -1.903  12.627  21.220  0.00  0.00    +0.000 A 
ATOM     12  N   UNL     1      -2.181  13.219  20.046  0.00  0.00    +0.000 NA
ATOM     13  S   UNL     1      -1.454  12.311  18.861  0.00  0.00    +0.000 S 
ATOM     14  C   UNL     1       0.124   9.026  20.660  0.00  0.00    +0.000 C 
ATOM     15  C   UNL     1       1.598   8.619  20.695  0.00  0.00    +0.000 C 
ENDROOT
BRANCH   2  16
ATOM     16  C   UNL     1       2.619   4.420  19.146  0.00  0.00    +0.000 A 
ATOM     17  C   UNL     1       1.580   3.653  18.603  0.00  0.00    +0.000 A 
ATOM     18  C   UNL     1       1.863   2.481  17.884  0.00  0.00    +0.000 A 
ATOM     19  C   UNL     1       3.189   2.050  17.716  0.00  0.00    +0.000 A 
ATOM     20  C   UNL     1       4.222   2.787  18.271  0.00  0.00    +0.000 A 
ATOM     21  C   UNL     1       3.932   3.952  18.974  0.00  0.00    +0.000 A 
ATOM     22  F   UNL     1       4.970   4.604  19.523  0.00  0.00    +0.000 F 
ENDBRANCH   2  16
BRANCH  11  23
ATOM     23  C   UNL     1      -2.367  13.174  22.501  0.00  0.00    +0.000 A 
ATOM     24  C   UNL     1      -1.687  14.229  23.123  0.00  0.00    +0.000 A 
ATOM     25  C   UNL     1      -2.134  14.739  24.347  0.00  0.00    +0.000 A 
ATOM     26  C   UNL     1      -3.265  14.199  24.955  0.00  0.00    +0.000 A 
ATOM     27  C   UNL     1      -3.955  13.154  24.343  0.00  0.00    +0.000 A 
ATOM     28  C   UNL     1      -3.511  12.647  23.121  0.00  0.00    +0.000 A 
ENDBRANCH  11  23
TORSDOF 2
ENDMDL
MODEL 3
REMARK VINA RESULT:      -7.6      3.730     10.189
REMARK  Name = 
REMARK  3 active torsions:
REMARK  status: ('A' for Active; 'I' for Inactive)
REMARK    1  A    between atoms: C_1  and  N_2
REMARK    2  A    between atoms: N_2  and  C_22
REMARK    3  A    between atoms: C_11  and  C_12
REMARK                            x       y       z     vdW  Elec       q    Type
REMARK                         _______ _______ _______ _____ _____    ______ ____
ROOT
ATOM      1  C   UNL     1      -0.682  12.610  18.542  0.00  0.00    +0.000 C 
ATOM      2  N   UNL     1      -0.953  12.532  19.982  0.00  0.00    +0.000 N 
ATOM      3  C   UNL     1      -0.362  11.770  20.986  0.00  0.00    +0.000 C 
ATOM      4  O   UNL     1      -0.768  11.866  22.155  0.00  0.00    +0.000 OA
ATOM      5  N   UNL     1       0.622  10.826  20.728  0.00  0.00    +0.000 N 
ATOM      6  C   UNL     1       0.926   9.840  21.796  0.00  0.00    +0.000 C 
ATOM      7  C   UNL     1       0.798   8.370  21.301  0.00  0.00    +0.000 C 
ATOM      8  N   UNL     1       1.499   8.186  20.024  0.00  0.00    +0.000 N 
ATOM      9  C   UNL     1       2.186   7.074  19.660  0.00  0.00    +0.000 A 
ATOM     10  N   UNL     1       2.860   6.979  18.533  0.00  0.00    +0.000 NA
ATOM     11  C   UNL     1       3.492   5.743  18.445  0.00  0.00    +0.000 A 
ATOM     12  N   UNL     1       3.311   4.868  19.449  0.00  0.00    +0.000 NA
ATOM     13  S   UNL     1       2.337   5.612  20.570  0.00  0.00    +0.000 S 
ATOM     14  C   UNL     1       1.188   9.176  18.990  0.00  0.00    +0.000 C 
ATOM     15  C   UNL     1       1.470  10.566  19.564  0.00  0.00    +0.000 C 
ENDROOT
BRANCH   2  16
ATOM     16  C   UNL     1      -2.164  13.267  20.315  0.00  0.00    +0.000 A 
ATOM     17  C   UNL     1      -3.430  12.674  20.233  0.00  0.00    +0.000 A 
ATOM     18  C   UNL     1      -4.568  13.361  20.685  0.00  0.00    +0.000 A 
ATOM     19  C   UNL     1      -4.456  14.660  21.208  0.00  0.00    +0.000 A 
ATOM     20  C   UNL     1      -3.212  15.266  21.271  0.00  0.00    +0.000 A 
ATOM     21  C   UNL     1      -2.089  14.573  20.828  0.00  0.00    +0.000 A 
ATOM     22  F   UNL     1      -0.915  15.225  20.877  0.00  0.00    +0.000 F 
ENDBRANCH   2  16
BRANCH  11  23
ATOM     23  C   UNL     1       4.329   5.433  17.279  0.00  0.00    +0.000 A 
ATOM     24  C   UNL     1       4.769   6.447  16.417  0.00  0.00    +0.000 A 
ATOM     25  C   UNL     1       5.561   6.141  15.306  0.00  0.00    +0.000 A 
ATOM     26  C   UNL     1       5.919   4.818  15.049  0.00  0.00    +0.000 A 
ATOM     27  C   UNL     1       5.494   3.802  15.903  0.00  0.00    +0.000 A 
ATOM     28  C   UNL     1       4.707   4.107  17.013  0.00  0.00    +0.000 A 
ENDBRANCH  11  23
TORSDOF 2
ENDMDL
MODEL 4
REMARK VINA RESULT:      -7.5      3.718     10.128
REMARK  Name = 
REMARK  3 active torsions:
REMARK  status: ('A' for Active; 'I' for Inactive)
REMARK    1  A    between atoms: C_1  and  N_2
REMARK    2  A    between atoms: N_2  and  C_22
REMARK    3  A    between atoms: C_11  and  C_12
REMARK                            x       y       z     vdW  Elec       q    Type
REMARK                         _______ _______ _______ _____ _____    ______ ____
ROOT
ATOM      1  C   UNL     1      -0.975  12.756  19.436  0.00  0.00    +0.000 C 
ATOM      2  N   UNL     1      -1.217  12.560  20.870  0.00  0.00    +0.000 N 
ATOM      3  C   UNL     1      -0.606  11.720  21.797  0.00  0.00    +0.000 C 
ATOM      4  O   UNL     1      -0.988  11.720  22.979  0.00  0.00    +0.000 OA
ATOM      5  N   UNL     1       0.372  10.801  21.443  0.00  0.00    +0.000 N 
ATOM      6  C   UNL     1       0.696   9.732  22.422  0.00  0.00    +0.000 C 
ATOM      7  C   UNL     1       0.558   8.306  21.811  0.00  0.00    +0.000 C 
ATOM      8  N   UNL     1       1.232   8.228  20.509  0.00  0.00    +0.000 N 
ATOM      9  C   UNL     1       1.912   7.149  20.042  0.00  0.00    +0.000 A 
ATOM     10  N   UNL     1       2.562   7.147  18.898  0.00  0.00    +0.000 NA
ATOM     11  C   UNL     1       3.192   5.923  18.697  0.00  0.00    +0.000 A 
ATOM     12  N   UNL     1       3.030   4.970  19.630  0.00  0.00    +0.000 NA
ATOM     13  S   UNL     1       2.080   5.618  20.827  0.00  0.00    +0.000 S 
ATOM     14  C   UNL     1       0.902   9.298  19.566  0.00  0.00    +0.000 C 
ATOM     15  C   UNL     1       1.196  10.637  20.245  0.00  0.00    +0.000 C 
ENDROOT
BRANCH   2  16
ATOM     16  C   UNL     1      -2.420  13.265  21.287  0.00  0.00    +0.000 A 
ATOM     17  C   UNL     1      -3.695  12.715  21.105  0.00  0.00    +0.000 A 
ATOM     18  C   UNL     1      -4.828  13.353  21.633  0.00  0.00    +0.000 A 
ATOM     19  C   UNL     1      -4.702  14.564  22.334  0.00  0.00    +0.000 A 
ATOM     20  C   UNL     1      -3.449  15.130  22.499  0.00  0.00    +0.000 A 
ATOM     21  C   UNL     1      -2.331  14.485  21.979  0.00  0.00    +0.000 A 
ATOM     22  F   UNL     1      -1.147  15.100  22.135  0.00  0.00    +0.000 F 
ENDBRANCH   2  16
BRANCH  11  23
ATOM     23  C   UNL     1       4.005   5.710  17.493  0.00  0.00    +0.000 A 
ATOM     24  C   UNL     1       4.252   4.419  17.009  0.00  0.00    +0.000 A 
ATOM     25  C   UNL     1       5.033   4.226  15.865  0.00  0.00    +0.000 A 
ATOM     26  C   UNL     1       5.570   5.324  15.195  0.00  0.00    +0.000 A 
ATOM     27  C   UNL     1       5.325   6.614  15.662  0.00  0.00    +0.000 A 
ATOM     28  C   UNL     1       4.544   6.807  16.801  0.00  0.00    +0.000 A 
ENDBRANCH  11  23
TORSDOF 2
ENDMDL
MODEL 5
REMARK VINA RESULT:      -7.5      3.478     10.069
REMARK  Name = 
REMARK  3 active torsions:
REMARK  status: ('A' for Active; 'I' for Inactive)
REMARK    1  A    between atoms: C_1  and  N_2
REMARK    2  A    between atoms: N_2  and  C_22
REMARK    3  A    between atoms: C_11  and  C_12
REMARK                            x       y       z     vdW  Elec       q    Type
REMARK                         _______ _______ _______ _____ _____    ______ ____
ROOT
ATOM      1  C   UNL     1      -0.624  13.038  19.560  0.00  0.00    +0.000 C 
ATOM      2  N   UNL     1      -0.988  12.793  20.960  0.00  0.00    +0.000 N 
ATOM      3  C   UNL     1      -0.516  11.861  21.879  0.00  0.00    +0.000 C 
ATOM      4  O   UNL     1      -0.984  11.834  23.029  0.00  0.00    +0.000 OA
ATOM      5  N   UNL     1       0.411  10.883  21.546  0.00  0.00    +0.000 N 
ATOM      6  C   UNL     1       0.576   9.744  22.485  0.00  0.00    +0.000 C 
ATOM      7  C   UNL     1       0.372   8.366  21.788  0.00  0.00    +0.000 C 
ATOM      8  N   UNL     1       1.134   8.297  20.535  0.00  0.00    +0.000 N 
ATOM      9  C   UNL     1       1.760   7.191  20.059  0.00  0.00    +0.000 A 
ATOM     10  N   UNL     1       2.492   7.191  18.965  0.00  0.00    +0.000 NA
ATOM     11  C   UNL     1       3.037   5.931  18.741  0.00  0.00    +0.000 A 
ATOM     12  N   UNL     1       2.732   4.949  19.606  0.00  0.00    +0.000 NA
ATOM     13  S   UNL     1       1.748   5.614  20.767  0.00  0.00    +0.000 S 
ATOM     14  C   UNL     1       0.960   9.436  19.631  0.00  0.00    +0.000 C 
ATOM     15  C   UNL     1       1.307  10.711  20.402  0.00  0.00    +0.000 C 
ENDROOT
BRANCH   2  16
ATOM     16  C   UNL     1      -2.159  13.573  21.329  0.00  0.00    +0.000 A 
ATOM     17  C   UNL     1      -2.055  14.730  22.112  0.00  0.00    +0.000 A 
ATOM     18  C   UNL     1      -3.181  15.536  22.344  0.00  0.00    +0.000 A 
ATOM     19  C   UNL     1      -4.431  15.184  21.810  0.00  0.00    +0.000 A 
ATOM     20  C   UNL     1      -4.552  14.029  21.056  0.00  0.00    +0.000 A 
ATOM     21  C   UNL     1      -3.428  13.242  20.825  0.00  0.00    +0.000 A 
ATOM     22  F   UNL     1      -3.612  12.113  20.119  0.00  0.00    +0.000 F 
ENDBRANCH   2  16
BRANCH  11  23
ATOM     23  C   UNL     1       3.919   5.712  17.588  0.00  0.00    +0.000 A 
ATOM     24  C   UNL     1       4.510   6.790  16.916  0.00  0.00    +0.000 A 
ATOM     25  C   UNL     1       5.344   6.570  15.815  0.00  0.00    +0.000 A 
ATOM     26  C   UNL     1       5.593   5.270  15.379  0.00  0.00    +0.000 A 
ATOM     27  C   UNL     1       5.018   4.189  16.043  0.00  0.00    +0.000 A 
ATOM     28  C   UNL     1       4.188   4.407  17.143  0.00  0.00    +0.000 A 
ENDBRANCH  11  23
TORSDOF 2
ENDMDL
MODEL 6
REMARK VINA RESULT:      -7.4      3.484     10.045
REMARK  Name = 
REMARK  3 active torsions:
REMARK  status: ('A' for Active; 'I' for Inactive)
REMARK    1  A    between atoms: C_1  and  N_2
REMARK    2  A    between atoms: N_2  and  C_22
REMARK    3  A    between atoms: C_11  and  C_12
REMARK                            x       y       z     vdW  Elec       q    Type
REMARK                         _______ _______ _______ _____ _____    ______ ____
ROOT
ATOM      1  C   UNL     1      -0.807  12.710  18.675  0.00  0.00    +0.000 C 
ATOM      2  N   UNL     1      -1.062  12.624  20.117  0.00  0.00    +0.000 N 
ATOM      3  C   UNL     1      -0.458  11.858  21.110  0.00  0.00    +0.000 C 
ATOM      4  O   UNL     1      -0.850  11.948  22.285  0.00  0.00    +0.000 OA
ATOM      5  N   UNL     1       0.524  10.917  20.837  0.00  0.00    +0.000 N 
ATOM      6  C   UNL     1       0.841   9.927  21.897  0.00  0.00    +0.000 C 
ATOM      7  C   UNL     1       0.710   8.458  21.395  0.00  0.00    +0.000 C 
ATOM      8  N   UNL     1       1.396   8.282  20.110  0.00  0.00    +0.000 N 
ATOM      9  C   UNL     1       2.081   7.172  19.732  0.00  0.00    +0.000 A 
ATOM     10  N   UNL     1       2.741   7.084  18.597  0.00  0.00    +0.000 NA
ATOM     11  C   UNL     1       3.374   5.849  18.496  0.00  0.00    +0.000 A 
ATOM     12  N   UNL     1       3.205   4.969  19.497  0.00  0.00    +0.000 NA
ATOM     13  S   UNL     1       2.244   5.706  20.633  0.00  0.00    +0.000 S 
ATOM     14  C   UNL     1       1.072   9.277  19.085  0.00  0.00    +0.000 C 
ATOM     15  C   UNL     1       1.359  10.664  19.661  0.00  0.00    +0.000 C 
ENDROOT
BRANCH   2  16
ATOM     16  C   UNL     1      -2.269  13.357  20.468  0.00  0.00    +0.000 A 
ATOM     17  C   UNL     1      -2.213  14.638  21.033  0.00  0.00    +0.000 A 
ATOM     18  C   UNL     1      -3.389  15.375  21.241  0.00  0.00    +0.000 A 
ATOM     19  C   UNL     1      -4.640  14.832  20.904  0.00  0.00    +0.000 A 
ATOM     20  C   UNL     1      -4.709  13.557  20.369  0.00  0.00    +0.000 A 
ATOM     21  C   UNL     1      -3.537  12.838  20.159  0.00  0.00    +0.000 A 
ATOM     22  F   UNL     1      -3.668  11.591  19.675  0.00  0.00    +0.000 F 
ENDBRANCH   2  16
BRANCH  11  23
ATOM     23  C   UNL     1       4.198   5.546  17.318  0.00  0.00    +0.000 A 
ATOM     24  C   UNL     1       4.493   4.223  16.966  0.00  0.00    +0.000 A 
ATOM     25  C   UNL     1       5.284   3.945  15.847  0.00  0.00    +0.000 A 
ATOM     26  C   UNL     1       5.784   4.989  15.070  0.00  0.00    +0.000 A 
ATOM     27  C   UNL     1       5.491   6.309  15.405  0.00  0.00    +0.000 A 
ATOM     28  C   UNL     1       4.700   6.587  16.521  0.00  0.00    +0.000 A 
ENDBRANCH  11  23
TORSDOF 2
ENDMDL
MODEL 7
REMARK VINA RESULT:      -7.3      3.163      9.864
REMARK  Name = 
REMARK  3 active torsions:
REMARK  status: ('A' for Active; 'I' for Inactive)
REMARK    1  A    between atoms: C_1  and  N_2
REMARK    2  A    between atoms: N_2  and  C_22
REMARK    3  A    between atoms: C_11  and  C_12
REMARK                            x       y       z     vdW  Elec       q    Type
REMARK                         _______ _______ _______ _____ _____    ______ ____
ROOT
ATOM      1  C   UNL     1      -1.321  11.500  23.010  0.00  0.00    +0.000 C 
ATOM      2  N   UNL     1      -1.429  12.353  21.821  0.00  0.00    +0.000 N 
ATOM      3  C   UNL     1      -1.206  12.080  20.474  0.00  0.00    +0.000 C 
ATOM      4  O   UNL     1      -1.356  12.977  19.628  0.00  0.00    +0.000 OA
ATOM      5  N   UNL     1      -0.733  10.855  20.027  0.00  0.00    +0.000 N 
ATOM      6  C   UNL     1      -0.205  10.786  18.640  0.00  0.00    +0.000 C 
ATOM      7  C   UNL     1       1.250  10.233  18.586  0.00  0.00    +0.000 C 
ATOM      8  N   UNL     1       1.375   9.014  19.395  0.00  0.00    +0.000 N 
ATOM      9  C   UNL     1       2.143   7.940  19.079  0.00  0.00    +0.000 A 
ATOM     10  N   UNL     1       2.171   6.838  19.798  0.00  0.00    +0.000 NA
ATOM     11  C   UNL     1       3.016   5.898  19.218  0.00  0.00    +0.000 A 
ATOM     12  N   UNL     1       3.663   6.241  18.091  0.00  0.00    +0.000 NA
ATOM     13  S   UNL     1       3.189   7.787  17.712  0.00  0.00    +0.000 S 
ATOM     14  C   UNL     1       0.839   9.105  20.754  0.00  0.00    +0.000 C 
ATOM     15  C   UNL     1      -0.625   9.539  20.660  0.00  0.00    +0.000 C 
ENDROOT
BRANCH   2  16
ATOM     16  C   UNL     1      -1.638  13.742  22.203  0.00  0.00    +0.000 A 
ATOM     17  C   UNL     1      -2.923  14.266  22.393  0.00  0.00    +0.000 A 
ATOM     18  C   UNL     1      -3.094  15.568  22.888  0.00  0.00    +0.000 A 
ATOM     19  C   UNL     1      -1.980  16.371  23.183  0.00  0.00    +0.000 A 
ATOM     20  C   UNL     1      -0.705  15.872  22.976  0.00  0.00    +0.000 A 
ATOM     21  C   UNL     1      -0.546  14.577  22.492  0.00  0.00    +0.000 A 
ATOM     22  F   UNL     1       0.713  14.160  22.274  0.00  0.00    +0.000 F 
ENDBRANCH   2  16
BRANCH  11  23
ATOM     23  C   UNL     1       3.173   4.576  19.838  0.00  0.00    +0.000 A 
ATOM     24  C   UNL     1       4.166   3.689  19.403  0.00  0.00    +0.000 A 
ATOM     25  C   UNL     1       4.304   2.430  19.996  0.00  0.00    +0.000 A 
ATOM     26  C   UNL     1       3.451   2.050  21.030  0.00  0.00    +0.000 A 
ATOM     27  C   UNL     1       2.464   2.926  21.478  0.00  0.00    +0.000 A 
ATOM     28  C   UNL     1       2.327   4.183  20.888  0.00  0.00    +0.000 A 
ENDBRANCH  11  23
TORSDOF 2
ENDMDL
MODEL 8
REMARK VINA RESULT:      -7.2      3.344      9.881
REMARK  Name = 
REMARK  3 active torsions:
REMARK  status: ('A' for Active; 'I' for Inactive)
REMARK    1  A    between atoms: C_1  and  N_2
REMARK    2  A    between atoms: N_2  and  C_22
REMARK    3  A    between atoms: C_11  and  C_12
REMARK                            x       y       z     vdW  Elec       q    Type
REMARK                         _______ _______ _______ _____ _____    ______ ____
ROOT
ATOM      1  C   UNL     1      -1.268  12.034  23.049  0.00  0.00    +0.000 C 
ATOM      2  N   UNL     1      -1.353  12.868  21.845  0.00  0.00    +0.000 N 
ATOM      3  C   UNL     1      -1.163  12.559  20.501  0.00  0.00    +0.000 C 
ATOM      4  O   UNL     1      -1.284  13.445  19.639  0.00  0.00    +0.000 OA
ATOM      5  N   UNL     1      -0.755  11.304  20.072  0.00  0.00    +0.000 N 
ATOM      6  C   UNL     1      -0.250  11.184  18.681  0.00  0.00    +0.000 C 
ATOM      7  C   UNL     1       1.176  10.562  18.618  0.00  0.00    +0.000 C 
ATOM      8  N   UNL     1       1.256   9.354  19.449  0.00  0.00    +0.000 N 
ATOM      9  C   UNL     1       1.969   8.239  19.145  0.00  0.00    +0.000 A 
ATOM     10  N   UNL     1       1.956   7.152  19.885  0.00  0.00    +0.000 NA
ATOM     11  C   UNL     1       2.747   6.162  19.312  0.00  0.00    +0.000 A 
ATOM     12  N   UNL     1       3.394   6.453  18.171  0.00  0.00    +0.000 NA
ATOM     13  S   UNL     1       2.986   8.011  17.766  0.00  0.00    +0.000 S 
ATOM     14  C   UNL     1       0.744   9.497  20.814  0.00  0.00    +0.000 C 
ATOM     15  C   UNL     1      -0.698   9.998  20.730  0.00  0.00    +0.000 C 
ENDROOT
BRANCH   2  16
ATOM     16  C   UNL     1      -1.492  14.272  22.203  0.00  0.00    +0.000 A 
ATOM     17  C   UNL     1      -0.375  15.083  22.441  0.00  0.00    +0.000 A 
ATOM     18  C   UNL     1      -0.530  16.462  22.655  0.00  0.00    +0.000 A 
ATOM     19  C   UNL     1      -1.807  17.045  22.652  0.00  0.00    +0.000 A 
ATOM     20  C   UNL     1      -2.921  16.248  22.442  0.00  0.00    +0.000 A 
ATOM     21  C   UNL     1      -2.756  14.884  22.223  0.00  0.00    +0.000 A 
ATOM     22  F   UNL     1      -3.874  14.155  22.064  0.00  0.00    +0.000 F 
ENDBRANCH   2  16
BRANCH  11  23
ATOM     23  C   UNL     1       2.852   4.846  19.957  0.00  0.00    +0.000 A 
ATOM     24  C   UNL     1       3.773   3.893  19.505  0.00  0.00    +0.000 A 
ATOM     25  C   UNL     1       3.861   2.641  20.121  0.00  0.00    +0.000 A 
ATOM     26  C   UNL     1       3.029   2.334  21.196  0.00  0.00    +0.000 A 
ATOM     27  C   UNL     1       2.113   3.277  21.661  0.00  0.00    +0.000 A 
ATOM     28  C   UNL     1       2.027   4.527  21.047  0.00  0.00    +0.000 A 
ENDBRANCH  11  23
TORSDOF 2
ENDMDL
MODEL 9
REMARK VINA RESULT:      -7.2      3.498      9.977
REMARK  Name = 
REMARK  3 active torsions:
REMARK  status: ('A' for Active; 'I' for Inactive)
REMARK    1  A    between atoms: C_1  and  N_2
REMARK    2  A    between atoms: N_2  and  C_22
REMARK    3  A    between atoms: C_11  and  C_12
REMARK                            x       y       z     vdW  Elec       q    Type
REMARK                         _______ _______ _______ _____ _____    ______ ____
ROOT
ATOM      1  C   UNL     1      -0.603  12.042  18.514  0.00  0.00    +0.000 C 
ATOM      2  N   UNL     1      -1.058  11.855  19.896  0.00  0.00    +0.000 N 
ATOM      3  C   UNL     1      -0.553  11.071  20.930  0.00  0.00    +0.000 C 
ATOM      4  O   UNL     1      -1.119  11.066  22.035  0.00  0.00    +0.000 OA
ATOM      5  N   UNL     1       0.522  10.212  20.760  0.00  0.00    +0.000 N 
ATOM      6  C   UNL     1       0.751   9.182  21.806  0.00  0.00    +0.000 C 
ATOM      7  C   UNL     1       0.799   7.741  21.219  0.00  0.00    +0.000 C 
ATOM      8  N   UNL     1       1.676   7.684  20.043  0.00  0.00    +0.000 N 
ATOM      9  C   UNL     1       2.486   6.644  19.718  0.00  0.00    +0.000 A 
ATOM     10  N   UNL     1       3.310   6.665  18.692  0.00  0.00    +0.000 NA
ATOM     11  C   UNL     1       4.037   5.481  18.626  0.00  0.00    +0.000 A 
ATOM     12  N   UNL     1       3.787   4.534  19.546  0.00  0.00    +0.000 NA
ATOM     13  S   UNL     1       2.620   5.140  20.560  0.00  0.00    +0.000 S 
ATOM     14  C   UNL     1       1.436   8.716  19.031  0.00  0.00    +0.000 C 
ATOM     15  C   UNL     1       1.536  10.082  19.712  0.00  0.00    +0.000 C 
ENDROOT
BRANCH   2  16
ATOM     16  C   UNL     1      -2.353  12.488  20.098  0.00  0.00    +0.000 A 
ATOM     17  C   UNL     1      -2.495  13.636  20.890  0.00  0.00    +0.000 A 
ATOM     18  C   UNL     1      -3.728  14.302  20.962  0.00  0.00    +0.000 A 
ATOM     19  C   UNL     1      -4.843  13.817  20.259  0.00  0.00    +0.000 A 
ATOM     20  C   UNL     1      -4.721  12.669  19.494  0.00  0.00    +0.000 A 
ATOM     21  C   UNL     1      -3.492  12.021  19.421  0.00  0.00    +0.000 A 
ATOM     22  F   UNL     1      -3.443  10.891  18.696  0.00  0.00    +0.000 F 
ENDBRANCH   2  16
BRANCH  11  23
ATOM     23  C   UNL     1       5.043   5.301  17.572  0.00  0.00    +0.000 A 
ATOM     24  C   UNL     1       4.764   5.642  16.242  0.00  0.00    +0.000 A 
ATOM     25  C   UNL     1       5.727   5.461  15.245  0.00  0.00    +0.000 A 
ATOM     26  C   UNL     1       6.978   4.938  15.570  0.00  0.00    +0.000 A 
ATOM     27  C   UNL     1       7.271   4.602  16.891  0.00  0.00    +0.000 A 
ATOM     28  C   UNL     1       6.311   4.785  17.886  0.00  0.00    +0.000 A 
ENDBRANCH  11  23
TORSDOF 2
ENDMDL
