MODEL 1
REMARK VINA RESULT:      -7.4      0.000      0.000
REMARK  Name = 
REMARK  10 active torsions:
REMARK  status: ('A' for Active; 'I' for Inactive)
REMARK    1  A    between atoms: C_1  and  O_2
REMARK    2  A    between atoms: O_2  and  C_3
REMARK    3  A    between atoms: C_3  and  C_4
REMARK    4  A    between atoms: C_4  and  N_5
REMARK    5  A    between atoms: N_5  and  C_6
REMARK    6  A    between atoms: C_9  and  C_10
REMARK    7  A    between atoms: N_15  and  C_16
REMARK    8  A    between atoms: N_20  and  C_21
REMARK    9  A    between atoms: N_24  and  C_25
REMARK   10  A    between atoms: C_32  and  C_33
REMARK                            x       y       z     vdW  Elec       q    Type
REMARK                         _______ _______ _______ _____ _____    ______ ____
ROOT
ATOM      1  C   UNL     1       2.017   8.165  18.900  0.00  0.00    +0.000 A 
ATOM      2  C   UNL     1       1.745   8.869  17.742  0.00  0.00    +0.000 A 
ATOM      3  C   UNL     1       1.060  10.038  17.900  0.00  0.00    +0.000 A 
ATOM      4  N   UNL     1       0.658  10.481  19.092  0.00  0.00    +0.000 NA
ATOM      5  C   UNL     1       0.941   9.750  20.178  0.00  0.00    +0.000 A 
ATOM      6  N   UNL     1       0.495  10.173  21.431  0.00  0.00    +0.000 N 
ATOM      7  N   UNL     1       1.637   8.612  20.124  0.00  0.00    +0.000 NA
ATOM      8  H   UNL     1       0.845   9.566  22.157  0.00  0.00    +0.000 HD
ENDROOT
BRANCH   6   9
ATOM      9  C   UNL     1      -0.652  10.919  21.737  0.00  0.00    +0.000 A 
ATOM     10  C   UNL     1      -1.155  10.937  23.034  0.00  0.00    +0.000 A 
ATOM     11  C   UNL     1      -2.282  11.710  23.339  0.00  0.00    +0.000 A 
ATOM     12  C   UNL     1      -2.884  12.486  22.352  0.00  0.00    +0.000 A 
ATOM     13  N   UNL     1      -3.938  13.310  22.696  0.00  0.00    +0.000 N 
ATOM     14  N   UNL     1      -2.393  12.519  21.107  0.00  0.00    +0.000 NA
ATOM     15  C   UNL     1      -1.311  11.750  20.832  0.00  0.00    +0.000 A 
ATOM     16  H   UNL     1      -4.644  12.918  23.301  0.00  0.00    +0.000 HD
BRANCH  13  17
ATOM     17  C   UNL     1      -4.299  14.449  21.856  0.00  0.00    +0.000 C 
ATOM     18  C   UNL     1      -3.692  15.687  22.516  0.00  0.00    +0.000 C 
ATOM     19  C   UNL     1      -4.196  16.979  21.891  0.00  0.00    +0.000 C 
ATOM     20  N   UNL     1      -5.663  17.033  21.909  0.00  0.00    +0.000 NA
ATOM     21  C   UNL     1      -6.125  18.318  21.386  0.00  0.00    +0.000 C 
ATOM     22  C   UNL     1      -6.231  15.919  21.138  0.00  0.00    +0.000 C 
ATOM     23  C   UNL     1      -5.821  14.570  21.734  0.00  0.00    +0.000 C 
ENDBRANCH  13  17
ENDBRANCH   6   9
BRANCH   1  27
ATOM     24  C   UNL     1       4.029   4.413  18.799  0.00  0.00    +0.000 A 
ATOM     25  N   UNL     1       3.340   4.785  19.903  0.00  0.00    +0.000 NA
ATOM     26  C   UNL     1       2.753   6.000  19.927  0.00  0.00    +0.000 A 
ATOM     27  C   UNL     1       2.791   6.919  18.886  0.00  0.00    +0.000 A 
ATOM     28  C   UNL     1       3.579   6.554  17.790  0.00  0.00    +0.000 A 
ATOM     29  C   UNL     1       4.210   5.305  17.742  0.00  0.00    +0.000 A 
BRANCH  24  30
ATOM     30  N   UNL     1       4.580   3.119  18.772  0.00  0.00    +0.000 N 
ATOM     31  H   UNL     1       5.121   2.977  17.918  0.00  0.00    +0.000 HD
BRANCH  30  32
ATOM     32  C   UNL     1       3.568   2.047  18.826  0.00  0.00    +0.000 C 
BRANCH  32  33
ATOM     33  C   UNL     1       2.642   2.094  17.596  0.00  0.00    +0.000 C 
BRANCH  33  35
ATOM     34  C   UNL     1       1.100   2.142  19.385  0.00  0.00    +0.000 C 
ATOM     35  O   UNL     1       1.326   2.479  18.022  0.00  0.00    +0.000 OA
ENDBRANCH  33  35
ENDBRANCH  32  33
ENDBRANCH  30  32
ENDBRANCH  24  30
BRANCH  29  36
ATOM     36  C   UNL     1       4.925   4.945  16.557  0.00  0.00    +0.000 C 
ATOM     37  N   UNL     1       5.491   4.703  15.576  0.00  0.00    +0.000 NA
ENDBRANCH  29  36
ENDBRANCH   1  27
TORSDOF 8
ENDMDL
MODEL 2
REMARK VINA RESULT:      -7.3      3.258      4.422
REMARK  Name = 
REMARK  10 active torsions:
REMARK  status: ('A' for Active; 'I' for Inactive)
REMARK    1  A    between atoms: C_1  and  O_2
REMARK    2  A    between atoms: O_2  and  C_3
REMARK    3  A    between atoms: C_3  and  C_4
REMARK    4  A    between atoms: C_4  and  N_5
REMARK    5  A    between atoms: N_5  and  C_6
REMARK    6  A    between atoms: C_9  and  C_10
REMARK    7  A    between atoms: N_15  and  C_16
REMARK    8  A    between atoms: N_20  and  C_21
REMARK    9  A    between atoms: N_24  and  C_25
REMARK   10  A    between atoms: C_32  and  C_33
REMARK                            x       y       z     vdW  Elec       q    Type
REMARK                         _______ _______ _______ _____ _____    ______ ____
ROOT
ATOM      1  C   UNL     1       2.390   7.312  19.044  0.00  0.00    +0.000 A 
ATOM      2  C   UNL     1       1.917   6.972  20.299  0.00  0.00    +0.000 A 
ATOM      3  C   UNL     1       1.126   7.899  20.912  0.00  0.00    +0.000 A 
ATOM      4  N   UNL     1       0.830   9.074  20.353  0.00  0.00    +0.000 NA
ATOM      5  C   UNL     1       1.326   9.353  19.142  0.00  0.00    +0.000 A 
ATOM      6  N   UNL     1       1.062  10.592  18.555  0.00  0.00    +0.000 N 
ATOM      7  N   UNL     1       2.079   8.493  18.451  0.00  0.00    +0.000 NA
ATOM      8  H   UNL     1       1.436  10.629  17.620  0.00  0.00    +0.000 HD
ENDROOT
BRANCH   6   9
ATOM      9  C   UNL     1       0.839  11.821  19.191  0.00  0.00    +0.000 A 
ATOM     10  C   UNL     1      -0.001  12.769  18.616  0.00  0.00    +0.000 A 
ATOM     11  C   UNL     1      -0.245  13.982  19.272  0.00  0.00    +0.000 A 
ATOM     12  C   UNL     1       0.330  14.230  20.516  0.00  0.00    +0.000 A 
ATOM     13  N   UNL     1       0.005  15.393  21.186  0.00  0.00    +0.000 N 
ATOM     14  N   UNL     1       1.108  13.316  21.110  0.00  0.00    +0.000 NA
ATOM     15  C   UNL     1       1.342  12.157  20.448  0.00  0.00    +0.000 A 
ATOM     16  H   UNL     1      -0.014  16.243  20.642  0.00  0.00    +0.000 HD
BRANCH  13  17
ATOM     17  C   UNL     1       0.192  15.499  22.631  0.00  0.00    +0.000 C 
ATOM     18  C   UNL     1      -1.114  15.029  23.275  0.00  0.00    +0.000 C 
ATOM     19  C   UNL     1      -1.158  15.321  24.767  0.00  0.00    +0.000 C 
ATOM     20  N   UNL     1      -0.917  16.745  25.030  0.00  0.00    +0.000 NA
ATOM     21  C   UNL     1      -1.051  17.021  26.460  0.00  0.00    +0.000 C 
ATOM     22  C   UNL     1       0.409  17.145  24.542  0.00  0.00    +0.000 C 
ATOM     23  C   UNL     1       0.524  16.939  23.029  0.00  0.00    +0.000 C 
ENDBRANCH  13  17
ENDBRANCH   6   9
BRANCH   1  27
ATOM     24  C   UNL     1       4.963   4.669  16.919  0.00  0.00    +0.000 A 
ATOM     25  N   UNL     1       5.108   6.008  16.788  0.00  0.00    +0.000 NA
ATOM     26  C   UNL     1       4.246   6.822  17.434  0.00  0.00    +0.000 A 
ATOM     27  C   UNL     1       3.207   6.391  18.248  0.00  0.00    +0.000 A 
ATOM     28  C   UNL     1       3.019   5.006  18.301  0.00  0.00    +0.000 A 
ATOM     29  C   UNL     1       3.889   4.137  17.632  0.00  0.00    +0.000 A 
BRANCH  24  30
ATOM     30  N   UNL     1       5.909   3.841  16.286  0.00  0.00    +0.000 N 
ATOM     31  H   UNL     1       6.857   4.172  16.472  0.00  0.00    +0.000 HD
BRANCH  30  32
ATOM     32  C   UNL     1       5.753   3.780  14.820  0.00  0.00    +0.000 C 
BRANCH  32  33
ATOM     33  C   UNL     1       6.856   4.585  14.109  0.00  0.00    +0.000 C 
BRANCH  33  35
ATOM     34  C   UNL     1       5.838   3.379  12.351  0.00  0.00    +0.000 C 
ATOM     35  O   UNL     1       6.995   4.093  12.767  0.00  0.00    +0.000 OA
ENDBRANCH  33  35
ENDBRANCH  32  33
ENDBRANCH  30  32
ENDBRANCH  24  30
BRANCH  29  36
ATOM     36  C   UNL     1       3.709   2.728  17.798  0.00  0.00    +0.000 C 
ATOM     37  N   UNL     1       3.552   1.596  17.985  0.00  0.00    +0.000 NA
ENDBRANCH  29  36
ENDBRANCH   1  27
TORSDOF 8
ENDMDL
MODEL 3
REMARK VINA RESULT:      -7.2      2.606      3.889
REMARK  Name = 
REMARK  10 active torsions:
REMARK  status: ('A' for Active; 'I' for Inactive)
REMARK    1  A    between atoms: C_1  and  O_2
REMARK    2  A    between atoms: O_2  and  C_3
REMARK    3  A    between atoms: C_3  and  C_4
REMARK    4  A    between atoms: C_4  and  N_5
REMARK    5  A    between atoms: N_5  and  C_6
REMARK    6  A    between atoms: C_9  and  C_10
REMARK    7  A    between atoms: N_15  and  C_16
REMARK    8  A    between atoms: N_20  and  C_21
REMARK    9  A    between atoms: N_24  and  C_25
REMARK   10  A    between atoms: C_32  and  C_33
REMARK                            x       y       z     vdW  Elec       q    Type
REMARK                         _______ _______ _______ _____ _____    ______ ____
ROOT
ATOM      1  C   UNL     1       2.526   7.438  18.781  0.00  0.00    +0.000 A 
ATOM      2  C   UNL     1       2.213   7.199  20.107  0.00  0.00    +0.000 A 
ATOM      3  C   UNL     1       1.402   8.118  20.705  0.00  0.00    +0.000 A 
ATOM      4  N   UNL     1       0.942   9.196  20.066  0.00  0.00    +0.000 NA
ATOM      5  C   UNL     1       1.288   9.380  18.786  0.00  0.00    +0.000 A 
ATOM      6  N   UNL     1       0.852  10.520  18.109  0.00  0.00    +0.000 N 
ATOM      7  N   UNL     1       2.048   8.516  18.109  0.00  0.00    +0.000 NA
ATOM      8  H   UNL     1       1.127  10.486  17.140  0.00  0.00    +0.000 HD
ENDROOT
BRANCH   6   9
ATOM      9  C   UNL     1       0.577  11.790  18.637  0.00  0.00    +0.000 A 
ATOM     10  C   UNL     1       1.534  12.798  18.580  0.00  0.00    +0.000 A 
ATOM     11  C   UNL     1       1.241  14.073  19.080  0.00  0.00    +0.000 A 
ATOM     12  C   UNL     1      -0.019  14.342  19.609  0.00  0.00    +0.000 A 
ATOM     13  N   UNL     1      -0.317  15.629  20.013  0.00  0.00    +0.000 N 
ATOM     14  N   UNL     1      -0.970  13.401  19.636  0.00  0.00    +0.000 NA
ATOM     15  C   UNL     1      -0.658  12.170  19.161  0.00  0.00    +0.000 A 
ATOM     16  H   UNL     1       0.389  16.114  20.547  0.00  0.00    +0.000 HD
BRANCH  13  17
ATOM     17  C   UNL     1      -1.703  16.071  20.136  0.00  0.00    +0.000 C 
ATOM     18  C   UNL     1      -1.707  17.576  19.862  0.00  0.00    +0.000 C 
ATOM     19  C   UNL     1      -3.043  18.220  20.201  0.00  0.00    +0.000 C 
ATOM     20  N   UNL     1      -3.428  17.930  21.587  0.00  0.00    +0.000 NA
ATOM     21  C   UNL     1      -4.668  18.630  21.920  0.00  0.00    +0.000 C 
ATOM     22  C   UNL     1      -3.571  16.483  21.794  0.00  0.00    +0.000 C 
ATOM     23  C   UNL     1      -2.251  15.756  21.531  0.00  0.00    +0.000 C 
ENDBRANCH  13  17
ENDBRANCH   6   9
BRANCH   1  27
ATOM     24  C   UNL     1       5.105   4.769  16.694  0.00  0.00    +0.000 A 
ATOM     25  N   UNL     1       5.241   6.106  16.537  0.00  0.00    +0.000 NA
ATOM     26  C   UNL     1       4.378   6.927  17.172  0.00  0.00    +0.000 A 
ATOM     27  C   UNL     1       3.345   6.506  17.999  0.00  0.00    +0.000 A 
ATOM     28  C   UNL     1       3.166   5.122  18.080  0.00  0.00    +0.000 A 
ATOM     29  C   UNL     1       4.038   4.245  17.424  0.00  0.00    +0.000 A 
BRANCH  24  30
ATOM     30  N   UNL     1       6.053   3.934  16.073  0.00  0.00    +0.000 N 
ATOM     31  H   UNL     1       6.999   4.285  16.233  0.00  0.00    +0.000 HD
BRANCH  30  32
ATOM     32  C   UNL     1       5.874   3.824  14.613  0.00  0.00    +0.000 C 
BRANCH  32  33
ATOM     33  C   UNL     1       7.057   4.457  13.858  0.00  0.00    +0.000 C 
BRANCH  33  35
ATOM     34  C   UNL     1       5.870   3.237  12.219  0.00  0.00    +0.000 C 
ATOM     35  O   UNL     1       6.926   4.160  12.459  0.00  0.00    +0.000 OA
ENDBRANCH  33  35
ENDBRANCH  32  33
ENDBRANCH  30  32
ENDBRANCH  24  30
BRANCH  29  36
ATOM     36  C   UNL     1       3.867   2.838  17.617  0.00  0.00    +0.000 C 
ATOM     37  N   UNL     1       3.677   1.709  17.790  0.00  0.00    +0.000 NA
ENDBRANCH  29  36
ENDBRANCH   1  27
TORSDOF 8
ENDMDL
MODEL 4
REMARK VINA RESULT:      -7.2      1.359      1.460
REMARK  Name = 
REMARK  10 active torsions:
REMARK  status: ('A' for Active; 'I' for Inactive)
REMARK    1  A    between atoms: C_1  and  O_2
REMARK    2  A    between atoms: O_2  and  C_3
REMARK    3  A    between atoms: C_3  and  C_4
REMARK    4  A    between atoms: C_4  and  N_5
REMARK    5  A    between atoms: N_5  and  C_6
REMARK    6  A    between atoms: C_9  and  C_10
REMARK    7  A    between atoms: N_15  and  C_16
REMARK    8  A    between atoms: N_20  and  C_21
REMARK    9  A    between atoms: N_24  and  C_25
REMARK   10  A    between atoms: C_32  and  C_33
REMARK                            x       y       z     vdW  Elec       q    Type
REMARK                         _______ _______ _______ _____ _____    ______ ____
ROOT
ATOM      1  C   UNL     1       1.299   8.985  18.879  0.00  0.00    +0.000 A 
ATOM      2  C   UNL     1       0.603   9.408  17.761  0.00  0.00    +0.000 A 
ATOM      3  C   UNL     1      -0.267  10.441  17.953  0.00  0.00    +0.000 A 
ATOM      4  N   UNL     1      -0.455  11.010  19.145  0.00  0.00    +0.000 NA
ATOM      5  C   UNL     1       0.239  10.551  20.194  0.00  0.00    +0.000 A 
ATOM      6  N   UNL     1       0.028  11.104  21.458  0.00  0.00    +0.000 N 
ATOM      7  N   UNL     1       1.138   9.568  20.094  0.00  0.00    +0.000 NA
ATOM      8  H   UNL     1       0.670  10.711  22.130  0.00  0.00    +0.000 HD
ENDROOT
BRANCH   6   9
ATOM      9  C   UNL     1      -1.147  11.669  21.972  0.00  0.00    +0.000 A 
ATOM     10  C   UNL     1      -1.631  11.279  23.216  0.00  0.00    +0.000 A 
ATOM     11  C   UNL     1      -2.788  11.872  23.737  0.00  0.00    +0.000 A 
ATOM     12  C   UNL     1      -3.439  12.876  23.024  0.00  0.00    +0.000 A 
ATOM     13  N   UNL     1      -4.524  13.509  23.597  0.00  0.00    +0.000 N 
ATOM     14  N   UNL     1      -2.969  13.299  21.845  0.00  0.00    +0.000 NA
ATOM     15  C   UNL     1      -1.857  12.699  21.354  0.00  0.00    +0.000 A 
ATOM     16  H   UNL     1      -5.203  12.923  24.060  0.00  0.00    +0.000 HD
BRANCH  13  17
ATOM     17  C   UNL     1      -4.950  14.827  23.132  0.00  0.00    +0.000 C 
ATOM     18  C   UNL     1      -4.635  15.810  24.261  0.00  0.00    +0.000 C 
ATOM     19  C   UNL     1      -5.252  17.179  24.021  0.00  0.00    +0.000 C 
ATOM     20  N   UNL     1      -6.699  17.071  23.798  0.00  0.00    +0.000 NA
ATOM     21  C   UNL     1      -7.286  18.403  23.659  0.00  0.00    +0.000 C 
ATOM     22  C   UNL     1      -6.981  16.247  22.615  0.00  0.00    +0.000 C 
ATOM     23  C   UNL     1      -6.443  14.825  22.793  0.00  0.00    +0.000 C 
ENDBRANCH  13  17
ENDBRANCH   6   9
BRANCH   1  27
ATOM     24  C   UNL     1       4.019   5.722  18.590  0.00  0.00    +0.000 A 
ATOM     25  N   UNL     1       3.223   5.848  19.677  0.00  0.00    +0.000 NA
ATOM     26  C   UNL     1       2.406   6.919  19.766  0.00  0.00    +0.000 A 
ATOM     27  C   UNL     1       2.305   7.920  18.809  0.00  0.00    +0.000 A 
ATOM     28  C   UNL     1       3.196   7.819  17.735  0.00  0.00    +0.000 A 
ATOM     29  C   UNL     1       4.064   6.726  17.622  0.00  0.00    +0.000 A 
BRANCH  24  30
ATOM     30  N   UNL     1       4.817   4.567  18.490  0.00  0.00    +0.000 N 
ATOM     31  H   UNL     1       5.612   4.733  17.871  0.00  0.00    +0.000 HD
BRANCH  30  32
ATOM     32  C   UNL     1       4.093   3.395  17.959  0.00  0.00    +0.000 C 
BRANCH  32  33
ATOM     33  C   UNL     1       3.827   2.358  19.065  0.00  0.00    +0.000 C 
BRANCH  33  35
ATOM     34  C   UNL     1       1.684   2.843  18.195  0.00  0.00    +0.000 C 
ATOM     35  O   UNL     1       2.450   1.955  19.000  0.00  0.00    +0.000 OA
ENDBRANCH  33  35
ENDBRANCH  32  33
ENDBRANCH  30  32
ENDBRANCH  24  30
BRANCH  29  36
ATOM     36  C   UNL     1       4.887   6.622  16.457  0.00  0.00    +0.000 C 
ATOM     37  N   UNL     1       5.598   6.542  15.547  0.00  0.00    +0.000 NA
ENDBRANCH  29  36
ENDBRANCH   1  27
TORSDOF 8
ENDMDL
MODEL 5
REMARK VINA RESULT:      -7.1      3.624      4.906
REMARK  Name = 
REMARK  10 active torsions:
REMARK  status: ('A' for Active; 'I' for Inactive)
REMARK    1  A    between atoms: C_1  and  O_2
REMARK    2  A    between atoms: O_2  and  C_3
REMARK    3  A    between atoms: C_3  and  C_4
REMARK    4  A    between atoms: C_4  and  N_5
REMARK    5  A    between atoms: N_5  and  C_6
REMARK    6  A    between atoms: C_9  and  C_10
REMARK    7  A    between atoms: N_15  and  C_16
REMARK    8  A    between atoms: N_20  and  C_21
REMARK    9  A    between atoms: N_24  and  C_25
REMARK   10  A    between atoms: C_32  and  C_33
REMARK                            x       y       z     vdW  Elec       q    Type
REMARK                         _______ _______ _______ _____ _____    ______ ____
ROOT
ATOM      1  C   UNL     1       2.490   7.463  18.771  0.00  0.00    +0.000 A 
ATOM      2  C   UNL     1       2.122   7.254  20.088  0.00  0.00    +0.000 A 
ATOM      3  C   UNL     1       1.323   8.210  20.644  0.00  0.00    +0.000 A 
ATOM      4  N   UNL     1       0.924   9.293  19.975  0.00  0.00    +0.000 NA
ATOM      5  C   UNL     1       1.322   9.447  18.705  0.00  0.00    +0.000 A 
ATOM      6  N   UNL     1       0.950  10.592  17.999  0.00  0.00    +0.000 N 
ATOM      7  N   UNL     1       2.074   8.547  18.067  0.00  0.00    +0.000 NA
ATOM      8  H   UNL     1       1.257  10.533  17.040  0.00  0.00    +0.000 HD
ENDROOT
BRANCH   6   9
ATOM      9  C   UNL     1       0.701  11.877  18.500  0.00  0.00    +0.000 A 
ATOM     10  C   UNL     1      -0.576  12.235  18.918  0.00  0.00    +0.000 A 
ATOM     11  C   UNL     1      -0.810  13.510  19.448  0.00  0.00    +0.000 A 
ATOM     12  C   UNL     1       0.242  14.412  19.585  0.00  0.00    +0.000 A 
ATOM     13  N   UNL     1       0.007  15.630  20.193  0.00  0.00    +0.000 N 
ATOM     14  N   UNL     1       1.488  14.076  19.230  0.00  0.00    +0.000 NA
ATOM     15  C   UNL     1       1.687  12.842  18.705  0.00  0.00    +0.000 A 
ATOM     16  H   UNL     1      -0.831  16.121  19.921  0.00  0.00    +0.000 HD
BRANCH  13  17
ATOM     17  C   UNL     1       1.106  16.401  20.769  0.00  0.00    +0.000 C 
ATOM     18  C   UNL     1       1.500  15.696  22.068  0.00  0.00    +0.000 C 
ATOM     19  C   UNL     1       2.462  16.525  22.904  0.00  0.00    +0.000 C 
ATOM     20  N   UNL     1       1.912  17.860  23.168  0.00  0.00    +0.000 NA
ATOM     21  C   UNL     1       2.810  18.609  24.046  0.00  0.00    +0.000 C 
ATOM     22  C   UNL     1       1.683  18.585  21.911  0.00  0.00    +0.000 C 
ATOM     23  C   UNL     1       0.676  17.848  21.026  0.00  0.00    +0.000 C 
ENDBRANCH  13  17
ENDBRANCH   6   9
BRANCH   1  27
ATOM     24  C   UNL     1       5.046   4.679  16.810  0.00  0.00    +0.000 A 
ATOM     25  N   UNL     1       5.221   6.008  16.625  0.00  0.00    +0.000 NA
ATOM     26  C   UNL     1       4.365   6.866  17.219  0.00  0.00    +0.000 A 
ATOM     27  C   UNL     1       3.302   6.492  18.030  0.00  0.00    +0.000 A 
ATOM     28  C   UNL     1       3.084   5.115  18.139  0.00  0.00    +0.000 A 
ATOM     29  C   UNL     1       3.948   4.200  17.525  0.00  0.00    +0.000 A 
BRANCH  24  30
ATOM     30  N   UNL     1       5.986   3.806  16.232  0.00  0.00    +0.000 N 
ATOM     31  H   UNL     1       6.926   4.200  16.292  0.00  0.00    +0.000 HD
BRANCH  30  32
ATOM     32  C   UNL     1       5.727   3.520  14.807  0.00  0.00    +0.000 C 
BRANCH  32  33
ATOM     33  C   UNL     1       6.614   4.389  13.896  0.00  0.00    +0.000 C 
BRANCH  33  35
ATOM     34  C   UNL     1       5.512   3.302  12.111  0.00  0.00    +0.000 C 
ATOM     35  O   UNL     1       6.766   3.727  12.631  0.00  0.00    +0.000 OA
ENDBRANCH  33  35
ENDBRANCH  32  33
ENDBRANCH  30  32
ENDBRANCH  24  30
BRANCH  29  36
ATOM     36  C   UNL     1       3.736   2.803  17.747  0.00  0.00    +0.000 C 
ATOM     37  N   UNL     1       3.510   1.683  17.936  0.00  0.00    +0.000 NA
ENDBRANCH  29  36
ENDBRANCH   1  27
TORSDOF 8
ENDMDL
MODEL 6
REMARK VINA RESULT:      -7.1      3.956      5.471
REMARK  Name = 
REMARK  10 active torsions:
REMARK  status: ('A' for Active; 'I' for Inactive)
REMARK    1  A    between atoms: C_1  and  O_2
REMARK    2  A    between atoms: O_2  and  C_3
REMARK    3  A    between atoms: C_3  and  C_4
REMARK    4  A    between atoms: C_4  and  N_5
REMARK    5  A    between atoms: N_5  and  C_6
REMARK    6  A    between atoms: C_9  and  C_10
REMARK    7  A    between atoms: N_15  and  C_16
REMARK    8  A    between atoms: N_20  and  C_21
REMARK    9  A    between atoms: N_24  and  C_25
REMARK   10  A    between atoms: C_32  and  C_33
REMARK                            x       y       z     vdW  Elec       q    Type
REMARK                         _______ _______ _______ _____ _____    ______ ____
ROOT
ATOM      1  C   UNL     1       2.449   7.557  18.757  0.00  0.00    +0.000 A 
ATOM      2  C   UNL     1       2.027   7.372  20.061  0.00  0.00    +0.000 A 
ATOM      3  C   UNL     1       1.284   8.382  20.598  0.00  0.00    +0.000 A 
ATOM      4  N   UNL     1       0.987   9.494  19.924  0.00  0.00    +0.000 NA
ATOM      5  C   UNL     1       1.433   9.623  18.668  0.00  0.00    +0.000 A 
ATOM      6  N   UNL     1       1.169  10.794  17.957  0.00  0.00    +0.000 N 
ATOM      7  N   UNL     1       2.136   8.672  18.048  0.00  0.00    +0.000 NA
ATOM      8  H   UNL     1       1.500  10.717  17.008  0.00  0.00    +0.000 HD
ENDROOT
BRANCH   6   9
ATOM      9  C   UNL     1       1.001  12.093  18.458  0.00  0.00    +0.000 A 
ATOM     10  C   UNL     1      -0.274  12.623  18.627  0.00  0.00    +0.000 A 
ATOM     11  C   UNL     1      -0.435  13.908  19.159  0.00  0.00    +0.000 A 
ATOM     12  C   UNL     1       0.679  14.648  19.547  0.00  0.00    +0.000 A 
ATOM     13  N   UNL     1       0.493  15.875  20.152  0.00  0.00    +0.000 N 
ATOM     14  N   UNL     1       1.914  14.143  19.434  0.00  0.00    +0.000 NA
ATOM     15  C   UNL     1       2.046  12.903  18.902  0.00  0.00    +0.000 A 
ATOM     16  H   UNL     1      -0.196  16.487  19.741  0.00  0.00    +0.000 HD
BRANCH  13  17
ATOM     17  C   UNL     1       1.546  16.470  20.972  0.00  0.00    +0.000 C 
ATOM     18  C   UNL     1       2.610  16.990  20.005  0.00  0.00    +0.000 C 
ATOM     19  C   UNL     1       3.884  17.411  20.722  0.00  0.00    +0.000 C 
ATOM     20  N   UNL     1       4.406  16.317  21.549  0.00  0.00    +0.000 NA
ATOM     21  C   UNL     1       5.676  16.710  22.159  0.00  0.00    +0.000 C 
ATOM     22  C   UNL     1       3.429  15.931  22.576  0.00  0.00    +0.000 C 
ATOM     23  C   UNL     1       2.128  15.436  21.940  0.00  0.00    +0.000 C 
ENDBRANCH  13  17
ENDBRANCH   6   9
BRANCH   1  27
ATOM     24  C   UNL     1       4.854   4.604  16.855  0.00  0.00    +0.000 A 
ATOM     25  N   UNL     1       5.115   5.918  16.664  0.00  0.00    +0.000 NA
ATOM     26  C   UNL     1       4.306   6.833  17.239  0.00  0.00    +0.000 A 
ATOM     27  C   UNL     1       3.210   6.532  18.036  0.00  0.00    +0.000 A 
ATOM     28  C   UNL     1       2.904   5.172  18.151  0.00  0.00    +0.000 A 
ATOM     29  C   UNL     1       3.718   4.200  17.556  0.00  0.00    +0.000 A 
BRANCH  24  30
ATOM     30  N   UNL     1       5.746   3.669  16.297  0.00  0.00    +0.000 N 
ATOM     31  H   UNL     1       6.448   3.388  16.985  0.00  0.00    +0.000 HD
BRANCH  30  32
ATOM     32  C   UNL     1       6.475   4.179  15.120  0.00  0.00    +0.000 C 
BRANCH  32  33
ATOM     33  C   UNL     1       5.609   4.091  13.849  0.00  0.00    +0.000 C 
BRANCH  33  35
ATOM     34  C   UNL     1       5.762   2.767  11.898  0.00  0.00    +0.000 C 
ATOM     35  O   UNL     1       6.439   3.681  12.752  0.00  0.00    +0.000 OA
ENDBRANCH  33  35
ENDBRANCH  32  33
ENDBRANCH  30  32
ENDBRANCH  24  30
BRANCH  29  36
ATOM     36  C   UNL     1       3.415   2.821  17.784  0.00  0.00    +0.000 C 
ATOM     37  N   UNL     1       3.173   1.714  18.023  0.00  0.00    +0.000 NA
ENDBRANCH  29  36
ENDBRANCH   1  27
TORSDOF 8
ENDMDL
MODEL 7
REMARK VINA RESULT:      -7.1      3.328      4.328
REMARK  Name = 
REMARK  10 active torsions:
REMARK  status: ('A' for Active; 'I' for Inactive)
REMARK    1  A    between atoms: C_1  and  O_2
REMARK    2  A    between atoms: O_2  and  C_3
REMARK    3  A    between atoms: C_3  and  C_4
REMARK    4  A    between atoms: C_4  and  N_5
REMARK    5  A    between atoms: N_5  and  C_6
REMARK    6  A    between atoms: C_9  and  C_10
REMARK    7  A    between atoms: N_15  and  C_16
REMARK    8  A    between atoms: N_20  and  C_21
REMARK    9  A    between atoms: N_24  and  C_25
REMARK   10  A    between atoms: C_32  and  C_33
REMARK                            x       y       z     vdW  Elec       q    Type
REMARK                         _______ _______ _______ _____ _____    ______ ____
ROOT
ATOM      1  C   UNL     1       2.213   7.103  19.640  0.00  0.00    +0.000 A 
ATOM      2  C   UNL     1       1.556   6.834  20.827  0.00  0.00    +0.000 A 
ATOM      3  C   UNL     1       0.739   7.821  21.295  0.00  0.00    +0.000 A 
ATOM      4  N   UNL     1       0.584   8.987  20.665  0.00  0.00    +0.000 NA
ATOM      5  C   UNL     1       1.256   9.195  19.526  0.00  0.00    +0.000 A 
ATOM      6  N   UNL     1       1.141  10.422  18.870  0.00  0.00    +0.000 N 
ATOM      7  N   UNL     1       2.050   8.274  18.973  0.00  0.00    +0.000 NA
ATOM      8  H   UNL     1       1.640  10.405  17.994  0.00  0.00    +0.000 HD
ENDROOT
BRANCH   6   9
ATOM      9  C   UNL     1       0.899  11.684  19.430  0.00  0.00    +0.000 A 
ATOM     10  C   UNL     1       0.046  12.583  18.797  0.00  0.00    +0.000 A 
ATOM     11  C   UNL     1      -0.217  13.829  19.379  0.00  0.00    +0.000 A 
ATOM     12  C   UNL     1       0.351  14.161  20.606  0.00  0.00    +0.000 A 
ATOM     13  N   UNL     1       0.008  15.357  21.204  0.00  0.00    +0.000 N 
ATOM     14  N   UNL     1       1.141  13.296  21.255  0.00  0.00    +0.000 NA
ATOM     15  C   UNL     1       1.394  12.102  20.665  0.00  0.00    +0.000 A 
ATOM     16  H   UNL     1      -0.022  16.172  20.610  0.00  0.00    +0.000 HD
BRANCH  13  17
ATOM     17  C   UNL     1       0.190  15.553  22.640  0.00  0.00    +0.000 C 
ATOM     18  C   UNL     1      -1.102  15.083  23.311  0.00  0.00    +0.000 C 
ATOM     19  C   UNL     1      -1.156  15.460  24.784  0.00  0.00    +0.000 C 
ATOM     20  N   UNL     1      -0.958  16.903  24.964  0.00  0.00    +0.000 NA
ATOM     21  C   UNL     1      -1.102  17.258  26.375  0.00  0.00    +0.000 C 
ATOM     22  C   UNL     1       0.356  17.314  24.452  0.00  0.00    +0.000 C 
ATOM     23  C   UNL     1       0.479  17.023  22.954  0.00  0.00    +0.000 C 
ENDBRANCH  13  17
ENDBRANCH   6   9
BRANCH   1  27
ATOM     24  C   UNL     1       4.747   4.399  17.543  0.00  0.00    +0.000 A 
ATOM     25  N   UNL     1       3.418   4.424  17.285  0.00  0.00    +0.000 NA
ATOM     26  C   UNL     1       2.631   5.255  18.000  0.00  0.00    +0.000 A 
ATOM     27  C   UNL     1       3.082   6.114  18.994  0.00  0.00    +0.000 A 
ATOM     28  C   UNL     1       4.441   6.012  19.306  0.00  0.00    +0.000 A 
ATOM     29  C   UNL     1       5.280   5.150  18.590  0.00  0.00    +0.000 A 
BRANCH  24  30
ATOM     30  N   UNL     1       5.556   3.570  16.744  0.00  0.00    +0.000 N 
ATOM     31  H   UNL     1       6.499   3.508  17.132  0.00  0.00    +0.000 HD
BRANCH  30  32
ATOM     32  C   UNL     1       5.691   4.042  15.353  0.00  0.00    +0.000 C 
BRANCH  32  33
ATOM     33  C   UNL     1       7.047   4.738  15.132  0.00  0.00    +0.000 C 
BRANCH  33  35
ATOM     34  C   UNL     1       6.721   4.094  12.882  0.00  0.00    +0.000 C 
ATOM     35  O   UNL     1       7.144   5.134  13.755  0.00  0.00    +0.000 OA
ENDBRANCH  33  35
ENDBRANCH  32  33
ENDBRANCH  30  32
ENDBRANCH  24  30
BRANCH  29  36
ATOM     36  C   UNL     1       6.680   5.155  18.887  0.00  0.00    +0.000 C 
ATOM     37  N   UNL     1       7.815   5.211  19.109  0.00  0.00    +0.000 NA
ENDBRANCH  29  36
ENDBRANCH   1  27
TORSDOF 8
ENDMDL
MODEL 8
REMARK VINA RESULT:      -7.1      1.127      1.278
REMARK  Name = 
REMARK  10 active torsions:
REMARK  status: ('A' for Active; 'I' for Inactive)
REMARK    1  A    between atoms: C_1  and  O_2
REMARK    2  A    between atoms: O_2  and  C_3
REMARK    3  A    between atoms: C_3  and  C_4
REMARK    4  A    between atoms: C_4  and  N_5
REMARK    5  A    between atoms: N_5  and  C_6
REMARK    6  A    between atoms: C_9  and  C_10
REMARK    7  A    between atoms: N_15  and  C_16
REMARK    8  A    between atoms: N_20  and  C_21
REMARK    9  A    between atoms: N_24  and  C_25
REMARK   10  A    between atoms: C_32  and  C_33
REMARK                            x       y       z     vdW  Elec       q    Type
REMARK                         _______ _______ _______ _____ _____    ______ ____
ROOT
ATOM      1  C   UNL     1       2.099   8.025  18.739  0.00  0.00    +0.000 A 
ATOM      2  C   UNL     1       2.208   8.989  17.753  0.00  0.00    +0.000 A 
ATOM      3  C   UNL     1       1.717  10.222  18.066  0.00  0.00    +0.000 A 
ATOM      4  N   UNL     1       1.150  10.494  19.243  0.00  0.00    +0.000 NA
ATOM      5  C   UNL     1       1.062   9.517  20.154  0.00  0.00    +0.000 A 
ATOM      6  N   UNL     1       0.437   9.767  21.377  0.00  0.00    +0.000 N 
ATOM      7  N   UNL     1       1.547   8.290  19.950  0.00  0.00    +0.000 NA
ATOM      8  H   UNL     1       0.512   8.966  21.985  0.00  0.00    +0.000 HD
ENDROOT
BRANCH   6   9
ATOM      9  C   UNL     1      -0.604  10.666  21.650  0.00  0.00    +0.000 A 
ATOM     10  C   UNL     1      -1.029  10.874  22.958  0.00  0.00    +0.000 A 
ATOM     11  C   UNL     1      -2.046  11.798  23.228  0.00  0.00    +0.000 A 
ATOM     12  C   UNL     1      -2.614  12.532  22.190  0.00  0.00    +0.000 A 
ATOM     13  N   UNL     1      -3.551  13.502  22.489  0.00  0.00    +0.000 N 
ATOM     14  N   UNL     1      -2.192  12.382  20.929  0.00  0.00    +0.000 NA
ATOM     15  C   UNL     1      -1.218  11.470  20.690  0.00  0.00    +0.000 A 
ATOM     16  H   UNL     1      -4.261  13.258  23.163  0.00  0.00    +0.000 HD
BRANCH  13  17
ATOM     17  C   UNL     1      -3.833  14.583  21.547  0.00  0.00    +0.000 C 
ATOM     18  C   UNL     1      -3.325  15.870  22.198  0.00  0.00    +0.000 C 
ATOM     19  C   UNL     1      -3.775  17.113  21.444  0.00  0.00    +0.000 C 
ATOM     20  N   UNL     1      -5.235  17.134  21.292  0.00  0.00    +0.000 NA
ATOM     21  C   UNL     1      -5.655  18.376  20.646  0.00  0.00    +0.000 C 
ATOM     22  C   UNL     1      -5.694  15.965  20.529  0.00  0.00    +0.000 C 
ATOM     23  C   UNL     1      -5.332  14.662  21.247  0.00  0.00    +0.000 C 
ENDBRANCH  13  17
ENDBRANCH   6   9
BRANCH   1  27
ATOM     24  C   UNL     1       3.665   4.145  17.951  0.00  0.00    +0.000 A 
ATOM     25  N   UNL     1       2.353   4.404  17.739  0.00  0.00    +0.000 NA
ATOM     26  C   UNL     1       1.874   5.628  18.045  0.00  0.00    +0.000 A 
ATOM     27  C   UNL     1       2.632   6.670  18.561  0.00  0.00    +0.000 A 
ATOM     28  C   UNL     1       3.963   6.358  18.854  0.00  0.00    +0.000 A 
ATOM     29  C   UNL     1       4.487   5.094  18.559  0.00  0.00    +0.000 A 
BRANCH  24  30
ATOM     30  N   UNL     1       4.156   2.883  17.568  0.00  0.00    +0.000 N 
ATOM     31  H   UNL     1       3.929   2.691  16.590  0.00  0.00    +0.000 HD
BRANCH  30  32
ATOM     32  C   UNL     1       3.606   1.770  18.365  0.00  0.00    +0.000 C 
BRANCH  32  33
ATOM     33  C   UNL     1       3.366   2.197  19.825  0.00  0.00    +0.000 C 
BRANCH  33  35
ATOM     34  C   UNL     1       1.640   2.632  21.379  0.00  0.00    +0.000 C 
ATOM     35  O   UNL     1       1.972   2.035  20.131  0.00  0.00    +0.000 OA
ENDBRANCH  33  35
ENDBRANCH  32  33
ENDBRANCH  30  32
ENDBRANCH  24  30
BRANCH  29  36
ATOM     36  C   UNL     1       5.878   4.858  18.791  0.00  0.00    +0.000 C 
ATOM     37  N   UNL     1       7.010   4.656  18.924  0.00  0.00    +0.000 NA
ENDBRANCH  29  36
ENDBRANCH   1  27
TORSDOF 8
ENDMDL
MODEL 9
REMARK VINA RESULT:      -7.0      1.668      2.342
REMARK  Name = 
REMARK  10 active torsions:
REMARK  status: ('A' for Active; 'I' for Inactive)
REMARK    1  A    between atoms: C_1  and  O_2
REMARK    2  A    between atoms: O_2  and  C_3
REMARK    3  A    between atoms: C_3  and  C_4
REMARK    4  A    between atoms: C_4  and  N_5
REMARK    5  A    between atoms: N_5  and  C_6
REMARK    6  A    between atoms: C_9  and  C_10
REMARK    7  A    between atoms: N_15  and  C_16
REMARK    8  A    between atoms: N_20  and  C_21
REMARK    9  A    between atoms: N_24  and  C_25
REMARK   10  A    between atoms: C_32  and  C_33
REMARK                            x       y       z     vdW  Elec       q    Type
REMARK                         _______ _______ _______ _____ _____    ______ ____
ROOT
ATOM      1  C   UNL     1       1.337   9.044  18.807  0.00  0.00    +0.000 A 
ATOM      2  C   UNL     1       0.455   9.322  17.779  0.00  0.00    +0.000 A 
ATOM      3  C   UNL     1      -0.331  10.424  17.947  0.00  0.00    +0.000 A 
ATOM      4  N   UNL     1      -0.273  11.189  19.039  0.00  0.00    +0.000 NA
ATOM      5  C   UNL     1       0.593  10.863  20.007  0.00  0.00    +0.000 A 
ATOM      6  N   UNL     1       0.642  11.625  21.175  0.00  0.00    +0.000 N 
ATOM      7  N   UNL     1       1.426   9.824  19.914  0.00  0.00    +0.000 NA
ATOM      8  H   UNL     1       1.388  11.308  21.776  0.00  0.00    +0.000 HD
ENDROOT
BRANCH   6   9
ATOM      9  C   UNL     1      -0.397  12.338  21.790  0.00  0.00    +0.000 A 
ATOM     10  C   UNL     1      -0.166  13.604  22.318  0.00  0.00    +0.000 A 
ATOM     11  C   UNL     1      -1.216  14.324  22.901  0.00  0.00    +0.000 A 
ATOM     12  C   UNL     1      -2.501  13.786  22.927  0.00  0.00    +0.000 A 
ATOM     13  N   UNL     1      -3.538  14.550  23.425  0.00  0.00    +0.000 N 
ATOM     14  N   UNL     1      -2.757  12.588  22.387  0.00  0.00    +0.000 NA
ATOM     15  C   UNL     1      -1.721  11.904  21.842  0.00  0.00    +0.000 A 
ATOM     16  H   UNL     1      -3.362  15.057  24.280  0.00  0.00    +0.000 HD
BRANCH  13  17
ATOM     17  C   UNL     1      -4.923  14.249  23.070  0.00  0.00    +0.000 C 
ATOM     18  C   UNL     1      -5.350  13.070  23.945  0.00  0.00    +0.000 C 
ATOM     19  C   UNL     1      -6.685  12.484  23.511  0.00  0.00    +0.000 C 
ATOM     20  N   UNL     1      -6.657  12.111  22.091  0.00  0.00    +0.000 NA
ATOM     21  C   UNL     1      -7.917  11.470  21.716  0.00  0.00    +0.000 C 
ATOM     22  C   UNL     1      -6.398  13.287  21.251  0.00  0.00    +0.000 C 
ATOM     23  C   UNL     1      -5.040  13.912  21.582  0.00  0.00    +0.000 C 
ENDBRANCH  13  17
ENDBRANCH   6   9
BRANCH   1  27
ATOM     24  C   UNL     1       3.865   5.631  18.505  0.00  0.00    +0.000 A 
ATOM     25  N   UNL     1       3.027   5.764  19.559  0.00  0.00    +0.000 NA
ATOM     26  C   UNL     1       2.273   6.880  19.655  0.00  0.00    +0.000 A 
ATOM     27  C   UNL     1       2.279   7.922  18.738  0.00  0.00    +0.000 A 
ATOM     28  C   UNL     1       3.212   7.807  17.702  0.00  0.00    +0.000 A 
ATOM     29  C   UNL     1       4.016   6.667  17.583  0.00  0.00    +0.000 A 
BRANCH  24  30
ATOM     30  N   UNL     1       4.595   4.433  18.392  0.00  0.00    +0.000 N 
ATOM     31  H   UNL     1       5.563   4.626  18.129  0.00  0.00    +0.000 HD
BRANCH  30  32
ATOM     32  C   UNL     1       4.051   3.504  17.383  0.00  0.00    +0.000 C 
BRANCH  32  33
ATOM     33  C   UNL     1       3.090   2.486  18.026  0.00  0.00    +0.000 C 
BRANCH  33  35
ATOM     34  C   UNL     1       0.858   2.532  18.800  0.00  0.00    +0.000 C 
ATOM     35  O   UNL     1       1.739   2.879  17.738  0.00  0.00    +0.000 OA
ENDBRANCH  33  35
ENDBRANCH  32  33
ENDBRANCH  30  32
ENDBRANCH  24  30
BRANCH  29  36
ATOM     36  C   UNL     1       4.886   6.558  16.453  0.00  0.00    +0.000 C 
ATOM     37  N   UNL     1       5.571   6.520  15.520  0.00  0.00    +0.000 NA
ENDBRANCH  29  36
ENDBRANCH   1  27
TORSDOF 8
ENDMDL
