MODEL 1
REMARK VINA RESULT:      -8.4      0.000      0.000
REMARK  Name = 
REMARK  7 active torsions:
REMARK  status: ('A' for Active; 'I' for Inactive)
REMARK    1  A    between atoms: C_2  and  C_4
REMARK    2  A    between atoms: C_4  and  C_5
REMARK    3  A    between atoms: C_5  and  N_6
REMARK    4  A    between atoms: C_5  and  C_16
REMARK    5  A    between atoms: C_7  and  C_9
REMARK    6  A    between atoms: C_19  and  N_20
REMARK    7  A    between atoms: C_27  and  N_28
REMARK                            x       y       z     vdW  Elec       q    Type
REMARK                         _______ _______ _______ _____ _____    ______ ____
ROOT
ATOM      1  C   UNL     1       3.141   5.421  19.251  0.00  0.00    +0.000 C 
ENDROOT
BRANCH   1   2
ATOM      2  C   UNL     1       2.373   6.733  19.300  0.00  0.00    +0.000 A 
ATOM      3  C   UNL     1       2.258   7.507  18.150  0.00  0.00    +0.000 A 
ATOM      4  C   UNL     1       1.668   8.779  18.201  0.00  0.00    +0.000 A 
ATOM      5  C   UNL     1       1.117   9.359  19.372  0.00  0.00    +0.000 A 
ATOM      6  C   UNL     1       1.243   8.536  20.514  0.00  0.00    +0.000 A 
ATOM      7  C   UNL     1       1.866   7.264  20.488  0.00  0.00    +0.000 A 
BRANCH   5   8
ATOM      8  N   UNL     1       0.576  10.649  19.280  0.00  0.00    +0.000 N 
ATOM      9  C   UNL     1       1.496  11.802  19.283  0.00  0.00    +0.000 C 
ATOM     10  C   UNL     1       1.472  12.508  20.641  0.00  0.00    +0.000 C 
ATOM     11  C   UNL     1       0.241  13.381  20.880  0.00  0.00    +0.000 C 
ATOM     12  C   UNL     1      -1.097  12.666  20.703  0.00  0.00    +0.000 C 
ATOM     13  C   UNL     1      -1.360  12.277  19.251  0.00  0.00    +0.000 C 
ATOM     14  C   UNL     1      -0.806  10.906  18.851  0.00  0.00    +0.000 C 
ENDBRANCH   5   8
BRANCH   6  15
ATOM     15  N   UNL     1       0.708   8.885  21.816  0.00  0.00    +0.000 N 
ATOM     16  O   UNL     1       1.452   9.483  22.607  0.00  0.00    +0.000 OA
ATOM     17  O   UNL     1      -0.490   8.633  22.016  0.00  0.00    +0.000 OA
ENDBRANCH   6  15
ENDBRANCH   1   2
BRANCH   1  18
ATOM     18  N   UNL     1       3.930   5.317  18.036  0.00  0.00    +0.000 N 
ATOM     19  C   UNL     1       5.099   4.588  17.961  0.00  0.00    +0.000 C 
ATOM     20  O   UNL     1       5.566   3.953  18.891  0.00  0.00    +0.000 OA
ATOM     21  H   UNL     1       3.674   5.919  17.263  0.00  0.00    +0.000 HD
BRANCH  19  22
ATOM     22  C   UNL     1       5.798   4.644  16.645  0.00  0.00    +0.000 A 
ATOM     23  C   UNL     1       7.076   5.211  16.524  0.00  0.00    +0.000 A 
ATOM     24  C   UNL     1       7.724   5.225  15.289  0.00  0.00    +0.000 A 
ATOM     25  C   UNL     1       7.094   4.690  14.166  0.00  0.00    +0.000 A 
ATOM     26  C   UNL     1       5.813   4.146  14.283  0.00  0.00    +0.000 A 
ATOM     27 BR   UNL     1       4.967   3.429  12.752  0.00  0.00    +0.000 Br
ATOM     28  C   UNL     1       5.158   4.125  15.514  0.00  0.00    +0.000 A 
ENDBRANCH  19  22
ENDBRANCH   1  18
BRANCH   1  29
ATOM     29  C   UNL     1       2.117   4.288  19.364  0.00  0.00    +0.000 C 
BRANCH  29  31
ATOM     30  N   UNL     1       2.209   2.397  17.839  0.00  0.00    +0.000 N 
ATOM     31  C   UNL     1       1.780   3.675  18.036  0.00  0.00    +0.000 C 
ATOM     32  O   UNL     1       1.141   4.272  17.171  0.00  0.00    +0.000 OA
ATOM     33  H   UNL     1       2.001   1.986  16.940  0.00  0.00    +0.000 HD
ATOM     34  H   UNL     1       2.986   2.009  18.357  0.00  0.00    +0.000 HD
ENDBRANCH  29  31
ENDBRANCH   1  29
TORSDOF 7
ENDMDL
MODEL 2
REMARK VINA RESULT:      -8.3      0.687      1.372
REMARK  Name = 
REMARK  7 active torsions:
REMARK  status: ('A' for Active; 'I' for Inactive)
REMARK    1  A    between atoms: C_2  and  C_4
REMARK    2  A    between atoms: C_4  and  C_5
REMARK    3  A    between atoms: C_5  and  N_6
REMARK    4  A    between atoms: C_5  and  C_16
REMARK    5  A    between atoms: C_7  and  C_9
REMARK    6  A    between atoms: C_19  and  N_20
REMARK    7  A    between atoms: C_27  and  N_28
REMARK                            x       y       z     vdW  Elec       q    Type
REMARK                         _______ _______ _______ _____ _____    ______ ____
ROOT
ATOM      1  C   UNL     1       2.903   5.387  19.572  0.00  0.00    +0.000 C 
ENDROOT
BRANCH   1   2
ATOM      2  C   UNL     1       2.209   6.736  19.676  0.00  0.00    +0.000 A 
ATOM      3  C   UNL     1       2.246   7.615  18.598  0.00  0.00    +0.000 A 
ATOM      4  C   UNL     1       1.726   8.913  18.716  0.00  0.00    +0.000 A 
ATOM      5  C   UNL     1       1.100   9.421  19.883  0.00  0.00    +0.000 A 
ATOM      6  C   UNL     1       1.072   8.494  20.949  0.00  0.00    +0.000 A 
ATOM      7  C   UNL     1       1.622   7.192  20.859  0.00  0.00    +0.000 A 
BRANCH   5   8
ATOM      8  N   UNL     1       0.644  10.746  19.865  0.00  0.00    +0.000 N 
ATOM      9  C   UNL     1      -0.801  10.993  19.702  0.00  0.00    +0.000 C 
ATOM     10  C   UNL     1      -1.110  11.470  18.280  0.00  0.00    +0.000 C 
ATOM     11  C   UNL     1      -0.744  12.928  18.007  0.00  0.00    +0.000 C 
ATOM     12  C   UNL     1       0.706  13.294  18.316  0.00  0.00    +0.000 C 
ATOM     13  C   UNL     1       1.011  13.249  19.811  0.00  0.00    +0.000 C 
ATOM     14  C   UNL     1       1.460  11.878  20.326  0.00  0.00    +0.000 C 
ENDBRANCH   5   8
BRANCH   6  15
ATOM     15  N   UNL     1       0.437   8.760  22.226  0.00  0.00    +0.000 N 
ATOM     16  O   UNL     1       1.082   9.392  23.073  0.00  0.00    +0.000 OA
ATOM     17  O   UNL     1      -0.745   8.405  22.349  0.00  0.00    +0.000 OA
ENDBRANCH   6  15
ENDBRANCH   1   2
BRANCH   1  18
ATOM     18  N   UNL     1       3.742   5.316  18.387  0.00  0.00    +0.000 N 
ATOM     19  C   UNL     1       4.918   4.597  18.345  0.00  0.00    +0.000 C 
ATOM     20  O   UNL     1       5.353   3.945  19.279  0.00  0.00    +0.000 OA
ATOM     21  H   UNL     1       3.512   5.933  17.618  0.00  0.00    +0.000 HD
BRANCH  19  22
ATOM     22  C   UNL     1       5.670   4.687  17.059  0.00  0.00    +0.000 A 
ATOM     23  C   UNL     1       6.962   5.234  17.009  0.00  0.00    +0.000 A 
ATOM     24  C   UNL     1       7.658   5.280  15.802  0.00  0.00    +0.000 A 
ATOM     25  C   UNL     1       7.063   4.798  14.637  0.00  0.00    +0.000 A 
ATOM     26  C   UNL     1       5.769   4.275  14.684  0.00  0.00    +0.000 A 
ATOM     27 BR   UNL     1       4.972   3.630  13.095  0.00  0.00    +0.000 Br
ATOM     28  C   UNL     1       5.066   4.222  15.886  0.00  0.00    +0.000 A 
ENDBRANCH  19  22
ENDBRANCH   1  18
BRANCH   1  29
ATOM     29  C   UNL     1       1.813   4.312  19.563  0.00  0.00    +0.000 C 
BRANCH  29  31
ATOM     30  N   UNL     1       1.976   2.355  18.130  0.00  0.00    +0.000 N 
ATOM     31  C   UNL     1       1.639   3.672  18.217  0.00  0.00    +0.000 C 
ATOM     32  O   UNL     1       1.203   4.282  17.243  0.00  0.00    +0.000 OA
ATOM     33  H   UNL     1       1.878   1.925  17.222  0.00  0.00    +0.000 HD
ATOM     34  H   UNL     1       2.623   1.925  18.779  0.00  0.00    +0.000 HD
ENDBRANCH  29  31
ENDBRANCH   1  29
TORSDOF 7
ENDMDL
MODEL 3
REMARK VINA RESULT:      -8.2      0.980      1.182
REMARK  Name = 
REMARK  7 active torsions:
REMARK  status: ('A' for Active; 'I' for Inactive)
REMARK    1  A    between atoms: C_2  and  C_4
REMARK    2  A    between atoms: C_4  and  C_5
REMARK    3  A    between atoms: C_5  and  N_6
REMARK    4  A    between atoms: C_5  and  C_16
REMARK    5  A    between atoms: C_7  and  C_9
REMARK    6  A    between atoms: C_19  and  N_20
REMARK    7  A    between atoms: C_27  and  N_28
REMARK                            x       y       z     vdW  Elec       q    Type
REMARK                         _______ _______ _______ _____ _____    ______ ____
ROOT
ATOM      1  C   UNL     1       3.150   5.546  19.064  0.00  0.00    +0.000 C 
ENDROOT
BRANCH   1   2
ATOM      2  C   UNL     1       2.400   6.868  19.110  0.00  0.00    +0.000 A 
ATOM      3  C   UNL     1       2.313   7.652  17.964  0.00  0.00    +0.000 A 
ATOM      4  C   UNL     1       1.740   8.931  18.015  0.00  0.00    +0.000 A 
ATOM      5  C   UNL     1       1.178   9.511  19.180  0.00  0.00    +0.000 A 
ATOM      6  C   UNL     1       1.275   8.679  20.318  0.00  0.00    +0.000 A 
ATOM      7  C   UNL     1       1.880   7.399  20.293  0.00  0.00    +0.000 A 
BRANCH   5   8
ATOM      8  N   UNL     1       0.656  10.809  19.089  0.00  0.00    +0.000 N 
ATOM      9  C   UNL     1       1.589  11.949  19.139  0.00  0.00    +0.000 C 
ATOM     10  C   UNL     1       1.528  12.637  20.506  0.00  0.00    +0.000 C 
ATOM     11  C   UNL     1       0.301  13.522  20.716  0.00  0.00    +0.000 C 
ATOM     12  C   UNL     1      -1.039  12.827  20.484  0.00  0.00    +0.000 C 
ATOM     13  C   UNL     1      -1.258  12.461  19.019  0.00  0.00    +0.000 C 
ATOM     14  C   UNL     1      -0.707  11.089  18.618  0.00  0.00    +0.000 C 
ENDBRANCH   5   8
BRANCH   6  15
ATOM     15  N   UNL     1       0.724   9.026  21.614  0.00  0.00    +0.000 N 
ATOM     16  O   UNL     1      -0.427   8.650  21.875  0.00  0.00    +0.000 OA
ATOM     17  O   UNL     1       1.481   9.609  22.407  0.00  0.00    +0.000 OA
ENDBRANCH   6  15
ENDBRANCH   1   2
BRANCH   1  18
ATOM     18  N   UNL     1       3.941   5.431  17.851  0.00  0.00    +0.000 N 
ATOM     19  C   UNL     1       5.086   4.666  17.772  0.00  0.00    +0.000 C 
ATOM     20  O   UNL     1       5.529   4.005  18.697  0.00  0.00    +0.000 OA
ATOM     21  H   UNL     1       3.707   6.050  17.084  0.00  0.00    +0.000 HD
BRANCH  19  22
ATOM     22  C   UNL     1       5.792   4.714  16.459  0.00  0.00    +0.000 A 
ATOM     23  C   UNL     1       7.057   5.309  16.336  0.00  0.00    +0.000 A 
ATOM     24  C   UNL     1       7.712   5.316  15.105  0.00  0.00    +0.000 A 
ATOM     25  C   UNL     1       7.102   4.745  13.989  0.00  0.00    +0.000 A 
ATOM     26  C   UNL     1       5.834   4.174  14.108  0.00  0.00    +0.000 A 
ATOM     27 BR   UNL     1       5.016   3.408  12.585  0.00  0.00    +0.000 Br
ATOM     28  C   UNL     1       5.171   4.159  15.335  0.00  0.00    +0.000 A 
ENDBRANCH  19  22
ENDBRANCH   1  18
BRANCH   1  29
ATOM     29  C   UNL     1       2.111   4.427  19.175  0.00  0.00    +0.000 C 
BRANCH  29  31
ATOM     30  N   UNL     1       3.388   2.783  20.430  0.00  0.00    +0.000 N 
ATOM     31  C   UNL     1       2.290   3.588  20.406  0.00  0.00    +0.000 C 
ATOM     32  O   UNL     1       1.507   3.623  21.354  0.00  0.00    +0.000 OA
ATOM     33  H   UNL     1       3.503   2.203  21.249  0.00  0.00    +0.000 HD
ATOM     34  H   UNL     1       3.849   2.483  19.581  0.00  0.00    +0.000 HD
ENDBRANCH  29  31
ENDBRANCH   1  29
TORSDOF 7
ENDMDL
MODEL 4
REMARK VINA RESULT:      -8.1      1.180      1.797
REMARK  Name = 
REMARK  7 active torsions:
REMARK  status: ('A' for Active; 'I' for Inactive)
REMARK    1  A    between atoms: C_2  and  C_4
REMARK    2  A    between atoms: C_4  and  C_5
REMARK    3  A    between atoms: C_5  and  N_6
REMARK    4  A    between atoms: C_5  and  C_16
REMARK    5  A    between atoms: C_7  and  C_9
REMARK    6  A    between atoms: C_19  and  N_20
REMARK    7  A    between atoms: C_27  and  N_28
REMARK                            x       y       z     vdW  Elec       q    Type
REMARK                         _______ _______ _______ _____ _____    ______ ____
ROOT
ATOM      1  C   UNL     1       2.939   5.462  19.430  0.00  0.00    +0.000 C 
ENDROOT
BRANCH   1   2
ATOM      2  C   UNL     1       2.237   6.804  19.565  0.00  0.00    +0.000 A 
ATOM      3  C   UNL     1       2.259   7.704  18.505  0.00  0.00    +0.000 A 
ATOM      4  C   UNL     1       1.731   8.995  18.651  0.00  0.00    +0.000 A 
ATOM      5  C   UNL     1       1.113   9.478  19.833  0.00  0.00    +0.000 A 
ATOM      6  C   UNL     1       1.101   8.531  20.881  0.00  0.00    +0.000 A 
ATOM      7  C   UNL     1       1.658   7.234  20.762  0.00  0.00    +0.000 A 
BRANCH   5   8
ATOM      8  N   UNL     1       0.648  10.800  19.844  0.00  0.00    +0.000 N 
ATOM      9  C   UNL     1      -0.795  11.042  19.660  0.00  0.00    +0.000 C 
ATOM     10  C   UNL     1      -1.081  11.557  18.247  0.00  0.00    +0.000 C 
ATOM     11  C   UNL     1      -0.720  13.025  18.022  0.00  0.00    +0.000 C 
ATOM     12  C   UNL     1       0.721  13.391  18.369  0.00  0.00    +0.000 C 
ATOM     13  C   UNL     1       0.999  13.305  19.867  0.00  0.00    +0.000 C 
ATOM     14  C   UNL     1       1.448  11.924  20.351  0.00  0.00    +0.000 C 
ENDBRANCH   5   8
BRANCH   6  15
ATOM     15  N   UNL     1       0.476   8.769  22.169  0.00  0.00    +0.000 N 
ATOM     16  O   UNL     1      -0.659   8.310  22.356  0.00  0.00    +0.000 OA
ATOM     17  O   UNL     1       1.162   9.348  23.026  0.00  0.00    +0.000 OA
ENDBRANCH   6  15
ENDBRANCH   1   2
BRANCH   1  18
ATOM     18  N   UNL     1       3.778   5.424  18.245  0.00  0.00    +0.000 N 
ATOM     19  C   UNL     1       4.874   4.595  18.130  0.00  0.00    +0.000 C 
ATOM     20  O   UNL     1       5.230   3.810  18.993  0.00  0.00    +0.000 OA
ATOM     21  H   UNL     1       3.620   6.135  17.541  0.00  0.00    +0.000 HD
BRANCH  19  22
ATOM     22  C   UNL     1       5.644   4.735  16.859  0.00  0.00    +0.000 A 
ATOM     23  C   UNL     1       6.874   5.410  16.825  0.00  0.00    +0.000 A 
ATOM     24  C   UNL     1       7.591   5.502  15.633  0.00  0.00    +0.000 A 
ATOM     25  C   UNL     1       7.078   4.936  14.466  0.00  0.00    +0.000 A 
ATOM     26  C   UNL     1       5.843   4.284  14.497  0.00  0.00    +0.000 A 
ATOM     27 BR   UNL     1       5.156   3.527  12.907  0.00  0.00    +0.000 Br
ATOM     28  C   UNL     1       5.120   4.184  15.685  0.00  0.00    +0.000 A 
ENDBRANCH  19  22
ENDBRANCH   1  18
BRANCH   1  29
ATOM     29  C   UNL     1       1.855   4.381  19.397  0.00  0.00    +0.000 C 
BRANCH  29  31
ATOM     30  N   UNL     1       3.142   2.819  20.742  0.00  0.00    +0.000 N 
ATOM     31  C   UNL     1       1.941   3.435  20.558  0.00  0.00    +0.000 C 
ATOM     32  O   UNL     1       0.997   3.228  21.318  0.00  0.00    +0.000 OA
ATOM     33  H   UNL     1       3.200   2.166  21.512  0.00  0.00    +0.000 HD
ATOM     34  H   UNL     1       3.804   2.703  19.987  0.00  0.00    +0.000 HD
ENDBRANCH  29  31
ENDBRANCH   1  29
TORSDOF 7
ENDMDL
MODEL 5
REMARK VINA RESULT:      -7.8      1.210      1.600
REMARK  Name = 
REMARK  7 active torsions:
REMARK  status: ('A' for Active; 'I' for Inactive)
REMARK    1  A    between atoms: C_2  and  C_4
REMARK    2  A    between atoms: C_4  and  C_5
REMARK    3  A    between atoms: C_5  and  N_6
REMARK    4  A    between atoms: C_5  and  C_16
REMARK    5  A    between atoms: C_7  and  C_9
REMARK    6  A    between atoms: C_19  and  N_20
REMARK    7  A    between atoms: C_27  and  N_28
REMARK                            x       y       z     vdW  Elec       q    Type
REMARK                         _______ _______ _______ _____ _____    ______ ____
ROOT
ATOM      1  C   UNL     1       3.083   5.629  20.050  0.00  0.00    +0.000 C 
ENDROOT
BRANCH   1   2
ATOM      2  C   UNL     1       2.309   6.919  19.828  0.00  0.00    +0.000 A 
ATOM      3  C   UNL     1       2.361   7.551  18.590  0.00  0.00    +0.000 A 
ATOM      4  C   UNL     1       1.762   8.805  18.402  0.00  0.00    +0.000 A 
ATOM      5  C   UNL     1       1.039   9.505  19.402  0.00  0.00    +0.000 A 
ATOM      6  C   UNL     1       0.998   8.824  20.639  0.00  0.00    +0.000 A 
ATOM      7  C   UNL     1       1.626   7.573  20.857  0.00  0.00    +0.000 A 
BRANCH   5   8
ATOM      8  N   UNL     1       0.509  10.762  19.078  0.00  0.00    +0.000 N 
ATOM      9  C   UNL     1       1.438  11.889  18.878  0.00  0.00    +0.000 C 
ATOM     10  C   UNL     1       1.418  12.827  20.088  0.00  0.00    +0.000 C 
ATOM     11  C   UNL     1       0.194  13.739  20.162  0.00  0.00    +0.000 C 
ATOM     12  C   UNL     1      -1.149  13.015  20.111  0.00  0.00    +0.000 C 
ATOM     13  C   UNL     1      -1.413  12.374  18.752  0.00  0.00    +0.000 C 
ATOM     14  C   UNL     1      -0.870  10.949  18.605  0.00  0.00    +0.000 C 
ENDBRANCH   5   8
BRANCH   6  15
ATOM     15  N   UNL     1       0.273   9.310  21.798  0.00  0.00    +0.000 N 
ATOM     16  O   UNL     1      -0.731   8.681  22.158  0.00  0.00    +0.000 OA
ATOM     17  O   UNL     1       0.762  10.279  22.399  0.00  0.00    +0.000 OA
ENDBRANCH   6  15
ENDBRANCH   1   2
BRANCH   1  18
ATOM     18  N   UNL     1       4.105   5.448  19.032  0.00  0.00    +0.000 N 
ATOM     19  C   UNL     1       3.859   4.823  17.828  0.00  0.00    +0.000 C 
ATOM     20  O   UNL     1       2.770   4.384  17.496  0.00  0.00    +0.000 OA
ATOM     21  H   UNL     1       5.059   5.670  19.287  0.00  0.00    +0.000 HD
BRANCH  19  22
ATOM     22  C   UNL     1       5.044   4.682  16.933  0.00  0.00    +0.000 A 
ATOM     23  C   UNL     1       6.345   4.908  17.409  0.00  0.00    +0.000 A 
ATOM     24  C   UNL     1       7.441   4.741  16.563  0.00  0.00    +0.000 A 
ATOM     25  C   UNL     1       7.244   4.364  15.235  0.00  0.00    +0.000 A 
ATOM     26  C   UNL     1       5.948   4.161  14.757  0.00  0.00    +0.000 A 
ATOM     27 BR   UNL     1       5.694   3.655  12.952  0.00  0.00    +0.000 Br
ATOM     28  C   UNL     1       4.845   4.322  15.595  0.00  0.00    +0.000 A 
ENDBRANCH  19  22
ENDBRANCH   1  18
BRANCH   1  29
ATOM     29  C   UNL     1       2.069   4.482  20.050  0.00  0.00    +0.000 C 
BRANCH  29  31
ATOM     30  N   UNL     1       1.844   3.046  21.999  0.00  0.00    +0.000 N 
ATOM     31  C   UNL     1       2.531   3.299  20.850  0.00  0.00    +0.000 C 
ATOM     32  O   UNL     1       3.463   2.580  20.495  0.00  0.00    +0.000 OA
ATOM     33  H   UNL     1       2.163   2.262  22.550  0.00  0.00    +0.000 HD
ATOM     34  H   UNL     1       1.322   3.767  22.479  0.00  0.00    +0.000 HD
ENDBRANCH  29  31
ENDBRANCH   1  29
TORSDOF 7
ENDMDL
MODEL 6
REMARK VINA RESULT:      -7.7      2.020      2.661
REMARK  Name = 
REMARK  7 active torsions:
REMARK  status: ('A' for Active; 'I' for Inactive)
REMARK    1  A    between atoms: C_2  and  C_4
REMARK    2  A    between atoms: C_4  and  C_5
REMARK    3  A    between atoms: C_5  and  N_6
REMARK    4  A    between atoms: C_5  and  C_16
REMARK    5  A    between atoms: C_7  and  C_9
REMARK    6  A    between atoms: C_19  and  N_20
REMARK    7  A    between atoms: C_27  and  N_28
REMARK                            x       y       z     vdW  Elec       q    Type
REMARK                         _______ _______ _______ _____ _____    ______ ____
ROOT
ATOM      1  C   UNL     1       2.304   5.780  20.785  0.00  0.00    +0.000 C 
ENDROOT
BRANCH   1   2
ATOM      2  C   UNL     1       1.734   7.181  20.621  0.00  0.00    +0.000 A 
ATOM      3  C   UNL     1       0.822   7.668  21.551  0.00  0.00    +0.000 A 
ATOM      4  C   UNL     1       0.187   8.903  21.351  0.00  0.00    +0.000 A 
ATOM      5  C   UNL     1       0.432   9.759  20.247  0.00  0.00    +0.000 A 
ATOM      6  C   UNL     1       1.372   9.233  19.332  0.00  0.00    +0.000 A 
ATOM      7  C   UNL     1       1.998   7.974  19.501  0.00  0.00    +0.000 A 
BRANCH   5   8
ATOM      8  N   UNL     1      -0.292  10.957  20.165  0.00  0.00    +0.000 N 
ATOM      9  C   UNL     1       0.248  12.155  20.833  0.00  0.00    +0.000 C 
ATOM     10  C   UNL     1      -0.521  12.446  22.125  0.00  0.00    +0.000 C 
ATOM     11  C   UNL     1      -1.896  13.078  21.915  0.00  0.00    +0.000 C 
ATOM     12  C   UNL     1      -2.824  12.301  20.985  0.00  0.00    +0.000 C 
ATOM     13  C   UNL     1      -2.337  12.307  19.539  0.00  0.00    +0.000 C 
ATOM     14  C   UNL     1      -1.370  11.172  19.189  0.00  0.00    +0.000 C 
ENDBRANCH   5   8
BRANCH   6  15
ATOM     15  N   UNL     1       1.829   9.946  18.154  0.00  0.00    +0.000 N 
ATOM     16  O   UNL     1       2.085  11.152  18.269  0.00  0.00    +0.000 OA
ATOM     17  O   UNL     1       2.011   9.273  17.127  0.00  0.00    +0.000 OA
ENDBRANCH   6  15
ENDBRANCH   1   2
BRANCH   1  18
ATOM     18  N   UNL     1       3.488   5.594  19.965  0.00  0.00    +0.000 N 
ATOM     19  C   UNL     1       3.431   5.170  18.653  0.00  0.00    +0.000 C 
ATOM     20  O   UNL     1       2.394   4.931  18.058  0.00  0.00    +0.000 OA
ATOM     21  H   UNL     1       4.387   5.649  20.427  0.00  0.00    +0.000 HD
BRANCH  19  22
ATOM     22  C   UNL     1       4.755   4.985  17.989  0.00  0.00    +0.000 A 
ATOM     23  C   UNL     1       5.953   5.127  18.705  0.00  0.00    +0.000 A 
ATOM     24  C   UNL     1       7.178   4.920  18.071  0.00  0.00    +0.000 A 
ATOM     25  C   UNL     1       7.214   4.587  16.717  0.00  0.00    +0.000 A 
ATOM     26  C   UNL     1       6.021   4.468  16.001  0.00  0.00    +0.000 A 
ATOM     27 BR   UNL     1       6.083   4.022  14.164  0.00  0.00    +0.000 Br
ATOM     28  C   UNL     1       4.791   4.670  16.626  0.00  0.00    +0.000 A 
ENDBRANCH  19  22
ENDBRANCH   1  18
BRANCH   1  29
ATOM     29  C   UNL     1       1.195   4.790  20.419  0.00  0.00    +0.000 C 
BRANCH  29  31
ATOM     30  N   UNL     1       1.421   2.414  19.959  0.00  0.00    +0.000 N 
ATOM     31  C   UNL     1       1.477   3.397  20.900  0.00  0.00    +0.000 C 
ATOM     32  O   UNL     1       1.758   3.142  22.070  0.00  0.00    +0.000 OA
ATOM     33  H   UNL     1       1.592   1.472  20.281  0.00  0.00    +0.000 HD
ATOM     34  H   UNL     1       0.890   2.522  19.105  0.00  0.00    +0.000 HD
ENDBRANCH  29  31
ENDBRANCH   1  29
TORSDOF 7
ENDMDL
MODEL 7
REMARK VINA RESULT:      -7.7      0.996      1.378
REMARK  Name = 
REMARK  7 active torsions:
REMARK  status: ('A' for Active; 'I' for Inactive)
REMARK    1  A    between atoms: C_2  and  C_4
REMARK    2  A    between atoms: C_4  and  C_5
REMARK    3  A    between atoms: C_5  and  N_6
REMARK    4  A    between atoms: C_5  and  C_16
REMARK    5  A    between atoms: C_7  and  C_9
REMARK    6  A    between atoms: C_19  and  N_20
REMARK    7  A    between atoms: C_27  and  N_28
REMARK                            x       y       z     vdW  Elec       q    Type
REMARK                         _______ _______ _______ _____ _____    ______ ____
ROOT
ATOM      1  C   UNL     1       2.722   5.256  18.846  0.00  0.00    +0.000 C 
ENDROOT
BRANCH   1   2
ATOM      2  C   UNL     1       2.175   6.659  19.055  0.00  0.00    +0.000 A 
ATOM      3  C   UNL     1       2.176   7.564  17.999  0.00  0.00    +0.000 A 
ATOM      4  C   UNL     1       1.797   8.899  18.202  0.00  0.00    +0.000 A 
ATOM      5  C   UNL     1       1.354   9.426  19.441  0.00  0.00    +0.000 A 
ATOM      6  C   UNL     1       1.356   8.473  20.484  0.00  0.00    +0.000 A 
ATOM      7  C   UNL     1       1.767   7.129  20.306  0.00  0.00    +0.000 A 
BRANCH   5   8
ATOM      8  N   UNL     1       1.026  10.788  19.502  0.00  0.00    +0.000 N 
ATOM      9  C   UNL     1       0.168  11.258  20.605  0.00  0.00    +0.000 C 
ATOM     10  C   UNL     1      -1.256  11.524  20.107  0.00  0.00    +0.000 C 
ATOM     11  C   UNL     1      -1.418  12.820  19.315  0.00  0.00    +0.000 C 
ATOM     12  C   UNL     1      -0.472  12.967  18.125  0.00  0.00    +0.000 C 
ATOM     13  C   UNL     1       0.982  13.133  18.555  0.00  0.00    +0.000 C 
ATOM     14  C   UNL     1       1.744  11.817  18.737  0.00  0.00    +0.000 C 
ENDBRANCH   5   8
BRANCH   6  15
ATOM     15  N   UNL     1       0.893   8.756  21.830  0.00  0.00    +0.000 N 
ATOM     16  O   UNL     1       1.686   9.295  22.614  0.00  0.00    +0.000 OA
ATOM     17  O   UNL     1      -0.299   8.512  22.075  0.00  0.00    +0.000 OA
ENDBRANCH   6  15
ENDBRANCH   1   2
BRANCH   1  18
ATOM     18  N   UNL     1       3.619   5.205  17.703  0.00  0.00    +0.000 N 
ATOM     19  C   UNL     1       4.794   4.484  17.705  0.00  0.00    +0.000 C 
ATOM     20  O   UNL     1       5.181   3.812  18.647  0.00  0.00    +0.000 OA
ATOM     21  H   UNL     1       3.428   5.837  16.936  0.00  0.00    +0.000 HD
BRANCH  19  22
ATOM     22  C   UNL     1       5.609   4.596  16.460  0.00  0.00    +0.000 A 
ATOM     23  C   UNL     1       6.881   5.189  16.475  0.00  0.00    +0.000 A 
ATOM     24  C   UNL     1       7.637   5.256  15.305  0.00  0.00    +0.000 A 
ATOM     25  C   UNL     1       7.122   4.748  14.113  0.00  0.00    +0.000 A 
ATOM     26  C   UNL     1       5.847   4.179  14.095  0.00  0.00    +0.000 A 
ATOM     27 BR   UNL     1       5.158   3.499  12.471  0.00  0.00    +0.000 Br
ATOM     28  C   UNL     1       5.084   4.104  15.260  0.00  0.00    +0.000 A 
ENDBRANCH  19  22
ENDBRANCH   1  18
BRANCH   1  29
ATOM     29  C   UNL     1       1.524   4.318  18.673  0.00  0.00    +0.000 C 
BRANCH  29  31
ATOM     30  N   UNL     1       2.010   1.941  18.537  0.00  0.00    +0.000 N 
ATOM     31  C   UNL     1       1.719   2.994  19.350  0.00  0.00    +0.000 C 
ATOM     32  O   UNL     1       1.639   2.853  20.569  0.00  0.00    +0.000 OA
ATOM     33  H   UNL     1       2.124   1.043  18.986  0.00  0.00    +0.000 HD
ATOM     34  H   UNL     1       1.764   1.939  17.556  0.00  0.00    +0.000 HD
ENDBRANCH  29  31
ENDBRANCH   1  29
TORSDOF 7
ENDMDL
MODEL 8
REMARK VINA RESULT:      -7.7      3.806      9.035
REMARK  Name = 
REMARK  7 active torsions:
REMARK  status: ('A' for Active; 'I' for Inactive)
REMARK    1  A    between atoms: C_2  and  C_4
REMARK    2  A    between atoms: C_4  and  C_5
REMARK    3  A    between atoms: C_5  and  N_6
REMARK    4  A    between atoms: C_5  and  C_16
REMARK    5  A    between atoms: C_7  and  C_9
REMARK    6  A    between atoms: C_19  and  N_20
REMARK    7  A    between atoms: C_27  and  N_28
REMARK                            x       y       z     vdW  Elec       q    Type
REMARK                         _______ _______ _______ _____ _____    ______ ____
ROOT
ATOM      1  C   UNL     1       1.614  10.168  18.414  0.00  0.00    +0.000 C 
ENDROOT
BRANCH   1   2
ATOM      2  C   UNL     1       2.176   8.763  18.266  0.00  0.00    +0.000 A 
ATOM      3  C   UNL     1       1.574   7.705  18.939  0.00  0.00    +0.000 A 
ATOM      4  C   UNL     1       2.150   6.426  18.921  0.00  0.00    +0.000 A 
ATOM      5  C   UNL     1       3.330   6.090  18.211  0.00  0.00    +0.000 A 
ATOM      6  C   UNL     1       3.903   7.188  17.532  0.00  0.00    +0.000 A 
ATOM      7  C   UNL     1       3.354   8.493  17.567  0.00  0.00    +0.000 A 
BRANCH   5   8
ATOM      8  N   UNL     1       3.804   4.773  18.300  0.00  0.00    +0.000 N 
ATOM      9  C   UNL     1       3.663   3.892  17.126  0.00  0.00    +0.000 C 
ATOM     10  C   UNL     1       2.524   2.890  17.335  0.00  0.00    +0.000 C 
ATOM     11  C   UNL     1       2.864   1.731  18.271  0.00  0.00    +0.000 C 
ATOM     12  C   UNL     1       3.379   2.147  19.647  0.00  0.00    +0.000 C 
ATOM     13  C   UNL     1       4.752   2.808  19.579  0.00  0.00    +0.000 C 
ATOM     14  C   UNL     1       4.718   4.323  19.359  0.00  0.00    +0.000 C 
ENDBRANCH   5   8
BRANCH   6  15
ATOM     15  N   UNL     1       5.082   7.085  16.692  0.00  0.00    +0.000 N 
ATOM     16  O   UNL     1       6.190   7.074  17.247  0.00  0.00    +0.000 OA
ATOM     17  O   UNL     1       4.892   6.930  15.476  0.00  0.00    +0.000 OA
ENDBRANCH   6  15
ENDBRANCH   1   2
BRANCH   1  18
ATOM     18  N   UNL     1       0.334  10.297  17.739  0.00  0.00    +0.000 N 
ATOM     19  C   UNL     1      -0.843  10.561  18.408  0.00  0.00    +0.000 C 
ATOM     20  O   UNL     1      -0.919  10.729  19.614  0.00  0.00    +0.000 OA
ATOM     21  H   UNL     1       0.299  10.045  16.759  0.00  0.00    +0.000 HD
BRANCH  19  22
ATOM     22  C   UNL     1      -2.064  10.605  17.551  0.00  0.00    +0.000 A 
ATOM     23  C   UNL     1      -2.111   9.934  16.320  0.00  0.00    +0.000 A 
ATOM     24  C   UNL     1      -3.273   9.963  15.549  0.00  0.00    +0.000 A 
ATOM     25  C   UNL     1      -4.386  10.674  15.995  0.00  0.00    +0.000 A 
ATOM     26  C   UNL     1      -4.330  11.360  17.210  0.00  0.00    +0.000 A 
ATOM     27 BR   UNL     1      -5.844  12.326  17.800  0.00  0.00    +0.000 Br
ATOM     28  C   UNL     1      -3.174  11.335  17.990  0.00  0.00    +0.000 A 
ENDBRANCH  19  22
ENDBRANCH   1  18
BRANCH   1  29
ATOM     29  C   UNL     1       2.656  11.138  17.851  0.00  0.00    +0.000 C 
BRANCH  29  31
ATOM     30  N   UNL     1       3.165  13.509  17.675  0.00  0.00    +0.000 N 
ATOM     31  C   UNL     1       2.456  12.547  18.329  0.00  0.00    +0.000 C 
ATOM     32  O   UNL     1       1.689  12.835  19.246  0.00  0.00    +0.000 OA
ATOM     33  H   UNL     1       3.048  14.456  18.005  0.00  0.00    +0.000 HD
ATOM     34  H   UNL     1       4.016  13.295  17.171  0.00  0.00    +0.000 HD
ENDBRANCH  29  31
ENDBRANCH   1  29
TORSDOF 7
ENDMDL
MODEL 9
REMARK VINA RESULT:      -7.6      0.957      1.033
REMARK  Name = 
REMARK  7 active torsions:
REMARK  status: ('A' for Active; 'I' for Inactive)
REMARK    1  A    between atoms: C_2  and  C_4
REMARK    2  A    between atoms: C_4  and  C_5
REMARK    3  A    between atoms: C_5  and  N_6
REMARK    4  A    between atoms: C_5  and  C_16
REMARK    5  A    between atoms: C_7  and  C_9
REMARK    6  A    between atoms: C_19  and  N_20
REMARK    7  A    between atoms: C_27  and  N_28
REMARK                            x       y       z     vdW  Elec       q    Type
REMARK                         _______ _______ _______ _____ _____    ______ ____
ROOT
ATOM      1  C   UNL     1       4.045   5.482  18.657  0.00  0.00    +0.000 C 
ENDROOT
BRANCH   1   2
ATOM      2  C   UNL     1       3.081   6.655  18.725  0.00  0.00    +0.000 A 
ATOM      3  C   UNL     1       2.914   7.477  17.615  0.00  0.00    +0.000 A 
ATOM      4  C   UNL     1       2.131   8.637  17.696  0.00  0.00    +0.000 A 
ATOM      5  C   UNL     1       1.428   9.049  18.857  0.00  0.00    +0.000 A 
ATOM      6  C   UNL     1       1.614   8.183  19.957  0.00  0.00    +0.000 A 
ATOM      7  C   UNL     1       2.428   7.025  19.904  0.00  0.00    +0.000 A 
BRANCH   5   8
ATOM      8  N   UNL     1       0.699  10.246  18.799  0.00  0.00    +0.000 N 
ATOM      9  C   UNL     1       1.417  11.519  18.984  0.00  0.00    +0.000 C 
ATOM     10  C   UNL     1       1.152  12.093  20.379  0.00  0.00    +0.000 C 
ATOM     11  C   UNL     1      -0.220  12.744  20.546  0.00  0.00    +0.000 C 
ATOM     12  C   UNL     1      -1.403  11.852  20.175  0.00  0.00    +0.000 C 
ATOM     13  C   UNL     1      -1.461  11.556  18.679  0.00  0.00    +0.000 C 
ATOM     14  C   UNL     1      -0.660  10.326  18.244  0.00  0.00    +0.000 C 
ENDBRANCH   5   8
BRANCH   6  15
ATOM     15  N   UNL     1       0.956   8.361  21.238  0.00  0.00    +0.000 N 
ATOM     16  O   UNL     1       1.601   8.890  22.153  0.00  0.00    +0.000 OA
ATOM     17  O   UNL     1      -0.243   8.044  21.301  0.00  0.00    +0.000 OA
ENDBRANCH   6  15
ENDBRANCH   1   2
BRANCH   1  18
ATOM     18  N   UNL     1       4.582   5.319  17.316  0.00  0.00    +0.000 N 
ATOM     19  C   UNL     1       5.807   4.736  17.066  0.00  0.00    +0.000 C 
ATOM     20  O   UNL     1       6.540   4.290  17.933  0.00  0.00    +0.000 OA
ATOM     21  H   UNL     1       4.090   5.779  16.560  0.00  0.00    +0.000 HD
BRANCH  19  22
ATOM     22  C   UNL     1       6.213   4.706  15.630  0.00  0.00    +0.000 A 
ATOM     23  C   UNL     1       7.418   5.287  15.203  0.00  0.00    +0.000 A 
ATOM     24  C   UNL     1       7.792   5.220  13.862  0.00  0.00    +0.000 A 
ATOM     25  C   UNL     1       6.959   4.590  12.937  0.00  0.00    +0.000 A 
ATOM     26  C   UNL     1       5.751   4.033  13.360  0.00  0.00    +0.000 A 
ATOM     27 BR   UNL     1       4.629   3.186  12.095  0.00  0.00    +0.000 Br
ATOM     28  C   UNL     1       5.369   4.091  14.700  0.00  0.00    +0.000 A 
ENDBRANCH  19  22
ENDBRANCH   1  18
BRANCH   1  29
ATOM     29  C   UNL     1       3.284   4.237  19.120  0.00  0.00    +0.000 C 
BRANCH  29  31
ATOM     30  N   UNL     1       1.000   3.736  18.455  0.00  0.00    +0.000 N 
ATOM     31  C   UNL     1       2.313   3.733  18.093  0.00  0.00    +0.000 C 
ATOM     32  O   UNL     1       2.664   3.350  16.978  0.00  0.00    +0.000 OA
ATOM     33  H   UNL     1       0.345   3.380  17.773  0.00  0.00    +0.000 HD
ATOM     34  H   UNL     1       0.713   3.720  19.424  0.00  0.00    +0.000 HD
ENDBRANCH  29  31
ENDBRANCH   1  29
TORSDOF 7
ENDMDL
