MODEL 1
REMARK VINA RESULT:      -8.2      0.000      0.000
REMARK  Name = 
REMARK  7 active torsions:
REMARK  status: ('A' for Active; 'I' for Inactive)
REMARK    1  A    between atoms: C_1  and  C_2
REMARK    2  A    between atoms: C_4  and  C_5
REMARK    3  A    between atoms: C_8  and  C_9
REMARK    4  A    between atoms: C_9  and  O_11
REMARK    5  A    between atoms: O_11  and  C_12
REMARK    6  A    between atoms: C_12  and  C_13
REMARK    7  A    between atoms: C_13  and  C_15
REMARK                            x       y       z     vdW  Elec       q    Type
REMARK                         _______ _______ _______ _____ _____    ______ ____
ROOT
ATOM      1  O   UNL     1       1.751   4.769  19.923  0.00  0.00    +0.000 OA
ENDROOT
BRANCH   1   2
ATOM      2  C   UNL     1       2.720   3.807  20.119  0.00  0.00    +0.000 C 
ATOM      3  O   UNL     1       2.694   3.031  21.069  0.00  0.00    +0.000 OA
BRANCH   2  11
ATOM      4  C   UNL     1       6.748   4.516  14.171  0.00  0.00    +0.000 C 
ATOM      5  C   UNL     1       6.277   4.530  15.599  0.00  0.00    +0.000 A 
ATOM      6  C   UNL     1       7.196   5.166  16.576  0.00  0.00    +0.000 A 
ATOM      7  C   UNL     1       6.907   4.997  17.875  0.00  0.00    +0.000 A 
ATOM      8  C   UNL     1       7.831   5.627  18.877  0.00  0.00    +0.000 C 
ATOM      9  N   UNL     1       5.696   4.349  18.221  0.00  0.00    +0.000 N 
ATOM     10  N   UNL     1       5.125   4.103  19.432  0.00  0.00    +0.000 NA
ATOM     11  C   UNL     1       3.826   3.865  19.116  0.00  0.00    +0.000 A 
ATOM     12  N   UNL     1       3.612   3.756  17.758  0.00  0.00    +0.000 NA
ATOM     13  C   UNL     1       4.788   3.976  17.216  0.00  0.00    +0.000 A 
ATOM     14  N   UNL     1       5.134   3.984  15.894  0.00  0.00    +0.000 NA
ENDBRANCH   2  11
ENDBRANCH   1   2
BRANCH   1  15
ATOM     15  C   UNL     1       1.943   6.003  20.658  0.00  0.00    +0.000 C 
BRANCH  15  16
ATOM     16  C   UNL     1       2.139   7.185  19.710  0.00  0.00    +0.000 C 
ATOM     17  O   UNL     1       2.968   7.072  18.794  0.00  0.00    +0.000 OA
BRANCH  16  18
ATOM     18  C   UNL     1       1.432   8.466  19.879  0.00  0.00    +0.000 A 
ATOM     19  C   UNL     1       1.372   9.351  18.817  0.00  0.00    +0.000 A 
ATOM     20  N   UNL     1       0.709  10.474  19.191  0.00  0.00    +0.000 N 
ATOM     21  C   UNL     1       0.316  10.363  20.498  0.00  0.00    +0.000 A 
ATOM     22  C   UNL     1      -0.374  11.306  21.281  0.00  0.00    +0.000 A 
ATOM     23  C   UNL     1      -0.668  10.963  22.600  0.00  0.00    +0.000 A 
ATOM     24  C   UNL     1      -0.286   9.725  23.105  0.00  0.00    +0.000 A 
ATOM     25  C   UNL     1       0.409   8.793  22.307  0.00  0.00    +0.000 A 
ATOM     26  C   UNL     1       0.721   9.102  20.965  0.00  0.00    +0.000 A 
ATOM     27  H   UNL     1       0.541  11.272  18.596  0.00  0.00    +0.000 HD
ENDBRANCH  16  18
ENDBRANCH  15  16
ENDBRANCH   1  15
TORSDOF 5
ENDMDL
MODEL 2
REMARK VINA RESULT:      -8.2      1.841      7.111
REMARK  Name = 
REMARK  7 active torsions:
REMARK  status: ('A' for Active; 'I' for Inactive)
REMARK    1  A    between atoms: C_1  and  C_2
REMARK    2  A    between atoms: C_4  and  C_5
REMARK    3  A    between atoms: C_8  and  C_9
REMARK    4  A    between atoms: C_9  and  O_11
REMARK    5  A    between atoms: O_11  and  C_12
REMARK    6  A    between atoms: C_12  and  C_13
REMARK    7  A    between atoms: C_13  and  C_15
REMARK                            x       y       z     vdW  Elec       q    Type
REMARK                         _______ _______ _______ _____ _____    ______ ____
ROOT
ATOM      1  O   UNL     1       1.208   3.323  19.887  0.00  0.00    +0.000 OA
ENDROOT
BRANCH   1   2
ATOM      2  C   UNL     1       1.782   4.059  20.902  0.00  0.00    +0.000 C 
ATOM      3  O   UNL     1       2.139   3.551  21.961  0.00  0.00    +0.000 OA
BRANCH   2  11
ATOM      4  C   UNL     1       1.991  10.584  17.823  0.00  0.00    +0.000 C 
ATOM      5  C   UNL     1       1.723   9.450  18.775  0.00  0.00    +0.000 A 
ATOM      6  C   UNL     1       0.833   9.765  19.920  0.00  0.00    +0.000 A 
ATOM      7  C   UNL     1       0.755   8.847  20.894  0.00  0.00    +0.000 A 
ATOM      8  C   UNL     1      -0.135   9.153  22.065  0.00  0.00    +0.000 C 
ATOM      9  N   UNL     1       1.410   7.605  20.709  0.00  0.00    +0.000 N 
ATOM     10  N   UNL     1       1.448   6.486  21.483  0.00  0.00    +0.000 NA
ATOM     11  C   UNL     1       1.845   5.523  20.613  0.00  0.00    +0.000 A 
ATOM     12  N   UNL     1       2.244   6.029  19.394  0.00  0.00    +0.000 NA
ATOM     13  C   UNL     1       2.049   7.325  19.489  0.00  0.00    +0.000 A 
ATOM     14  N   UNL     1       2.283   8.298  18.559  0.00  0.00    +0.000 NA
ENDBRANCH   2  11
ENDBRANCH   1   2
BRANCH   1  15
ATOM     15  C   UNL     1       2.064   2.320  19.285  0.00  0.00    +0.000 C 
BRANCH  15  16
ATOM     16  C   UNL     1       2.736   2.856  18.022  0.00  0.00    +0.000 C 
ATOM     17  O   UNL     1       2.119   2.777  16.949  0.00  0.00    +0.000 OA
BRANCH  16  18
ATOM     18  C   UNL     1       4.105   3.401  18.020  0.00  0.00    +0.000 A 
ATOM     19  C   UNL     1       4.814   3.453  19.206  0.00  0.00    +0.000 A 
ATOM     20  N   UNL     1       6.030   4.015  18.990  0.00  0.00    +0.000 N 
ATOM     21  C   UNL     1       6.156   4.347  17.668  0.00  0.00    +0.000 A 
ATOM     22  C   UNL     1       7.243   4.969  17.028  0.00  0.00    +0.000 A 
ATOM     23  C   UNL     1       7.140   5.206  15.658  0.00  0.00    +0.000 A 
ATOM     24  C   UNL     1       5.994   4.831  14.965  0.00  0.00    +0.000 A 
ATOM     25  C   UNL     1       4.912   4.212  15.623  0.00  0.00    +0.000 A 
ATOM     26  C   UNL     1       4.980   3.950  17.009  0.00  0.00    +0.000 A 
ATOM     27  H   UNL     1       6.729   4.171  19.701  0.00  0.00    +0.000 HD
ENDBRANCH  16  18
ENDBRANCH  15  16
ENDBRANCH   1  15
TORSDOF 5
ENDMDL
MODEL 3
REMARK VINA RESULT:      -8.0      1.597      7.961
REMARK  Name = 
REMARK  7 active torsions:
REMARK  status: ('A' for Active; 'I' for Inactive)
REMARK    1  A    between atoms: C_1  and  C_2
REMARK    2  A    between atoms: C_4  and  C_5
REMARK    3  A    between atoms: C_8  and  C_9
REMARK    4  A    between atoms: C_9  and  O_11
REMARK    5  A    between atoms: O_11  and  C_12
REMARK    6  A    between atoms: C_12  and  C_13
REMARK    7  A    between atoms: C_13  and  C_15
REMARK                            x       y       z     vdW  Elec       q    Type
REMARK                         _______ _______ _______ _____ _____    ______ ____
ROOT
ATOM      1  O   UNL     1       2.180   5.591  18.775  0.00  0.00    +0.000 OA
ENDROOT
BRANCH   1   2
ATOM      2  C   UNL     1       2.086   6.027  20.081  0.00  0.00    +0.000 C 
ATOM      3  O   UNL     1       2.207   5.268  21.038  0.00  0.00    +0.000 OA
BRANCH   2  11
ATOM      4  C   UNL     1       0.087  12.867  18.930  0.00  0.00    +0.000 C 
ATOM      5  C   UNL     1       0.312  11.521  19.563  0.00  0.00    +0.000 A 
ATOM      6  C   UNL     1      -0.336  11.311  20.882  0.00  0.00    +0.000 A 
ATOM      7  C   UNL     1       0.025  10.215  21.564  0.00  0.00    +0.000 A 
ATOM      8  C   UNL     1      -0.615   9.991  22.904  0.00  0.00    +0.000 C 
ATOM      9  N   UNL     1       0.884   9.279  20.938  0.00  0.00    +0.000 N 
ATOM     10  N   UNL     1       1.353   8.072  21.356  0.00  0.00    +0.000 NA
ATOM     11  C   UNL     1       1.746   7.477  20.201  0.00  0.00    +0.000 A 
ATOM     12  N   UNL     1       1.725   8.333  19.119  0.00  0.00    +0.000 NA
ATOM     13  C   UNL     1       1.269   9.468  19.599  0.00  0.00    +0.000 A 
ATOM     14  N   UNL     1       1.054  10.649  18.947  0.00  0.00    +0.000 NA
ENDBRANCH   2  11
ENDBRANCH   1   2
BRANCH   1  15
ATOM     15  C   UNL     1       1.611   4.285  18.514  0.00  0.00    +0.000 C 
BRANCH  15  16
ATOM     16  C   UNL     1       2.660   3.331  17.943  0.00  0.00    +0.000 C 
ATOM     17  O   UNL     1       2.287   2.217  17.545  0.00  0.00    +0.000 OA
BRANCH  16  18
ATOM     18  C   UNL     1       4.096   3.657  17.908  0.00  0.00    +0.000 A 
ATOM     19  C   UNL     1       4.837   3.580  19.073  0.00  0.00    +0.000 A 
ATOM     20  N   UNL     1       6.119   3.949  18.829  0.00  0.00    +0.000 N 
ATOM     21  C   UNL     1       6.260   4.277  17.507  0.00  0.00    +0.000 A 
ATOM     22  C   UNL     1       7.413   4.732  16.842  0.00  0.00    +0.000 A 
ATOM     23  C   UNL     1       7.311   5.003  15.479  0.00  0.00    +0.000 A 
ATOM     24  C   UNL     1       6.103   4.820  14.815  0.00  0.00    +0.000 A 
ATOM     25  C   UNL     1       4.955   4.367  15.498  0.00  0.00    +0.000 A 
ATOM     26  C   UNL     1       5.019   4.078  16.878  0.00  0.00    +0.000 A 
ATOM     27  H   UNL     1       6.852   3.985  19.521  0.00  0.00    +0.000 HD
ENDBRANCH  16  18
ENDBRANCH  15  16
ENDBRANCH   1  15
TORSDOF 5
ENDMDL
MODEL 4
REMARK VINA RESULT:      -8.0      3.634      5.134
REMARK  Name = 
REMARK  7 active torsions:
REMARK  status: ('A' for Active; 'I' for Inactive)
REMARK    1  A    between atoms: C_1  and  C_2
REMARK    2  A    between atoms: C_4  and  C_5
REMARK    3  A    between atoms: C_8  and  C_9
REMARK    4  A    between atoms: C_9  and  O_11
REMARK    5  A    between atoms: O_11  and  C_12
REMARK    6  A    between atoms: C_12  and  C_13
REMARK    7  A    between atoms: C_13  and  C_15
REMARK                            x       y       z     vdW  Elec       q    Type
REMARK                         _______ _______ _______ _____ _____    ______ ____
ROOT
ATOM      1  O   UNL     1       5.081   5.940  18.111  0.00  0.00    +0.000 OA
ENDROOT
BRANCH   1   2
ATOM      2  C   UNL     1       6.368   6.020  17.619  0.00  0.00    +0.000 C 
ATOM      3  O   UNL     1       7.245   6.672  18.176  0.00  0.00    +0.000 OA
BRANCH   2  11
ATOM      4  C   UNL     1       5.501   2.381  11.446  0.00  0.00    +0.000 C 
ATOM      5  C   UNL     1       5.999   3.339  12.493  0.00  0.00    +0.000 A 
ATOM      6  C   UNL     1       7.001   4.333  12.035  0.00  0.00    +0.000 A 
ATOM      7  C   UNL     1       7.620   5.049  12.985  0.00  0.00    +0.000 A 
ATOM      8  C   UNL     1       8.643   6.053  12.540  0.00  0.00    +0.000 C 
ATOM      9  N   UNL     1       7.192   4.906  14.328  0.00  0.00    +0.000 N 
ATOM     10  N   UNL     1       7.584   5.539  15.467  0.00  0.00    +0.000 NA
ATOM     11  C   UNL     1       6.552   5.309  16.318  0.00  0.00    +0.000 A 
ATOM     12  N   UNL     1       5.638   4.401  15.825  0.00  0.00    +0.000 NA
ATOM     13  C   UNL     1       6.084   4.095  14.628  0.00  0.00    +0.000 A 
ATOM     14  N   UNL     1       5.551   3.235  13.709  0.00  0.00    +0.000 NA
ENDBRANCH   2  11
ENDBRANCH   1   2
BRANCH   1  15
ATOM     15  C   UNL     1       4.230   7.074  17.811  0.00  0.00    +0.000 C 
BRANCH  15  16
ATOM     16  C   UNL     1       2.768   6.766  18.135  0.00  0.00    +0.000 C 
ATOM     17  O   UNL     1       1.969   7.712  18.200  0.00  0.00    +0.000 OA
BRANCH  16  18
ATOM     18  C   UNL     1       2.289   5.405  18.432  0.00  0.00    +0.000 A 
ATOM     19  C   UNL     1       1.808   4.617  17.402  0.00  0.00    +0.000 A 
ATOM     20  N   UNL     1       1.391   3.423  17.893  0.00  0.00    +0.000 N 
ATOM     21  C   UNL     1       1.583   3.390  19.248  0.00  0.00    +0.000 A 
ATOM     22  C   UNL     1       1.267   2.354  20.145  0.00  0.00    +0.000 A 
ATOM     23  C   UNL     1       1.560   2.551  21.493  0.00  0.00    +0.000 A 
ATOM     24  C   UNL     1       2.147   3.738  21.917  0.00  0.00    +0.000 A 
ATOM     25  C   UNL     1       2.454   4.769  21.005  0.00  0.00    +0.000 A 
ATOM     26  C   UNL     1       2.176   4.604  19.630  0.00  0.00    +0.000 A 
ATOM     27  H   UNL     1       0.991   2.679  17.340  0.00  0.00    +0.000 HD
ENDBRANCH  16  18
ENDBRANCH  15  16
ENDBRANCH   1  15
TORSDOF 5
ENDMDL
MODEL 5
REMARK VINA RESULT:      -8.0      3.166      5.191
REMARK  Name = 
REMARK  7 active torsions:
REMARK  status: ('A' for Active; 'I' for Inactive)
REMARK    1  A    between atoms: C_1  and  C_2
REMARK    2  A    between atoms: C_4  and  C_5
REMARK    3  A    between atoms: C_8  and  C_9
REMARK    4  A    between atoms: C_9  and  O_11
REMARK    5  A    between atoms: O_11  and  C_12
REMARK    6  A    between atoms: C_12  and  C_13
REMARK    7  A    between atoms: C_13  and  C_15
REMARK                            x       y       z     vdW  Elec       q    Type
REMARK                         _______ _______ _______ _____ _____    ______ ____
ROOT
ATOM      1  O   UNL     1       5.293   7.285  17.352  0.00  0.00    +0.000 OA
ENDROOT
BRANCH   1   2
ATOM      2  C   UNL     1       6.071   6.160  17.538  0.00  0.00    +0.000 C 
ATOM      3  O   UNL     1       6.534   5.856  18.633  0.00  0.00    +0.000 OA
BRANCH   2  11
ATOM      4  C   UNL     1       5.670   2.345  11.424  0.00  0.00    +0.000 C 
ATOM      5  C   UNL     1       6.085   3.336  12.477  0.00  0.00    +0.000 A 
ATOM      6  C   UNL     1       7.112   4.325  12.063  0.00  0.00    +0.000 A 
ATOM      7  C   UNL     1       7.657   5.071  13.035  0.00  0.00    +0.000 A 
ATOM      8  C   UNL     1       8.703   6.072  12.635  0.00  0.00    +0.000 C 
ATOM      9  N   UNL     1       7.135   4.962  14.347  0.00  0.00    +0.000 N 
ATOM     10  N   UNL     1       7.441   5.630  15.493  0.00  0.00    +0.000 NA
ATOM     11  C   UNL     1       6.352   5.415  16.274  0.00  0.00    +0.000 A 
ATOM     12  N   UNL     1       5.481   4.487  15.743  0.00  0.00    +0.000 NA
ATOM     13  C   UNL     1       6.013   4.151  14.589  0.00  0.00    +0.000 A 
ATOM     14  N   UNL     1       5.553   3.262  13.660  0.00  0.00    +0.000 NA
ENDBRANCH   2  11
ENDBRANCH   1   2
BRANCH   1  15
ATOM     15  C   UNL     1       3.928   7.034  16.936  0.00  0.00    +0.000 C 
BRANCH  15  16
ATOM     16  C   UNL     1       2.945   7.316  18.072  0.00  0.00    +0.000 C 
ATOM     17  O   UNL     1       2.669   8.497  18.330  0.00  0.00    +0.000 OA
BRANCH  16  18
ATOM     18  C   UNL     1       2.367   6.249  18.906  0.00  0.00    +0.000 A 
ATOM     19  C   UNL     1       1.904   6.556  20.173  0.00  0.00    +0.000 A 
ATOM     20  N   UNL     1       1.445   5.433  20.780  0.00  0.00    +0.000 N 
ATOM     21  C   UNL     1       1.589   4.362  19.938  0.00  0.00    +0.000 A 
ATOM     22  C   UNL     1       1.263   3.016  20.180  0.00  0.00    +0.000 A 
ATOM     23  C   UNL     1       1.503   2.097  19.160  0.00  0.00    +0.000 A 
ATOM     24  C   UNL     1       2.044   2.517  17.950  0.00  0.00    +0.000 A 
ATOM     25  C   UNL     1       2.369   3.870  17.725  0.00  0.00    +0.000 A 
ATOM     26  C   UNL     1       2.137   4.832  18.732  0.00  0.00    +0.000 A 
ATOM     27  H   UNL     1       1.064   5.395  21.714  0.00  0.00    +0.000 HD
ENDBRANCH  16  18
ENDBRANCH  15  16
ENDBRANCH   1  15
TORSDOF 5
ENDMDL
MODEL 6
REMARK VINA RESULT:      -8.0      2.467      3.882
REMARK  Name = 
REMARK  7 active torsions:
REMARK  status: ('A' for Active; 'I' for Inactive)
REMARK    1  A    between atoms: C_1  and  C_2
REMARK    2  A    between atoms: C_4  and  C_5
REMARK    3  A    between atoms: C_8  and  C_9
REMARK    4  A    between atoms: C_9  and  O_11
REMARK    5  A    between atoms: O_11  and  C_12
REMARK    6  A    between atoms: C_12  and  C_13
REMARK    7  A    between atoms: C_13  and  C_15
REMARK                            x       y       z     vdW  Elec       q    Type
REMARK                         _______ _______ _______ _____ _____    ______ ____
ROOT
ATOM      1  O   UNL     1       3.431   1.508  18.902  0.00  0.00    +0.000 OA
ENDROOT
BRANCH   1   2
ATOM      2  C   UNL     1       4.483   2.122  19.550  0.00  0.00    +0.000 C 
ATOM      3  O   UNL     1       4.922   1.716  20.621  0.00  0.00    +0.000 OA
BRANCH   2  11
ATOM      4  C   UNL     1       7.949   8.141  17.584  0.00  0.00    +0.000 C 
ATOM      5  C   UNL     1       7.205   6.833  17.553  0.00  0.00    +0.000 A 
ATOM      6  C   UNL     1       7.053   6.208  16.215  0.00  0.00    +0.000 A 
ATOM      7  C   UNL     1       6.213   5.167  16.127  0.00  0.00    +0.000 A 
ATOM      8  C   UNL     1       6.041   4.528  14.779  0.00  0.00    +0.000 C 
ATOM      9  N   UNL     1       5.638   4.659  17.317  0.00  0.00    +0.000 N 
ATOM     10  N   UNL     1       4.819   3.593  17.533  0.00  0.00    +0.000 NA
ATOM     11  C   UNL     1       4.964   3.358  18.862  0.00  0.00    +0.000 A 
ATOM     12  N   UNL     1       5.675   4.346  19.511  0.00  0.00    +0.000 NA
ATOM     13  C   UNL     1       6.018   5.188  18.562  0.00  0.00    +0.000 A 
ATOM     14  N   UNL     1       6.735   6.348  18.662  0.00  0.00    +0.000 NA
ENDBRANCH   2  11
ENDBRANCH   1   2
BRANCH   1  15
ATOM     15  C   UNL     1       2.110   1.914  19.337  0.00  0.00    +0.000 C 
BRANCH  15  16
ATOM     16  C   UNL     1       1.691   3.226  18.676  0.00  0.00    +0.000 C 
ATOM     17  O   UNL     1       1.332   3.198  17.489  0.00  0.00    +0.000 OA
BRANCH  16  18
ATOM     18  C   UNL     1       1.758   4.523  19.370  0.00  0.00    +0.000 A 
ATOM     19  C   UNL     1       1.600   4.565  20.744  0.00  0.00    +0.000 A 
ATOM     20  N   UNL     1       1.663   5.849  21.176  0.00  0.00    +0.000 N 
ATOM     21  C   UNL     1       1.864   6.684  20.109  0.00  0.00    +0.000 A 
ATOM     22  C   UNL     1       1.966   8.087  20.111  0.00  0.00    +0.000 A 
ATOM     23  C   UNL     1       2.173   8.724  18.889  0.00  0.00    +0.000 A 
ATOM     24  C   UNL     1       2.276   7.980  17.718  0.00  0.00    +0.000 A 
ATOM     25  C   UNL     1       2.168   6.574  17.734  0.00  0.00    +0.000 A 
ATOM     26  C   UNL     1       1.962   5.893  18.953  0.00  0.00    +0.000 A 
ATOM     27  H   UNL     1       1.567   6.141  22.137  0.00  0.00    +0.000 HD
ENDBRANCH  16  18
ENDBRANCH  15  16
ENDBRANCH   1  15
TORSDOF 5
ENDMDL
MODEL 7
REMARK VINA RESULT:      -7.9      5.218      7.855
REMARK  Name = 
REMARK  7 active torsions:
REMARK  status: ('A' for Active; 'I' for Inactive)
REMARK    1  A    between atoms: C_1  and  C_2
REMARK    2  A    between atoms: C_4  and  C_5
REMARK    3  A    between atoms: C_8  and  C_9
REMARK    4  A    between atoms: C_9  and  O_11
REMARK    5  A    between atoms: O_11  and  C_12
REMARK    6  A    between atoms: C_12  and  C_13
REMARK    7  A    between atoms: C_13  and  C_15
REMARK                            x       y       z     vdW  Elec       q    Type
REMARK                         _______ _______ _______ _____ _____    ______ ____
ROOT
ATOM      1  O   UNL     1       7.248   7.959  17.142  0.00  0.00    +0.000 OA
ENDROOT
BRANCH   1   2
ATOM      2  C   UNL     1       8.135   8.123  18.186  0.00  0.00    +0.000 C 
ATOM      3  O   UNL     1       8.456   7.199  18.927  0.00  0.00    +0.000 OA
BRANCH   2  11
ATOM      4  C   UNL     1       8.964  15.290  17.974  0.00  0.00    +0.000 C 
ATOM      5  C   UNL     1       8.937  13.858  18.433  0.00  0.00    +0.000 A 
ATOM      6  C   UNL     1       9.225  13.636  19.873  0.00  0.00    +0.000 A 
ATOM      7  C   UNL     1       9.425  12.368  20.260  0.00  0.00    +0.000 A 
ATOM      8  C   UNL     1       9.725  12.126  21.710  0.00  0.00    +0.000 C 
ATOM      9  N   UNL     1       9.222  11.331  19.316  0.00  0.00    +0.000 N 
ATOM     10  N   UNL     1       9.286   9.978  19.442  0.00  0.00    +0.000 NA
ATOM     11  C   UNL     1       8.590   9.535  18.364  0.00  0.00    +0.000 A 
ATOM     12  N   UNL     1       8.272  10.541  17.477  0.00  0.00    +0.000 NA
ATOM     13  C   UNL     1       8.738  11.637  18.033  0.00  0.00    +0.000 A 
ATOM     14  N   UNL     1       8.690  12.921  17.567  0.00  0.00    +0.000 NA
ENDBRANCH   2  11
ENDBRANCH   1   2
BRANCH   1  15
ATOM     15  C   UNL     1       6.976   6.586  16.766  0.00  0.00    +0.000 C 
BRANCH  15  16
ATOM     16  C   UNL     1       5.501   6.242  16.969  0.00  0.00    +0.000 C 
ATOM     17  O   UNL     1       4.649   6.966  16.432  0.00  0.00    +0.000 OA
BRANCH  16  18
ATOM     18  C   UNL     1       5.054   5.129  17.825  0.00  0.00    +0.000 A 
ATOM     19  C   UNL     1       5.988   4.431  18.570  0.00  0.00    +0.000 A 
ATOM     20  N   UNL     1       5.376   3.435  19.257  0.00  0.00    +0.000 N 
ATOM     21  C   UNL     1       4.033   3.446  18.987  0.00  0.00    +0.000 A 
ATOM     22  C   UNL     1       3.042   2.573  19.471  0.00  0.00    +0.000 A 
ATOM     23  C   UNL     1       1.730   2.786  19.052  0.00  0.00    +0.000 A 
ATOM     24  C   UNL     1       1.430   3.833  18.188  0.00  0.00    +0.000 A 
ATOM     25  C   UNL     1       2.437   4.697  17.710  0.00  0.00    +0.000 A 
ATOM     26  C   UNL     1       3.777   4.517  18.114  0.00  0.00    +0.000 A 
ATOM     27  H   UNL     1       5.844   2.780  19.866  0.00  0.00    +0.000 HD
ENDBRANCH  16  18
ENDBRANCH  15  16
ENDBRANCH   1  15
TORSDOF 5
ENDMDL
MODEL 8
REMARK VINA RESULT:      -7.9      3.589      9.097
REMARK  Name = 
REMARK  7 active torsions:
REMARK  status: ('A' for Active; 'I' for Inactive)
REMARK    1  A    between atoms: C_1  and  C_2
REMARK    2  A    between atoms: C_4  and  C_5
REMARK    3  A    between atoms: C_8  and  C_9
REMARK    4  A    between atoms: C_9  and  O_11
REMARK    5  A    between atoms: O_11  and  C_12
REMARK    6  A    between atoms: C_12  and  C_13
REMARK    7  A    between atoms: C_13  and  C_15
REMARK                            x       y       z     vdW  Elec       q    Type
REMARK                         _______ _______ _______ _____ _____    ______ ____
ROOT
ATOM      1  O   UNL     1       1.085   9.068  17.806  0.00  0.00    +0.000 OA
ENDROOT
BRANCH   1   2
ATOM      2  C   UNL     1       0.603  10.218  18.397  0.00  0.00    +0.000 C 
ATOM      3  O   UNL     1       1.313  10.960  19.069  0.00  0.00    +0.000 OA
BRANCH   2  11
ATOM      4  C   UNL     1      -6.213  12.595  18.476  0.00  0.00    +0.000 C 
ATOM      5  C   UNL     1      -4.909  11.977  18.048  0.00  0.00    +0.000 A 
ATOM      6  C   UNL     1      -4.828  11.558  16.627  0.00  0.00    +0.000 A 
ATOM      7  C   UNL     1      -3.772  10.811  16.277  0.00  0.00    +0.000 A 
ATOM      8  C   UNL     1      -3.678  10.371  14.844  0.00  0.00    +0.000 C 
ATOM      9  N   UNL     1      -2.754  10.584  17.236  0.00  0.00    +0.000 N 
ATOM     10  N   UNL     1      -1.562   9.934  17.143  0.00  0.00    +0.000 NA
ATOM     11  C   UNL     1      -0.866  10.415  18.203  0.00  0.00    +0.000 A 
ATOM     12  N   UNL     1      -1.637  11.177  19.055  0.00  0.00    +0.000 NA
ATOM     13  C   UNL     1      -2.824  11.209  18.492  0.00  0.00    +0.000 A 
ATOM     14  N   UNL     1      -3.962  11.830  18.926  0.00  0.00    +0.000 NA
ENDBRANCH   2  11
ENDBRANCH   1   2
BRANCH   1  15
ATOM     15  C   UNL     1       2.422   8.678  18.206  0.00  0.00    +0.000 C 
BRANCH  15  16
ATOM     16  C   UNL     1       2.390   7.444  19.107  0.00  0.00    +0.000 C 
ATOM     17  O   UNL     1       2.180   7.607  20.319  0.00  0.00    +0.000 OA
BRANCH  16  18
ATOM     18  C   UNL     1       2.660   6.086  18.606  0.00  0.00    +0.000 A 
ATOM     19  C   UNL     1       3.605   5.906  17.613  0.00  0.00    +0.000 A 
ATOM     20  N   UNL     1       3.675   4.594  17.276  0.00  0.00    +0.000 N 
ATOM     21  C   UNL     1       2.786   3.877  18.030  0.00  0.00    +0.000 A 
ATOM     22  C   UNL     1       2.522   2.496  17.984  0.00  0.00    +0.000 A 
ATOM     23  C   UNL     1       1.563   1.989  18.859  0.00  0.00    +0.000 A 
ATOM     24  C   UNL     1       0.903   2.835  19.743  0.00  0.00    +0.000 A 
ATOM     25  C   UNL     1       1.177   4.218  19.774  0.00  0.00    +0.000 A 
ATOM     26  C   UNL     1       2.144   4.769  18.906  0.00  0.00    +0.000 A 
ATOM     27  H   UNL     1       4.285   4.210  16.569  0.00  0.00    +0.000 HD
ENDBRANCH  16  18
ENDBRANCH  15  16
ENDBRANCH   1  15
TORSDOF 5
ENDMDL
MODEL 9
REMARK VINA RESULT:      -7.8      1.822      6.624
REMARK  Name = 
REMARK  7 active torsions:
REMARK  status: ('A' for Active; 'I' for Inactive)
REMARK    1  A    between atoms: C_1  and  C_2
REMARK    2  A    between atoms: C_4  and  C_5
REMARK    3  A    between atoms: C_8  and  C_9
REMARK    4  A    between atoms: C_9  and  O_11
REMARK    5  A    between atoms: O_11  and  C_12
REMARK    6  A    between atoms: C_12  and  C_13
REMARK    7  A    between atoms: C_13  and  C_15
REMARK                            x       y       z     vdW  Elec       q    Type
REMARK                         _______ _______ _______ _____ _____    ______ ____
ROOT
ATOM      1  O   UNL     1       1.825   3.153  19.346  0.00  0.00    +0.000 OA
ENDROOT
BRANCH   1   2
ATOM      2  C   UNL     1       1.968   3.873  20.514  0.00  0.00    +0.000 C 
ATOM      3  O   UNL     1       1.979   3.338  21.619  0.00  0.00    +0.000 OA
BRANCH   2  11
ATOM      4  C   UNL     1       1.969  10.555  17.783  0.00  0.00    +0.000 C 
ATOM      5  C   UNL     1       1.779   9.373  18.694  0.00  0.00    +0.000 A 
ATOM      6  C   UNL     1       1.012   9.633  19.938  0.00  0.00    +0.000 A 
ATOM      7  C   UNL     1       1.017   8.664  20.865  0.00  0.00    +0.000 A 
ATOM      8  C   UNL     1       0.253   8.914  22.132  0.00  0.00    +0.000 C 
ATOM      9  N   UNL     1       1.632   7.428  20.549  0.00  0.00    +0.000 N 
ATOM     10  N   UNL     1       1.729   6.268  21.255  0.00  0.00    +0.000 NA
ATOM     11  C   UNL     1       2.024   5.350  20.299  0.00  0.00    +0.000 A 
ATOM     12  N   UNL     1       2.307   5.918  19.074  0.00  0.00    +0.000 NA
ATOM     13  C   UNL     1       2.143   7.209  19.258  0.00  0.00    +0.000 A 
ATOM     14  N   UNL     1       2.298   8.229  18.362  0.00  0.00    +0.000 NA
ENDBRANCH   2  11
ENDBRANCH   1   2
BRANCH   1  15
ATOM     15  C   UNL     1       2.848   2.157  19.100  0.00  0.00    +0.000 C 
BRANCH  15  16
ATOM     16  C   UNL     1       4.246   2.765  19.205  0.00  0.00    +0.000 C 
ATOM     17  O   UNL     1       4.951   2.454  20.177  0.00  0.00    +0.000 OA
BRANCH  16  18
ATOM     18  C   UNL     1       4.760   3.749  18.236  0.00  0.00    +0.000 A 
ATOM     19  C   UNL     1       4.235   3.776  16.957  0.00  0.00    +0.000 A 
ATOM     20  N   UNL     1       4.865   4.726  16.221  0.00  0.00    +0.000 N 
ATOM     21  C   UNL     1       5.815   5.347  16.988  0.00  0.00    +0.000 A 
ATOM     22  C   UNL     1       6.704   6.369  16.610  0.00  0.00    +0.000 A 
ATOM     23  C   UNL     1       7.589   6.848  17.575  0.00  0.00    +0.000 A 
ATOM     24  C   UNL     1       7.575   6.323  18.863  0.00  0.00    +0.000 A 
ATOM     25  C   UNL     1       6.678   5.296  19.224  0.00  0.00    +0.000 A 
ATOM     26  C   UNL     1       5.764   4.787  18.275  0.00  0.00    +0.000 A 
ATOM     27  H   UNL     1       4.667   4.934  15.253  0.00  0.00    +0.000 HD
ENDBRANCH  16  18
ENDBRANCH  15  16
ENDBRANCH   1  15
TORSDOF 5
ENDMDL
