MODEL 1
REMARK VINA RESULT:      -7.5      0.000      0.000
REMARK  Name = 
REMARK  5 active torsions:
REMARK  status: ('A' for Active; 'I' for Inactive)
REMARK    1  A    between atoms: C_1  and  O_2
REMARK    2  A    between atoms: O_2  and  C_3
REMARK    3  A    between atoms: C_9  and  C_10
REMARK    4  A    between atoms: N_11  and  N_12
REMARK    5  A    between atoms: N_12  and  C_13
REMARK                            x       y       z     vdW  Elec       q    Type
REMARK                         _______ _______ _______ _____ _____    ______ ____
ROOT
ATOM      1  C   UNL     1       2.160   6.038  19.698  0.00  0.00    +0.000 A 
ATOM      2  C   UNL     1       1.593   5.251  20.695  0.00  0.00    +0.000 A 
ATOM      3  C   UNL     1       1.623   3.855  20.614  0.00  0.00    +0.000 A 
ATOM      4  C   UNL     1       2.277   3.277  19.518  0.00  0.00    +0.000 A 
ATOM      5  N   UNL     1       2.454   1.953  19.198  0.00  0.00    +0.000 N 
ATOM      6  C   UNL     1       3.180   1.841  18.044  0.00  0.00    +0.000 A 
ATOM      7  C   UNL     1       3.500   3.111  17.592  0.00  0.00    +0.000 A 
ATOM      8  C   UNL     1       2.873   4.031  18.503  0.00  0.00    +0.000 A 
ATOM      9  C   UNL     1       2.750   5.437  18.579  0.00  0.00    +0.000 A 
ATOM     10  H   UNL     1       2.101   1.180  19.746  0.00  0.00    +0.000 HD
ENDROOT
BRANCH   1  12
ATOM     11  C   UNL     1       2.379   8.013  18.423  0.00  0.00    +0.000 C 
ATOM     12  O   UNL     1       2.181   7.407  19.697  0.00  0.00    +0.000 OA
ENDBRANCH   1  12
BRANCH   7  13
ATOM     13  C   UNL     1       4.298   3.331  16.391  0.00  0.00    +0.000 C 
ATOM     14  N   UNL     1       5.517   3.779  16.307  0.00  0.00    +0.000 NA
BRANCH  14  15
ATOM     15  N   UNL     1       6.196   4.017  17.454  0.00  0.00    +0.000 N 
ATOM     16  H   UNL     1       6.668   3.246  17.926  0.00  0.00    +0.000 HD
BRANCH  15  17
ATOM     17  C   UNL     1       6.742   5.281  17.724  0.00  0.00    +0.000 A 
ATOM     18  C   UNL     1       7.736   5.506  18.683  0.00  0.00    +0.000 A 
ATOM     19  C   UNL     1       8.285   6.781  18.864  0.00  0.00    +0.000 A 
ATOM     20  C   UNL     1       7.859   7.840  18.067  0.00  0.00    +0.000 A 
ATOM     21 CL   UNL     1       8.528   9.410  18.287  0.00  0.00    +0.000 Cl
ATOM     22  C   UNL     1       6.901   7.633  17.079  0.00  0.00    +0.000 A 
ATOM     23  C   UNL     1       6.355   6.359  16.906  0.00  0.00    +0.000 A 
ENDBRANCH  15  17
ENDBRANCH  14  15
ENDBRANCH   7  13
TORSDOF 4
ENDMDL
MODEL 2
REMARK VINA RESULT:      -7.5      0.462      1.151
REMARK  Name = 
REMARK  5 active torsions:
REMARK  status: ('A' for Active; 'I' for Inactive)
REMARK    1  A    between atoms: C_1  and  O_2
REMARK    2  A    between atoms: O_2  and  C_3
REMARK    3  A    between atoms: C_9  and  C_10
REMARK    4  A    between atoms: N_11  and  N_12
REMARK    5  A    between atoms: N_12  and  C_13
REMARK                            x       y       z     vdW  Elec       q    Type
REMARK                         _______ _______ _______ _____ _____    ______ ____
ROOT
ATOM      1  C   UNL     1       2.245   6.626  19.468  0.00  0.00    +0.000 A 
ATOM      2  C   UNL     1       1.775   6.011  20.624  0.00  0.00    +0.000 A 
ATOM      3  C   UNL     1       1.836   4.621  20.774  0.00  0.00    +0.000 A 
ATOM      4  C   UNL     1       2.420   3.876  19.742  0.00  0.00    +0.000 A 
ATOM      5  N   UNL     1       2.607   2.520  19.633  0.00  0.00    +0.000 N 
ATOM      6  C   UNL     1       3.246   2.225  18.461  0.00  0.00    +0.000 A 
ATOM      7  C   UNL     1       3.499   3.405  17.780  0.00  0.00    +0.000 A 
ATOM      8  C   UNL     1       2.918   4.457  18.572  0.00  0.00    +0.000 A 
ATOM      9  C   UNL     1       2.765   5.854  18.422  0.00  0.00    +0.000 A 
ATOM     10  H   UNL     1       2.316   1.844  20.328  0.00  0.00    +0.000 HD
ENDROOT
BRANCH   1  12
ATOM     11  C   UNL     1       2.632   8.376  17.931  0.00  0.00    +0.000 C 
ATOM     12  O   UNL     1       2.231   7.976  19.238  0.00  0.00    +0.000 OA
ENDBRANCH   1  12
BRANCH   7  13
ATOM     13  C   UNL     1       4.199   3.430  16.501  0.00  0.00    +0.000 C 
ATOM     14  N   UNL     1       5.443   3.734  16.271  0.00  0.00    +0.000 NA
BRANCH  14  15
ATOM     15  N   UNL     1       6.248   3.995  17.329  0.00  0.00    +0.000 N 
ATOM     16  H   UNL     1       6.780   3.236  17.753  0.00  0.00    +0.000 HD
BRANCH  15  17
ATOM     17  C   UNL     1       6.807   5.269  17.516  0.00  0.00    +0.000 A 
ATOM     18  C   UNL     1       6.442   6.391  16.764  0.00  0.00    +0.000 A 
ATOM     19  C   UNL     1       6.991   7.650  17.038  0.00  0.00    +0.000 A 
ATOM     20  C   UNL     1       7.894   7.800  18.087  0.00  0.00    +0.000 A 
ATOM     21 CL   UNL     1       8.574   9.343  18.426  0.00  0.00    +0.000 Cl
ATOM     22  C   UNL     1       8.242   6.706  18.874  0.00  0.00    +0.000 A 
ATOM     23  C   UNL     1       7.692   5.453  18.593  0.00  0.00    +0.000 A 
ENDBRANCH  15  17
ENDBRANCH  14  15
ENDBRANCH   7  13
TORSDOF 4
ENDMDL
MODEL 3
REMARK VINA RESULT:      -7.4      1.446      2.233
REMARK  Name = 
REMARK  5 active torsions:
REMARK  status: ('A' for Active; 'I' for Inactive)
REMARK    1  A    between atoms: C_1  and  O_2
REMARK    2  A    between atoms: O_2  and  C_3
REMARK    3  A    between atoms: C_9  and  C_10
REMARK    4  A    between atoms: N_11  and  N_12
REMARK    5  A    between atoms: N_12  and  C_13
REMARK                            x       y       z     vdW  Elec       q    Type
REMARK                         _______ _______ _______ _____ _____    ______ ____
ROOT
ATOM      1  C   UNL     1       2.333   7.673  18.779  0.00  0.00    +0.000 A 
ATOM      2  C   UNL     1       1.872   7.834  20.082  0.00  0.00    +0.000 A 
ATOM      3  C   UNL     1       1.524   6.725  20.863  0.00  0.00    +0.000 A 
ATOM      4  C   UNL     1       1.693   5.453  20.304  0.00  0.00    +0.000 A 
ATOM      5  N   UNL     1       1.436   4.215  20.843  0.00  0.00    +0.000 N 
ATOM      6  C   UNL     1       1.775   3.235  19.952  0.00  0.00    +0.000 A 
ATOM      7  C   UNL     1       2.274   3.827  18.803  0.00  0.00    +0.000 A 
ATOM      8  C   UNL     1       2.168   5.248  19.006  0.00  0.00    +0.000 A 
ATOM      9  C   UNL     1       2.431   6.393  18.221  0.00  0.00    +0.000 A 
ATOM     10  H   UNL     1       1.057   4.061  21.768  0.00  0.00    +0.000 HD
ENDROOT
BRANCH   1  12
ATOM     11  C   UNL     1       1.851   9.841  17.977  0.00  0.00    +0.000 C 
ATOM     12  O   UNL     1       2.700   8.697  17.947  0.00  0.00    +0.000 OA
ENDBRANCH   1  12
BRANCH   7  13
ATOM     13  C   UNL     1       2.753   3.045  17.669  0.00  0.00    +0.000 C 
ATOM     14  N   UNL     1       3.982   2.763  17.348  0.00  0.00    +0.000 NA
BRANCH  14  15
ATOM     15  N   UNL     1       4.973   3.163  18.180  0.00  0.00    +0.000 N 
ATOM     16  H   UNL     1       5.486   2.466  18.719  0.00  0.00    +0.000 HD
BRANCH  15  17
ATOM     17  C   UNL     1       5.683   4.349  17.942  0.00  0.00    +0.000 A 
ATOM     18  C   UNL     1       5.508   5.140  16.801  0.00  0.00    +0.000 A 
ATOM     19  C   UNL     1       6.202   6.346  16.648  0.00  0.00    +0.000 A 
ATOM     20  C   UNL     1       7.062   6.784  17.651  0.00  0.00    +0.000 A 
ATOM     21 CL   UNL     1       7.921   8.263  17.467  0.00  0.00    +0.000 Cl
ATOM     22  C   UNL     1       7.224   6.034  18.812  0.00  0.00    +0.000 A 
ATOM     23  C   UNL     1       6.530   4.831  18.957  0.00  0.00    +0.000 A 
ENDBRANCH  15  17
ENDBRANCH  14  15
ENDBRANCH   7  13
TORSDOF 4
ENDMDL
MODEL 4
REMARK VINA RESULT:      -7.3      1.528      2.079
REMARK  Name = 
REMARK  5 active torsions:
REMARK  status: ('A' for Active; 'I' for Inactive)
REMARK    1  A    between atoms: C_1  and  O_2
REMARK    2  A    between atoms: O_2  and  C_3
REMARK    3  A    between atoms: C_9  and  C_10
REMARK    4  A    between atoms: N_11  and  N_12
REMARK    5  A    between atoms: N_12  and  C_13
REMARK                            x       y       z     vdW  Elec       q    Type
REMARK                         _______ _______ _______ _____ _____    ______ ____
ROOT
ATOM      1  C   UNL     1       2.354   7.608  18.773  0.00  0.00    +0.000 A 
ATOM      2  C   UNL     1       1.888   7.784  20.072  0.00  0.00    +0.000 A 
ATOM      3  C   UNL     1       1.492   6.689  20.849  0.00  0.00    +0.000 A 
ATOM      4  C   UNL     1       1.617   5.412  20.291  0.00  0.00    +0.000 A 
ATOM      5  N   UNL     1       1.308   4.185  20.826  0.00  0.00    +0.000 N 
ATOM      6  C   UNL     1       1.616   3.193  19.936  0.00  0.00    +0.000 A 
ATOM      7  C   UNL     1       2.148   3.767  18.792  0.00  0.00    +0.000 A 
ATOM      8  C   UNL     1       2.094   5.190  18.996  0.00  0.00    +0.000 A 
ATOM      9  C   UNL     1       2.407   6.325  18.214  0.00  0.00    +0.000 A 
ATOM     10  H   UNL     1       0.916   4.044  21.747  0.00  0.00    +0.000 HD
ENDROOT
BRANCH   1  12
ATOM     11  C   UNL     1       1.945   9.782  17.948  0.00  0.00    +0.000 C 
ATOM     12  O   UNL     1       2.766   8.617  17.945  0.00  0.00    +0.000 OA
ENDBRANCH   1  12
BRANCH   7  13
ATOM     13  C   UNL     1       2.605   2.967  17.661  0.00  0.00    +0.000 C 
ATOM     14  N   UNL     1       3.823   2.621  17.362  0.00  0.00    +0.000 NA
BRANCH  14  15
ATOM     15  N   UNL     1       4.817   2.959  18.216  0.00  0.00    +0.000 N 
ATOM     16  H   UNL     1       5.349   2.225  18.682  0.00  0.00    +0.000 HD
BRANCH  15  17
ATOM     17  C   UNL     1       5.504   4.175  18.082  0.00  0.00    +0.000 A 
ATOM     18  C   UNL     1       6.197   4.793  19.129  0.00  0.00    +0.000 A 
ATOM     19  C   UNL     1       6.915   5.976  18.918  0.00  0.00    +0.000 A 
ATOM     20  C   UNL     1       6.967   6.538  17.646  0.00  0.00    +0.000 A 
ATOM     21 CL   UNL     1       7.846   7.994  17.381  0.00  0.00    +0.000 Cl
ATOM     22  C   UNL     1       6.320   5.922  16.579  0.00  0.00    +0.000 A 
ATOM     23  C   UNL     1       5.603   4.743  16.798  0.00  0.00    +0.000 A 
ENDBRANCH  15  17
ENDBRANCH  14  15
ENDBRANCH   7  13
TORSDOF 4
ENDMDL
MODEL 5
REMARK VINA RESULT:      -7.1      3.960      6.658
REMARK  Name = 
REMARK  5 active torsions:
REMARK  status: ('A' for Active; 'I' for Inactive)
REMARK    1  A    between atoms: C_1  and  O_2
REMARK    2  A    between atoms: O_2  and  C_3
REMARK    3  A    between atoms: C_9  and  C_10
REMARK    4  A    between atoms: N_11  and  N_12
REMARK    5  A    between atoms: N_12  and  C_13
REMARK                            x       y       z     vdW  Elec       q    Type
REMARK                         _______ _______ _______ _____ _____    ______ ____
ROOT
ATOM      1  C   UNL     1       5.790   3.406  12.383  0.00  0.00    +0.000 A 
ATOM      2  C   UNL     1       7.001   4.034  12.109  0.00  0.00    +0.000 A 
ATOM      3  C   UNL     1       7.635   4.825  13.074  0.00  0.00    +0.000 A 
ATOM      4  C   UNL     1       7.033   4.930  14.333  0.00  0.00    +0.000 A 
ATOM      5  N   UNL     1       7.437   5.628  15.445  0.00  0.00    +0.000 N 
ATOM      6  C   UNL     1       6.555   5.428  16.472  0.00  0.00    +0.000 A 
ATOM      7  C   UNL     1       5.552   4.575  16.040  0.00  0.00    +0.000 A 
ATOM      8  C   UNL     1       5.826   4.303  14.654  0.00  0.00    +0.000 A 
ATOM      9  C   UNL     1       5.174   3.580  13.629  0.00  0.00    +0.000 A 
ATOM     10  H   UNL     1       8.270   6.199  15.491  0.00  0.00    +0.000 HD
ENDROOT
BRANCH   1  12
ATOM     11  C   UNL     1       3.865   3.146  11.041  0.00  0.00    +0.000 C 
ATOM     12  O   UNL     1       5.102   2.612  11.504  0.00  0.00    +0.000 OA
ENDBRANCH   1  12
BRANCH   7  13
ATOM     13  C   UNL     1       4.469   4.142  16.916  0.00  0.00    +0.000 C 
ATOM     14  N   UNL     1       3.680   4.879  17.644  0.00  0.00    +0.000 NA
BRANCH  14  15
ATOM     15  N   UNL     1       3.792   6.225  17.555  0.00  0.00    +0.000 N 
ATOM     16  H   UNL     1       4.200   6.639  16.717  0.00  0.00    +0.000 HD
BRANCH  15  17
ATOM     17  C   UNL     1       2.917   7.072  18.252  0.00  0.00    +0.000 A 
ATOM     18  C   UNL     1       2.509   6.846  19.571  0.00  0.00    +0.000 A 
ATOM     19  C   UNL     1       1.681   7.760  20.234  0.00  0.00    +0.000 A 
ATOM     20  C   UNL     1       1.275   8.924  19.589  0.00  0.00    +0.000 A 
ATOM     21 CL   UNL     1       0.256  10.049  20.398  0.00  0.00    +0.000 Cl
ATOM     22  C   UNL     1       1.701   9.191  18.291  0.00  0.00    +0.000 A 
ATOM     23  C   UNL     1       2.524   8.273  17.634  0.00  0.00    +0.000 A 
ENDBRANCH  15  17
ENDBRANCH  14  15
ENDBRANCH   7  13
TORSDOF 4
ENDMDL
MODEL 6
REMARK VINA RESULT:      -7.0      3.625      5.111
REMARK  Name = 
REMARK  5 active torsions:
REMARK  status: ('A' for Active; 'I' for Inactive)
REMARK    1  A    between atoms: C_1  and  O_2
REMARK    2  A    between atoms: O_2  and  C_3
REMARK    3  A    between atoms: C_9  and  C_10
REMARK    4  A    between atoms: N_11  and  N_12
REMARK    5  A    between atoms: N_12  and  C_13
REMARK                            x       y       z     vdW  Elec       q    Type
REMARK                         _______ _______ _______ _____ _____    ______ ____
ROOT
ATOM      1  C   UNL     1       2.412   3.766  17.850  0.00  0.00    +0.000 A 
ATOM      2  C   UNL     1       1.681   4.949  17.880  0.00  0.00    +0.000 A 
ATOM      3  C   UNL     1       2.324   6.192  17.870  0.00  0.00    +0.000 A 
ATOM      4  C   UNL     1       3.721   6.205  17.787  0.00  0.00    +0.000 A 
ATOM      5  N   UNL     1       4.590   7.268  17.757  0.00  0.00    +0.000 N 
ATOM      6  C   UNL     1       5.878   6.821  17.645  0.00  0.00    +0.000 A 
ATOM      7  C   UNL     1       5.867   5.437  17.588  0.00  0.00    +0.000 A 
ATOM      8  C   UNL     1       4.492   5.040  17.738  0.00  0.00    +0.000 A 
ATOM      9  C   UNL     1       3.812   3.805  17.833  0.00  0.00    +0.000 A 
ATOM     10  H   UNL     1       4.310   8.239  17.806  0.00  0.00    +0.000 HD
ENDROOT
BRANCH   1  12
ATOM     11  C   UNL     1       1.544   1.988  19.138  0.00  0.00    +0.000 C 
ATOM     12  O   UNL     1       1.868   2.509  17.852  0.00  0.00    +0.000 OA
ENDBRANCH   1  12
BRANCH   7  13
ATOM     13  C   UNL     1       7.089   4.655  17.438  0.00  0.00    +0.000 C 
ATOM     14  N   UNL     1       7.844   4.538  16.384  0.00  0.00    +0.000 NA
BRANCH  14  15
ATOM     15  N   UNL     1       7.539   5.274  15.289  0.00  0.00    +0.000 N 
ATOM     16  H   UNL     1       8.115   6.080  15.050  0.00  0.00    +0.000 HD
BRANCH  15  17
ATOM     17  C   UNL     1       6.862   4.703  14.200  0.00  0.00    +0.000 A 
ATOM     18  C   UNL     1       7.455   4.476  12.953  0.00  0.00    +0.000 A 
ATOM     19  C   UNL     1       6.746   3.847  11.923  0.00  0.00    +0.000 A 
ATOM     20  C   UNL     1       5.441   3.416  12.141  0.00  0.00    +0.000 A 
ATOM     21 CL   UNL     1       4.564   2.645  10.878  0.00  0.00    +0.000 Cl
ATOM     22  C   UNL     1       4.842   3.595  13.385  0.00  0.00    +0.000 A 
ATOM     23  C   UNL     1       5.555   4.226  14.407  0.00  0.00    +0.000 A 
ENDBRANCH  15  17
ENDBRANCH  14  15
ENDBRANCH   7  13
TORSDOF 4
ENDMDL
MODEL 7
REMARK VINA RESULT:      -7.0      3.118      5.490
REMARK  Name = 
REMARK  5 active torsions:
REMARK  status: ('A' for Active; 'I' for Inactive)
REMARK    1  A    between atoms: C_1  and  O_2
REMARK    2  A    between atoms: O_2  and  C_3
REMARK    3  A    between atoms: C_9  and  C_10
REMARK    4  A    between atoms: N_11  and  N_12
REMARK    5  A    between atoms: N_12  and  C_13
REMARK                            x       y       z     vdW  Elec       q    Type
REMARK                         _______ _______ _______ _____ _____    ______ ____
ROOT
ATOM      1  C   UNL     1       6.154   4.727  18.482  0.00  0.00    +0.000 A 
ATOM      2  C   UNL     1       6.169   4.401  17.130  0.00  0.00    +0.000 A 
ATOM      3  C   UNL     1       5.004   3.978  16.480  0.00  0.00    +0.000 A 
ATOM      4  C   UNL     1       3.819   3.935  17.224  0.00  0.00    +0.000 A 
ATOM      5  N   UNL     1       2.553   3.566  16.839  0.00  0.00    +0.000 N 
ATOM      6  C   UNL     1       1.685   3.699  17.888  0.00  0.00    +0.000 A 
ATOM      7  C   UNL     1       2.381   4.174  18.987  0.00  0.00    +0.000 A 
ATOM      8  C   UNL     1       3.758   4.270  18.579  0.00  0.00    +0.000 A 
ATOM      9  C   UNL     1       4.970   4.612  19.220  0.00  0.00    +0.000 A 
ATOM     10  H   UNL     1       2.306   3.248  15.911  0.00  0.00    +0.000 HD
ENDROOT
BRANCH   1  12
ATOM     11  C   UNL     1       7.842   6.360  18.734  0.00  0.00    +0.000 C 
ATOM     12  O   UNL     1       7.242   5.153  19.197  0.00  0.00    +0.000 OA
ENDBRANCH   1  12
BRANCH   7  13
ATOM     13  C   UNL     1       1.728   4.452  20.262  0.00  0.00    +0.000 C 
ATOM     14  N   UNL     1       1.795   5.535  20.981  0.00  0.00    +0.000 NA
BRANCH  14  15
ATOM     15  N   UNL     1       2.486   6.591  20.491  0.00  0.00    +0.000 N 
ATOM     16  H   UNL     1       3.389   6.435  20.044  0.00  0.00    +0.000 HD
BRANCH  15  17
ATOM     17  C   UNL     1       1.825   7.755  20.070  0.00  0.00    +0.000 A 
ATOM     18  C   UNL     1       1.080   8.574  20.925  0.00  0.00    +0.000 A 
ATOM     19  C   UNL     1       0.494   9.757  20.459  0.00  0.00    +0.000 A 
ATOM     20  C   UNL     1       0.671  10.144  19.134  0.00  0.00    +0.000 A 
ATOM     21 CL   UNL     1      -0.050  11.595  18.555  0.00  0.00    +0.000 Cl
ATOM     22  C   UNL     1       1.441   9.367  18.274  0.00  0.00    +0.000 A 
ATOM     23  C   UNL     1       2.020   8.187  18.745  0.00  0.00    +0.000 A 
ENDBRANCH  15  17
ENDBRANCH  14  15
ENDBRANCH   7  13
TORSDOF 4
ENDMDL
MODEL 8
REMARK VINA RESULT:      -6.9      3.791      6.562
REMARK  Name = 
REMARK  5 active torsions:
REMARK  status: ('A' for Active; 'I' for Inactive)
REMARK    1  A    between atoms: C_1  and  O_2
REMARK    2  A    between atoms: O_2  and  C_3
REMARK    3  A    between atoms: C_9  and  C_10
REMARK    4  A    between atoms: N_11  and  N_12
REMARK    5  A    between atoms: N_12  and  C_13
REMARK                            x       y       z     vdW  Elec       q    Type
REMARK                         _______ _______ _______ _____ _____    ______ ____
ROOT
ATOM      1  C   UNL     1       6.016   3.584  12.527  0.00  0.00    +0.000 A 
ATOM      2  C   UNL     1       7.066   4.459  12.267  0.00  0.00    +0.000 A 
ATOM      3  C   UNL     1       7.625   5.234  13.289  0.00  0.00    +0.000 A 
ATOM      4  C   UNL     1       7.121   5.071  14.585  0.00  0.00    +0.000 A 
ATOM      5  N   UNL     1       7.484   5.694  15.754  0.00  0.00    +0.000 N 
ATOM      6  C   UNL     1       6.743   5.208  16.796  0.00  0.00    +0.000 A 
ATOM      7  C   UNL     1       5.878   4.239  16.315  0.00  0.00    +0.000 A 
ATOM      8  C   UNL     1       6.079   4.192  14.891  0.00  0.00    +0.000 A 
ATOM      9  C   UNL     1       5.486   3.487  13.820  0.00  0.00    +0.000 A 
ATOM     10  H   UNL     1       8.201   6.403  15.826  0.00  0.00    +0.000 HD
ENDROOT
BRANCH   1  12
ATOM     11  C   UNL     1       4.060   3.116  11.291  0.00  0.00    +0.000 C 
ATOM     12  O   UNL     1       5.412   2.785  11.593  0.00  0.00    +0.000 OA
ENDBRANCH   1  12
BRANCH   7  13
ATOM     13  C   UNL     1       4.968   3.506  17.189  0.00  0.00    +0.000 C 
ATOM     14  N   UNL     1       3.833   3.905  17.686  0.00  0.00    +0.000 NA
BRANCH  14  15
ATOM     15  N   UNL     1       3.360   5.118  17.315  0.00  0.00    +0.000 N 
ATOM     16  H   UNL     1       2.975   5.241  16.379  0.00  0.00    +0.000 HD
BRANCH  15  17
ATOM     17  C   UNL     1       2.869   6.025  18.267  0.00  0.00    +0.000 A 
ATOM     18  C   UNL     1       2.684   7.389  18.013  0.00  0.00    +0.000 A 
ATOM     19  C   UNL     1       2.132   8.233  18.983  0.00  0.00    +0.000 A 
ATOM     20  C   UNL     1       1.736   7.712  20.212  0.00  0.00    +0.000 A 
ATOM     21 CL   UNL     1       1.060   8.745  21.410  0.00  0.00    +0.000 Cl
ATOM     22  C   UNL     1       1.873   6.352  20.474  0.00  0.00    +0.000 A 
ATOM     23  C   UNL     1       2.427   5.516  19.502  0.00  0.00    +0.000 A 
ENDBRANCH  15  17
ENDBRANCH  14  15
ENDBRANCH   7  13
TORSDOF 4
ENDMDL
MODEL 9
REMARK VINA RESULT:      -6.9      3.233      5.643
REMARK  Name = 
REMARK  5 active torsions:
REMARK  status: ('A' for Active; 'I' for Inactive)
REMARK    1  A    between atoms: C_1  and  O_2
REMARK    2  A    between atoms: O_2  and  C_3
REMARK    3  A    between atoms: C_9  and  C_10
REMARK    4  A    between atoms: N_11  and  N_12
REMARK    5  A    between atoms: N_12  and  C_13
REMARK                            x       y       z     vdW  Elec       q    Type
REMARK                         _______ _______ _______ _____ _____    ______ ____
ROOT
ATOM      1  C   UNL     1       6.110   5.016  18.446  0.00  0.00    +0.000 A 
ATOM      2  C   UNL     1       6.142   4.525  17.145  0.00  0.00    +0.000 A 
ATOM      3  C   UNL     1       4.999   3.973  16.557  0.00  0.00    +0.000 A 
ATOM      4  C   UNL     1       3.815   3.969  17.304  0.00  0.00    +0.000 A 
ATOM      5  N   UNL     1       2.568   3.499  16.973  0.00  0.00    +0.000 N 
ATOM      6  C   UNL     1       1.693   3.722  18.000  0.00  0.00    +0.000 A 
ATOM      7  C   UNL     1       2.365   4.360  19.030  0.00  0.00    +0.000 A 
ATOM      8  C   UNL     1       3.737   4.466  18.608  0.00  0.00    +0.000 A 
ATOM      9  C   UNL     1       4.931   4.940  19.197  0.00  0.00    +0.000 A 
ATOM     10  H   UNL     1       2.338   3.058  16.093  0.00  0.00    +0.000 HD
ENDROOT
BRANCH   1  12
ATOM     11  C   UNL     1       7.798   6.667  18.426  0.00  0.00    +0.000 C 
ATOM     12  O   UNL     1       7.176   5.576  19.099  0.00  0.00    +0.000 OA
ENDBRANCH   1  12
BRANCH   7  13
ATOM     13  C   UNL     1       1.697   4.764  20.262  0.00  0.00    +0.000 C 
ATOM     14  N   UNL     1       1.749   5.916  20.865  0.00  0.00    +0.000 NA
BRANCH  14  15
ATOM     15  N   UNL     1       2.437   6.921  20.273  0.00  0.00    +0.000 N 
ATOM     16  H   UNL     1       3.313   6.715  19.794  0.00  0.00    +0.000 HD
BRANCH  15  17
ATOM     17  C   UNL     1       1.781   8.072  19.810  0.00  0.00    +0.000 A 
ATOM     18  C   UNL     1       1.843   8.517  18.484  0.00  0.00    +0.000 A 
ATOM     19  C   UNL     1       1.117   9.639  18.068  0.00  0.00    +0.000 A 
ATOM     20  C   UNL     1       0.301  10.313  18.972  0.00  0.00    +0.000 A 
ATOM     21 CL   UNL     1      -0.591  11.694  18.466  0.00  0.00    +0.000 Cl
ATOM     22  C   UNL     1       0.192   9.866  20.285  0.00  0.00    +0.000 A 
ATOM     23  C   UNL     1       0.921   8.748  20.694  0.00  0.00    +0.000 A 
ENDBRANCH  15  17
ENDBRANCH  14  15
ENDBRANCH   7  13
TORSDOF 4
ENDMDL
