MODEL 1
REMARK VINA RESULT:      -5.9      0.000      0.000
REMARK  Name = 
REMARK  10 active torsions:
REMARK  status: ('A' for Active; 'I' for Inactive)
REMARK    1  A    between atoms: C_1  and  C_2
REMARK    2  A    between atoms: C_2  and  C_3
REMARK    3  A    between atoms: C_7  and  C_8
REMARK    4  A    between atoms: C_8  and  N_9
REMARK    5  A    between atoms: C_10  and  C_12
REMARK    6  A    between atoms: C_12  and  N_13
REMARK    7  A    between atoms: N_13  and  C_14
REMARK    8  A    between atoms: N_13  and  C_15
REMARK    9  A    between atoms: C_15  and  C_16
REMARK   10  A    between atoms: C_15  and  C_17
REMARK                            x       y       z     vdW  Elec       q    Type
REMARK                         _______ _______ _______ _____ _____    ______ ____
ROOT
ATOM      1  N   UNL     1       3.106   5.288  18.117  0.00  0.00    +0.000 N 
ATOM      2  C   UNL     1       2.534   5.633  19.322  0.00  0.00    +0.000 C 
ATOM      3  O   UNL     1       2.687   6.735  19.849  0.00  0.00    +0.000 OA
ATOM      4  H   UNL     1       3.186   4.290  17.937  0.00  0.00    +0.000 HD
ENDROOT
BRANCH   1   5
ATOM      5  C   UNL     1       4.007   6.205  17.464  0.00  0.00    +0.000 C 
BRANCH   5  10
ATOM      6  C   UNL     1       6.128   5.214  16.286  0.00  0.00    +0.000 A 
ATOM      7  C   UNL     1       7.434   4.762  16.683  0.00  0.00    +0.000 A 
ATOM      8  C   UNL     1       7.645   4.853  18.037  0.00  0.00    +0.000 A 
ATOM      9  S   UNL     1       6.278   5.456  18.851  0.00  0.00    +0.000 S 
ATOM     10  C   UNL     1       5.387   5.623  17.390  0.00  0.00    +0.000 A 
BRANCH   6  12
ATOM     11  C   UNL     1       6.001   3.944  14.116  0.00  0.00    +0.000 C 
ATOM     12  C   UNL     1       5.685   5.240  14.848  0.00  0.00    +0.000 C 
ENDBRANCH   6  12
ENDBRANCH   5  10
ENDBRANCH   1   5
BRANCH   2  13
ATOM     13  C   UNL     1       1.607   4.566  19.913  0.00  0.00    +0.000 C 
BRANCH  13  14
ATOM     14  N   UNL     1       2.346   3.353  20.371  0.00  0.00    +0.000 NA
ATOM     15  C   UNL     1       2.010   3.105  21.787  0.00  0.00    +0.000 C 
BRANCH  14  16
ATOM     16  C   UNL     1       1.982   2.169  19.535  0.00  0.00    +0.000 C 
ATOM     17  C   UNL     1       0.752   2.431  18.648  0.00  0.00    +0.000 C 
ATOM     18  C   UNL     1       3.126   1.731  18.602  0.00  0.00    +0.000 C 
ENDBRANCH  14  16
ENDBRANCH  13  14
ENDBRANCH   2  13
TORSDOF 6
ENDMDL
MODEL 2
REMARK VINA RESULT:      -5.9      1.515      2.151
REMARK  Name = 
REMARK  10 active torsions:
REMARK  status: ('A' for Active; 'I' for Inactive)
REMARK    1  A    between atoms: C_1  and  C_2
REMARK    2  A    between atoms: C_2  and  C_3
REMARK    3  A    between atoms: C_7  and  C_8
REMARK    4  A    between atoms: C_8  and  N_9
REMARK    5  A    between atoms: C_10  and  C_12
REMARK    6  A    between atoms: C_12  and  N_13
REMARK    7  A    between atoms: N_13  and  C_14
REMARK    8  A    between atoms: N_13  and  C_15
REMARK    9  A    between atoms: C_15  and  C_16
REMARK   10  A    between atoms: C_15  and  C_17
REMARK                            x       y       z     vdW  Elec       q    Type
REMARK                         _______ _______ _______ _____ _____    ______ ____
ROOT
ATOM      1  N   UNL     1       3.323   5.932  17.972  0.00  0.00    +0.000 N 
ATOM      2  C   UNL     1       3.558   5.327  19.187  0.00  0.00    +0.000 C 
ATOM      3  O   UNL     1       4.599   5.482  19.826  0.00  0.00    +0.000 OA
ATOM      4  H   UNL     1       2.605   5.498  17.396  0.00  0.00    +0.000 HD
ENDROOT
BRANCH   1   5
ATOM      5  C   UNL     1       4.361   6.713  17.349  0.00  0.00    +0.000 C 
BRANCH   5  10
ATOM      6  C   UNL     1       6.800   5.777  17.145  0.00  0.00    +0.000 A 
ATOM      7  C   UNL     1       7.462   4.720  16.428  0.00  0.00    +0.000 A 
ATOM      8  C   UNL     1       6.613   4.006  15.620  0.00  0.00    +0.000 A 
ATOM      9  S   UNL     1       5.020   4.603  15.690  0.00  0.00    +0.000 S 
ATOM     10  C   UNL     1       5.447   5.822  16.825  0.00  0.00    +0.000 A 
BRANCH   6  12
ATOM     11  C   UNL     1       7.777   8.060  17.557  0.00  0.00    +0.000 C 
ATOM     12  C   UNL     1       7.524   6.669  18.117  0.00  0.00    +0.000 C 
ENDBRANCH   6  12
ENDBRANCH   5  10
ENDBRANCH   1   5
BRANCH   2  13
ATOM     13  C   UNL     1       2.378   4.517  19.733  0.00  0.00    +0.000 C 
BRANCH  13  14
ATOM     14  N   UNL     1       2.779   3.155  20.192  0.00  0.00    +0.000 NA
ATOM     15  C   UNL     1       2.259   2.946  21.558  0.00  0.00    +0.000 C 
BRANCH  14  16
ATOM     16  C   UNL     1       2.245   2.110  19.266  0.00  0.00    +0.000 C 
ATOM     17  C   UNL     1       0.851   2.466  18.719  0.00  0.00    +0.000 C 
ATOM     18  C   UNL     1       3.160   1.874  18.051  0.00  0.00    +0.000 C 
ENDBRANCH  14  16
ENDBRANCH  13  14
ENDBRANCH   2  13
TORSDOF 6
ENDMDL
MODEL 3
REMARK VINA RESULT:      -5.7      2.432      6.194
REMARK  Name = 
REMARK  10 active torsions:
REMARK  status: ('A' for Active; 'I' for Inactive)
REMARK    1  A    between atoms: C_1  and  C_2
REMARK    2  A    between atoms: C_2  and  C_3
REMARK    3  A    between atoms: C_7  and  C_8
REMARK    4  A    between atoms: C_8  and  N_9
REMARK    5  A    between atoms: C_10  and  C_12
REMARK    6  A    between atoms: C_12  and  N_13
REMARK    7  A    between atoms: N_13  and  C_14
REMARK    8  A    between atoms: N_13  and  C_15
REMARK    9  A    between atoms: C_15  and  C_16
REMARK   10  A    between atoms: C_15  and  C_17
REMARK                            x       y       z     vdW  Elec       q    Type
REMARK                         _______ _______ _______ _____ _____    ______ ____
ROOT
ATOM      1  N   UNL     1       5.697   3.659  18.660  0.00  0.00    +0.000 N 
ATOM      2  C   UNL     1       6.730   4.555  18.830  0.00  0.00    +0.000 C 
ATOM      3  O   UNL     1       6.869   5.237  19.845  0.00  0.00    +0.000 OA
ATOM      4  H   UNL     1       5.493   3.399  17.698  0.00  0.00    +0.000 HD
ENDROOT
BRANCH   1   5
ATOM      5  C   UNL     1       4.663   3.561  19.660  0.00  0.00    +0.000 C 
BRANCH   5  10
ATOM      6  C   UNL     1       2.101   3.071  19.412  0.00  0.00    +0.000 A 
ATOM      7  C   UNL     1       1.038   3.462  18.525  0.00  0.00    +0.000 A 
ATOM      8  C   UNL     1       1.456   4.308  17.528  0.00  0.00    +0.000 A 
ATOM      9  S   UNL     1       3.125   4.626  17.624  0.00  0.00    +0.000 S 
ATOM     10  C   UNL     1       3.308   3.643  19.024  0.00  0.00    +0.000 A 
BRANCH   6  12
ATOM     11  C   UNL     1       1.657   2.958  21.887  0.00  0.00    +0.000 C 
ATOM     12  C   UNL     1       1.872   2.177  20.600  0.00  0.00    +0.000 C 
ENDBRANCH   6  12
ENDBRANCH   5  10
ENDBRANCH   1   5
BRANCH   2  13
ATOM     13  C   UNL     1       7.754   4.566  17.691  0.00  0.00    +0.000 C 
BRANCH  13  14
ATOM     14  N   UNL     1       7.441   5.587  16.648  0.00  0.00    +0.000 NA
ATOM     15  C   UNL     1       6.684   4.933  15.562  0.00  0.00    +0.000 C 
BRANCH  14  16
ATOM     16  C   UNL     1       6.646   6.709  17.234  0.00  0.00    +0.000 C 
ATOM     17  C   UNL     1       7.484   7.984  17.432  0.00  0.00    +0.000 C 
ATOM     18  C   UNL     1       5.437   7.094  16.360  0.00  0.00    +0.000 C 
ENDBRANCH  14  16
ENDBRANCH  13  14
ENDBRANCH   2  13
TORSDOF 6
ENDMDL
MODEL 4
REMARK VINA RESULT:      -5.7      2.562      5.916
REMARK  Name = 
REMARK  10 active torsions:
REMARK  status: ('A' for Active; 'I' for Inactive)
REMARK    1  A    between atoms: C_1  and  C_2
REMARK    2  A    between atoms: C_2  and  C_3
REMARK    3  A    between atoms: C_7  and  C_8
REMARK    4  A    between atoms: C_8  and  N_9
REMARK    5  A    between atoms: C_10  and  C_12
REMARK    6  A    between atoms: C_12  and  N_13
REMARK    7  A    between atoms: N_13  and  C_14
REMARK    8  A    between atoms: N_13  and  C_15
REMARK    9  A    between atoms: C_15  and  C_16
REMARK   10  A    between atoms: C_15  and  C_17
REMARK                            x       y       z     vdW  Elec       q    Type
REMARK                         _______ _______ _______ _____ _____    ______ ____
ROOT
ATOM      1  N   UNL     1       5.215   3.660  17.873  0.00  0.00    +0.000 N 
ATOM      2  C   UNL     1       5.601   4.062  16.613  0.00  0.00    +0.000 C 
ATOM      3  O   UNL     1       4.888   3.936  15.618  0.00  0.00    +0.000 OA
ATOM      4  H   UNL     1       5.970   3.512  18.539  0.00  0.00    +0.000 HD
ENDROOT
BRANCH   1   5
ATOM      5  C   UNL     1       3.962   2.971  18.051  0.00  0.00    +0.000 C 
BRANCH   5  10
ATOM      6  C   UNL     1       2.436   4.777  19.182  0.00  0.00    +0.000 A 
ATOM      7  C   UNL     1       1.793   4.959  20.455  0.00  0.00    +0.000 A 
ATOM      8  C   UNL     1       2.039   3.932  21.332  0.00  0.00    +0.000 A 
ATOM      9  S   UNL     1       3.060   2.751  20.654  0.00  0.00    +0.000 S 
ATOM     10  C   UNL     1       3.170   3.596  19.160  0.00  0.00    +0.000 A 
BRANCH   6  12
ATOM     11  C   UNL     1       2.738   7.158  18.425  0.00  0.00    +0.000 C 
ATOM     12  C   UNL     1       2.279   5.757  18.051  0.00  0.00    +0.000 C 
ENDBRANCH   6  12
ENDBRANCH   5  10
ENDBRANCH   1   5
BRANCH   2  13
ATOM     13  C   UNL     1       6.958   4.773  16.561  0.00  0.00    +0.000 C 
BRANCH  13  14
ATOM     14  N   UNL     1       6.825   6.255  16.453  0.00  0.00    +0.000 NA
ATOM     15  C   UNL     1       5.470   6.571  15.957  0.00  0.00    +0.000 C 
BRANCH  14  16
ATOM     16  C   UNL     1       7.056   6.902  17.780  0.00  0.00    +0.000 C 
ATOM     17  C   UNL     1       7.831   5.993  18.750  0.00  0.00    +0.000 C 
ATOM     18  C   UNL     1       7.847   8.218  17.665  0.00  0.00    +0.000 C 
ENDBRANCH  14  16
ENDBRANCH  13  14
ENDBRANCH   2  13
TORSDOF 6
ENDMDL
MODEL 5
REMARK VINA RESULT:      -5.7      1.641      2.513
REMARK  Name = 
REMARK  10 active torsions:
REMARK  status: ('A' for Active; 'I' for Inactive)
REMARK    1  A    between atoms: C_1  and  C_2
REMARK    2  A    between atoms: C_2  and  C_3
REMARK    3  A    between atoms: C_7  and  C_8
REMARK    4  A    between atoms: C_8  and  N_9
REMARK    5  A    between atoms: C_10  and  C_12
REMARK    6  A    between atoms: C_12  and  N_13
REMARK    7  A    between atoms: N_13  and  C_14
REMARK    8  A    between atoms: N_13  and  C_15
REMARK    9  A    between atoms: C_15  and  C_16
REMARK   10  A    between atoms: C_15  and  C_17
REMARK                            x       y       z     vdW  Elec       q    Type
REMARK                         _______ _______ _______ _____ _____    ______ ____
ROOT
ATOM      1  N   UNL     1       3.503   5.794  18.141  0.00  0.00    +0.000 N 
ATOM      2  C   UNL     1       4.019   5.295  19.317  0.00  0.00    +0.000 C 
ATOM      3  O   UNL     1       5.119   5.623  19.761  0.00  0.00    +0.000 OA
ATOM      4  H   UNL     1       2.767   5.236  17.712  0.00  0.00    +0.000 HD
ENDROOT
BRANCH   1   5
ATOM      5  C   UNL     1       4.303   6.670  17.323  0.00  0.00    +0.000 C 
BRANCH   5  10
ATOM      6  C   UNL     1       6.757   6.096  16.605  0.00  0.00    +0.000 A 
ATOM      7  C   UNL     1       7.413   5.074  15.835  0.00  0.00    +0.000 A 
ATOM      8  C   UNL     1       6.541   4.148  15.318  0.00  0.00    +0.000 A 
ATOM      9  S   UNL     1       4.927   4.501  15.727  0.00  0.00    +0.000 S 
ATOM     10  C   UNL     1       5.380   5.898  16.623  0.00  0.00    +0.000 A 
BRANCH   6  12
ATOM     11  C   UNL     1       8.065   6.768  18.648  0.00  0.00    +0.000 C 
ATOM     12  C   UNL     1       7.514   7.196  17.297  0.00  0.00    +0.000 C 
ENDBRANCH   6  12
ENDBRANCH   5  10
ENDBRANCH   1   5
BRANCH   2  13
ATOM     13  C   UNL     1       3.072   4.367  20.084  0.00  0.00    +0.000 C 
BRANCH  13  14
ATOM     14  N   UNL     1       3.048   2.983  19.527  0.00  0.00    +0.000 NA
ATOM     15  C   UNL     1       4.245   2.263  20.007  0.00  0.00    +0.000 C 
BRANCH  14  16
ATOM     16  C   UNL     1       1.806   2.267  19.951  0.00  0.00    +0.000 C 
ATOM     17  C   UNL     1       1.279   2.757  21.311  0.00  0.00    +0.000 C 
ATOM     18  C   UNL     1       0.658   2.428  18.937  0.00  0.00    +0.000 C 
ENDBRANCH  14  16
ENDBRANCH  13  14
ENDBRANCH   2  13
TORSDOF 6
ENDMDL
MODEL 6
REMARK VINA RESULT:      -5.7      2.142      5.969
REMARK  Name = 
REMARK  10 active torsions:
REMARK  status: ('A' for Active; 'I' for Inactive)
REMARK    1  A    between atoms: C_1  and  C_2
REMARK    2  A    between atoms: C_2  and  C_3
REMARK    3  A    between atoms: C_7  and  C_8
REMARK    4  A    between atoms: C_8  and  N_9
REMARK    5  A    between atoms: C_10  and  C_12
REMARK    6  A    between atoms: C_12  and  N_13
REMARK    7  A    between atoms: N_13  and  C_14
REMARK    8  A    between atoms: N_13  and  C_15
REMARK    9  A    between atoms: C_15  and  C_16
REMARK   10  A    between atoms: C_15  and  C_17
REMARK                            x       y       z     vdW  Elec       q    Type
REMARK                         _______ _______ _______ _____ _____    ______ ____
ROOT
ATOM      1  N   UNL     1       5.180   3.271  18.803  0.00  0.00    +0.000 N 
ATOM      2  C   UNL     1       5.520   4.604  18.730  0.00  0.00    +0.000 C 
ATOM      3  O   UNL     1       5.317   5.402  19.645  0.00  0.00    +0.000 OA
ATOM      4  H   UNL     1       5.092   2.790  17.911  0.00  0.00    +0.000 HD
ENDROOT
BRANCH   1   5
ATOM      5  C   UNL     1       4.466   2.777  19.954  0.00  0.00    +0.000 C 
BRANCH   5  10
ATOM      6  C   UNL     1       2.002   3.629  20.215  0.00  0.00    +0.000 A 
ATOM      7  C   UNL     1       0.716   3.311  19.655  0.00  0.00    +0.000 A 
ATOM      8  C   UNL     1       0.766   2.281  18.748  0.00  0.00    +0.000 A 
ATOM      9  S   UNL     1       2.344   1.668  18.573  0.00  0.00    +0.000 S 
ATOM     10  C   UNL     1       2.988   2.793  19.703  0.00  0.00    +0.000 A 
BRANCH   6  12
ATOM     11  C   UNL     1       1.830   6.106  20.630  0.00  0.00    +0.000 C 
ATOM     12  C   UNL     1       2.196   4.746  21.204  0.00  0.00    +0.000 C 
ENDBRANCH   6  12
ENDBRANCH   5  10
ENDBRANCH   1   5
BRANCH   2  13
ATOM     13  C   UNL     1       6.265   5.000  17.451  0.00  0.00    +0.000 C 
BRANCH  13  14
ATOM     14  N   UNL     1       5.340   5.366  16.338  0.00  0.00    +0.000 NA
ATOM     15  C   UNL     1       4.887   6.756  16.541  0.00  0.00    +0.000 C 
BRANCH  14  16
ATOM     16  C   UNL     1       6.027   5.229  15.018  0.00  0.00    +0.000 C 
ATOM     17  C   UNL     1       7.543   5.009  15.163  0.00  0.00    +0.000 C 
ATOM     18  C   UNL     1       5.478   4.056  14.186  0.00  0.00    +0.000 C 
ENDBRANCH  14  16
ENDBRANCH  13  14
ENDBRANCH   2  13
TORSDOF 6
ENDMDL
MODEL 7
REMARK VINA RESULT:      -5.6      3.103      6.451
REMARK  Name = 
REMARK  10 active torsions:
REMARK  status: ('A' for Active; 'I' for Inactive)
REMARK    1  A    between atoms: C_1  and  C_2
REMARK    2  A    between atoms: C_2  and  C_3
REMARK    3  A    between atoms: C_7  and  C_8
REMARK    4  A    between atoms: C_8  and  N_9
REMARK    5  A    between atoms: C_10  and  C_12
REMARK    6  A    between atoms: C_12  and  N_13
REMARK    7  A    between atoms: N_13  and  C_14
REMARK    8  A    between atoms: N_13  and  C_15
REMARK    9  A    between atoms: C_15  and  C_16
REMARK   10  A    between atoms: C_15  and  C_17
REMARK                            x       y       z     vdW  Elec       q    Type
REMARK                         _______ _______ _______ _____ _____    ______ ____
ROOT
ATOM      1  N   UNL     1       5.197   5.249  15.623  0.00  0.00    +0.000 N 
ATOM      2  C   UNL     1       6.371   4.933  14.975  0.00  0.00    +0.000 C 
ATOM      3  O   UNL     1       7.413   5.573  15.120  0.00  0.00    +0.000 OA
ATOM      4  H   UNL     1       4.349   4.877  15.202  0.00  0.00    +0.000 HD
ENDROOT
BRANCH   1   5
ATOM      5  C   UNL     1       5.128   6.433  16.442  0.00  0.00    +0.000 C 
BRANCH   5  10
ATOM      6  C   UNL     1       3.214   7.078  18.112  0.00  0.00    +0.000 A 
ATOM      7  C   UNL     1       2.498   6.441  19.184  0.00  0.00    +0.000 A 
ATOM      8  C   UNL     1       2.921   5.157  19.423  0.00  0.00    +0.000 A 
ATOM      9  S   UNL     1       4.192   4.705  18.386  0.00  0.00    +0.000 S 
ATOM     10  C   UNL     1       4.181   6.227  17.585  0.00  0.00    +0.000 A 
BRANCH   6  12
ATOM     11  C   UNL     1       1.485   8.904  18.007  0.00  0.00    +0.000 C 
ATOM     12  C   UNL     1       2.899   8.475  17.649  0.00  0.00    +0.000 C 
ENDBRANCH   6  12
ENDBRANCH   5  10
ENDBRANCH   1   5
BRANCH   2  13
ATOM     13  C   UNL     1       6.307   3.657  14.130  0.00  0.00    +0.000 C 
BRANCH  13  14
ATOM     14  N   UNL     1       5.967   3.931  12.703  0.00  0.00    +0.000 NA
ATOM     15  C   UNL     1       7.221   4.117  11.947  0.00  0.00    +0.000 C 
BRANCH  14  16
ATOM     16  C   UNL     1       5.175   2.803  12.126  0.00  0.00    +0.000 C 
ATOM     17  C   UNL     1       4.070   3.287  11.170  0.00  0.00    +0.000 C 
ATOM     18  C   UNL     1       6.050   1.810  11.338  0.00  0.00    +0.000 C 
ENDBRANCH  14  16
ENDBRANCH  13  14
ENDBRANCH   2  13
TORSDOF 6
ENDMDL
MODEL 8
REMARK VINA RESULT:      -5.6      2.322      5.922
REMARK  Name = 
REMARK  10 active torsions:
REMARK  status: ('A' for Active; 'I' for Inactive)
REMARK    1  A    between atoms: C_1  and  C_2
REMARK    2  A    between atoms: C_2  and  C_3
REMARK    3  A    between atoms: C_7  and  C_8
REMARK    4  A    between atoms: C_8  and  N_9
REMARK    5  A    between atoms: C_10  and  C_12
REMARK    6  A    between atoms: C_12  and  N_13
REMARK    7  A    between atoms: N_13  and  C_14
REMARK    8  A    between atoms: N_13  and  C_15
REMARK    9  A    between atoms: C_15  and  C_16
REMARK   10  A    between atoms: C_15  and  C_17
REMARK                            x       y       z     vdW  Elec       q    Type
REMARK                         _______ _______ _______ _____ _____    ______ ____
ROOT
ATOM      1  N   UNL     1       4.984   4.494  18.650  0.00  0.00    +0.000 N 
ATOM      2  C   UNL     1       6.056   5.323  18.899  0.00  0.00    +0.000 C 
ATOM      3  O   UNL     1       6.745   5.246  19.916  0.00  0.00    +0.000 OA
ATOM      4  H   UNL     1       4.310   4.839  17.971  0.00  0.00    +0.000 HD
ENDROOT
BRANCH   1   5
ATOM      5  C   UNL     1       4.567   3.544  19.651  0.00  0.00    +0.000 C 
BRANCH   5  10
ATOM      6  C   UNL     1       2.000   3.851  20.082  0.00  0.00    +0.000 A 
ATOM      7  C   UNL     1       0.779   3.249  19.618  0.00  0.00    +0.000 A 
ATOM      8  C   UNL     1       0.989   2.234  18.718  0.00  0.00    +0.000 A 
ATOM      9  S   UNL     1       2.647   1.971  18.434  0.00  0.00    +0.000 S 
ATOM     10  C   UNL     1       3.108   3.235  19.506  0.00  0.00    +0.000 A 
BRANCH   6  12
ATOM     11  C   UNL     1       1.951   6.354  20.343  0.00  0.00    +0.000 C 
ATOM     12  C   UNL     1       2.016   5.006  21.045  0.00  0.00    +0.000 C 
ENDBRANCH   6  12
ENDBRANCH   5  10
ENDBRANCH   1   5
BRANCH   2  13
ATOM     13  C   UNL     1       6.388   6.293  17.760  0.00  0.00    +0.000 C 
BRANCH  13  14
ATOM     14  N   UNL     1       7.267   5.678  16.722  0.00  0.00    +0.000 NA
ATOM     15  C   UNL     1       7.802   4.408  17.251  0.00  0.00    +0.000 C 
BRANCH  14  16
ATOM     16  C   UNL     1       6.501   5.436  15.461  0.00  0.00    +0.000 C 
ATOM     17  C   UNL     1       6.131   3.954  15.273  0.00  0.00    +0.000 C 
ATOM     18  C   UNL     1       5.189   6.239  15.404  0.00  0.00    +0.000 C 
ENDBRANCH  14  16
ENDBRANCH  13  14
ENDBRANCH   2  13
TORSDOF 6
ENDMDL
MODEL 9
REMARK VINA RESULT:      -5.6      2.359      5.920
REMARK  Name = 
REMARK  10 active torsions:
REMARK  status: ('A' for Active; 'I' for Inactive)
REMARK    1  A    between atoms: C_1  and  C_2
REMARK    2  A    between atoms: C_2  and  C_3
REMARK    3  A    between atoms: C_7  and  C_8
REMARK    4  A    between atoms: C_8  and  N_9
REMARK    5  A    between atoms: C_10  and  C_12
REMARK    6  A    between atoms: C_12  and  N_13
REMARK    7  A    between atoms: N_13  and  C_14
REMARK    8  A    between atoms: N_13  and  C_15
REMARK    9  A    between atoms: C_15  and  C_16
REMARK   10  A    between atoms: C_15  and  C_17
REMARK                            x       y       z     vdW  Elec       q    Type
REMARK                         _______ _______ _______ _____ _____    ______ ____
ROOT
ATOM      1  N   UNL     1       5.604   3.697  18.163  0.00  0.00    +0.000 N 
ATOM      2  C   UNL     1       6.447   4.731  17.819  0.00  0.00    +0.000 C 
ATOM      3  O   UNL     1       6.725   5.655  18.583  0.00  0.00    +0.000 OA
ATOM      4  H   UNL     1       5.198   3.183  17.384  0.00  0.00    +0.000 HD
ENDROOT
BRANCH   1   5
ATOM      5  C   UNL     1       4.927   3.718  19.435  0.00  0.00    +0.000 C 
BRANCH   5  10
ATOM      6  C   UNL     1       2.399   4.396  19.300  0.00  0.00    +0.000 A 
ATOM      7  C   UNL     1       1.151   3.742  19.013  0.00  0.00    +0.000 A 
ATOM      8  C   UNL     1       1.296   2.403  18.748  0.00  0.00    +0.000 A 
ATOM      9  S   UNL     1       2.920   1.906  18.861  0.00  0.00    +0.000 S 
ATOM     10  C   UNL     1       3.456   3.493  19.252  0.00  0.00    +0.000 A 
BRANCH   6  12
ATOM     11  C   UNL     1       2.919   6.677  18.369  0.00  0.00    +0.000 C 
ATOM     12  C   UNL     1       2.491   5.870  19.586  0.00  0.00    +0.000 C 
ENDBRANCH   6  12
ENDBRANCH   5  10
ENDBRANCH   1   5
BRANCH   2  13
ATOM     13  C   UNL     1       7.093   4.592  16.437  0.00  0.00    +0.000 C 
BRANCH  13  14
ATOM     14  N   UNL     1       6.086   4.489  15.341  0.00  0.00    +0.000 NA
ATOM     15  C   UNL     1       5.427   5.800  15.182  0.00  0.00    +0.000 C 
BRANCH  14  16
ATOM     16  C   UNL     1       6.742   4.079  14.062  0.00  0.00    +0.000 C 
ATOM     17  C   UNL     1       5.725   3.657  12.987  0.00  0.00    +0.000 C 
ATOM     18  C   UNL     1       7.603   5.201  13.454  0.00  0.00    +0.000 C 
ENDBRANCH  14  16
ENDBRANCH  13  14
ENDBRANCH   2  13
TORSDOF 6
ENDMDL
