MODEL 1
REMARK VINA RESULT:      -8.4      0.000      0.000
REMARK  Name = 
REMARK  4 active torsions:
REMARK  status: ('A' for Active; 'I' for Inactive)
REMARK    1  A    between atoms: C_5  and  N_6
REMARK    2  A    between atoms: N_6  and  C_7
REMARK    3  A    between atoms: C_18  and  C_19
REMARK    4  A    between atoms: C_25  and  C_26
REMARK                            x       y       z     vdW  Elec       q    Type
REMARK                         _______ _______ _______ _____ _____    ______ ____
ROOT
ATOM      1  O   UNL     1      -0.129   8.895  21.614  0.00  0.00    +0.000 OA
ATOM      2  C   UNL     1       0.444   9.298  20.607  0.00  0.00    +0.000 C 
ATOM      3  C   UNL     1       0.235  10.665  20.070  0.00  0.00    +0.000 C 
ATOM      4 CL   UNL     1      -0.812  11.665  21.037  0.00  0.00    +0.000 Cl
ATOM      5  C   UNL     1       0.833  11.119  18.954  0.00  0.00    +0.000 C 
ATOM      6  C   UNL     1       1.828  10.226  18.255  0.00  0.00    +0.000 C 
ATOM      7  O   UNL     1       2.451  10.665  17.294  0.00  0.00    +0.000 OA
ATOM      8  C   UNL     1       2.004   8.841  18.735  0.00  0.00    +0.000 A 
ATOM      9  N   UNL     1       2.823   8.010  18.027  0.00  0.00    +0.000 NA
ATOM     10  C   UNL     1       2.983   6.723  18.497  0.00  0.00    +0.000 A 
ATOM     11  C   UNL     1       2.316   6.297  19.663  0.00  0.00    +0.000 A 
ATOM     12  N   UNL     1       1.513   7.164  20.356  0.00  0.00    +0.000 NA
ATOM     13  C   UNL     1       1.362   8.418  19.870  0.00  0.00    +0.000 A 
ENDROOT
BRANCH  10  14
ATOM     14  C   UNL     1       3.856   5.857  17.673  0.00  0.00    +0.000 A 
ATOM     15  C   UNL     1       3.410   4.625  17.186  0.00  0.00    +0.000 A 
ATOM     16  C   UNL     1       4.314   3.767  16.562  0.00  0.00    +0.000 A 
ATOM     17  C   UNL     1       5.642   4.154  16.439  0.00  0.00    +0.000 A 
ATOM     18  C   UNL     1       5.994   5.415  16.884  0.00  0.00    +0.000 A 
ATOM     19  N   UNL     1       5.126   6.284  17.450  0.00  0.00    +0.000 NA
ENDBRANCH  10  14
BRANCH  11  20
ATOM     20  C   UNL     1       2.332   4.938  20.242  0.00  0.00    +0.000 A 
ATOM     21  C   UNL     1       1.143   4.285  20.582  0.00  0.00    +0.000 A 
ATOM     22  C   UNL     1       1.191   2.999  21.113  0.00  0.00    +0.000 A 
ATOM     23  C   UNL     1       2.425   2.396  21.307  0.00  0.00    +0.000 A 
ATOM     24  C   UNL     1       3.558   3.091  20.923  0.00  0.00    +0.000 A 
ATOM     25  N   UNL     1       3.536   4.320  20.361  0.00  0.00    +0.000 NA
ENDBRANCH  11  20
BRANCH   5  26
ATOM     26  N   UNL     1       0.712  12.385  18.379  0.00  0.00    +0.000 N 
ATOM     27  H   UNL     1      -0.238  12.557  18.030  0.00  0.00    +0.000 HD
BRANCH  26  28
ATOM     28  C   UNL     1       1.294  13.582  18.864  0.00  0.00    +0.000 A 
ATOM     29  C   UNL     1       2.664  13.711  19.144  0.00  0.00    +0.000 A 
ATOM     30  C   UNL     1       3.208  14.943  19.512  0.00  0.00    +0.000 A 
ATOM     31  C   UNL     1       2.380  16.050  19.620  0.00  0.00    +0.000 A 
ATOM     32  F   UNL     1       2.907  17.239  19.942  0.00  0.00    +0.000 F 
ATOM     33  C   UNL     1       1.015  15.942  19.395  0.00  0.00    +0.000 A 
ATOM     34  C   UNL     1       0.473  14.709  19.021  0.00  0.00    +0.000 A 
ENDBRANCH  26  28
ENDBRANCH   5  26
TORSDOF 4
ENDMDL
MODEL 2
REMARK VINA RESULT:      -8.4      2.599      4.723
REMARK  Name = 
REMARK  4 active torsions:
REMARK  status: ('A' for Active; 'I' for Inactive)
REMARK    1  A    between atoms: C_5  and  N_6
REMARK    2  A    between atoms: N_6  and  C_7
REMARK    3  A    between atoms: C_18  and  C_19
REMARK    4  A    between atoms: C_25  and  C_26
REMARK                            x       y       z     vdW  Elec       q    Type
REMARK                         _______ _______ _______ _____ _____    ______ ____
ROOT
ATOM      1  O   UNL     1       2.430  10.717  17.503  0.00  0.00    +0.000 OA
ATOM      2  C   UNL     1       1.862  10.356  18.529  0.00  0.00    +0.000 C 
ATOM      3  C   UNL     1       1.141  11.306  19.411  0.00  0.00    +0.000 C 
ATOM      4 CL   UNL     1       1.093  12.942  18.819  0.00  0.00    +0.000 Cl
ATOM      5  C   UNL     1       0.535  10.936  20.554  0.00  0.00    +0.000 C 
ATOM      6  C   UNL     1       0.515   9.472  20.918  0.00  0.00    +0.000 C 
ATOM      7  O   UNL     1      -0.118   9.112  21.905  0.00  0.00    +0.000 OA
ATOM      8  C   UNL     1       1.280   8.520  20.089  0.00  0.00    +0.000 A 
ATOM      9  N   UNL     1       1.345   7.218  20.493  0.00  0.00    +0.000 NA
ATOM     10  C   UNL     1       2.055   6.341  19.699  0.00  0.00    +0.000 A 
ATOM     11  C   UNL     1       2.686   6.789  18.522  0.00  0.00    +0.000 A 
ATOM     12  N   UNL     1       2.586   8.101  18.140  0.00  0.00    +0.000 NA
ATOM     13  C   UNL     1       1.895   8.945  18.940  0.00  0.00    +0.000 A 
ENDROOT
BRANCH  10  14
ATOM     14  C   UNL     1       2.119   4.950  20.201  0.00  0.00    +0.000 A 
ATOM     15  C   UNL     1       0.961   4.194  20.402  0.00  0.00    +0.000 A 
ATOM     16  C   UNL     1       1.052   2.955  21.034  0.00  0.00    +0.000 A 
ATOM     17  C   UNL     1       2.294   2.497  21.454  0.00  0.00    +0.000 A 
ATOM     18  C   UNL     1       3.402   3.269  21.159  0.00  0.00    +0.000 A 
ATOM     19  N   UNL     1       3.345   4.452  20.506  0.00  0.00    +0.000 NA
ENDBRANCH  10  14
BRANCH  11  20
ATOM     20  C   UNL     1       3.536   5.988  17.617  0.00  0.00    +0.000 A 
ATOM     21  C   UNL     1       4.654   6.550  16.992  0.00  0.00    +0.000 A 
ATOM     22  C   UNL     1       5.442   5.765  16.156  0.00  0.00    +0.000 A 
ATOM     23  C   UNL     1       5.092   4.439  15.948  0.00  0.00    +0.000 A 
ATOM     24  C   UNL     1       3.989   3.944  16.619  0.00  0.00    +0.000 A 
ATOM     25  N   UNL     1       3.235   4.671  17.474  0.00  0.00    +0.000 NA
ENDBRANCH  11  20
BRANCH   5  26
ATOM     26  N   UNL     1      -0.177  11.747  21.439  0.00  0.00    +0.000 N 
ATOM     27  H   UNL     1       0.392  12.530  21.781  0.00  0.00    +0.000 HD
BRANCH  26  28
ATOM     28  C   UNL     1      -1.535  12.128  21.316  0.00  0.00    +0.000 A 
ATOM     29  C   UNL     1      -2.179  12.287  20.078  0.00  0.00    +0.000 A 
ATOM     30  C   UNL     1      -3.548  12.552  20.010  0.00  0.00    +0.000 A 
ATOM     31  C   UNL     1      -4.279  12.678  21.183  0.00  0.00    +0.000 A 
ATOM     32  F   UNL     1      -5.597  12.901  21.118  0.00  0.00    +0.000 F 
ATOM     33  C   UNL     1      -3.659  12.572  22.421  0.00  0.00    +0.000 A 
ATOM     34  C   UNL     1      -2.290  12.300  22.487  0.00  0.00    +0.000 A 
ENDBRANCH  26  28
ENDBRANCH   5  26
TORSDOF 4
ENDMDL
MODEL 3
REMARK VINA RESULT:      -8.3      2.659      4.723
REMARK  Name = 
REMARK  4 active torsions:
REMARK  status: ('A' for Active; 'I' for Inactive)
REMARK    1  A    between atoms: C_5  and  N_6
REMARK    2  A    between atoms: N_6  and  C_7
REMARK    3  A    between atoms: C_18  and  C_19
REMARK    4  A    between atoms: C_25  and  C_26
REMARK                            x       y       z     vdW  Elec       q    Type
REMARK                         _______ _______ _______ _____ _____    ______ ____
ROOT
ATOM      1  O   UNL     1       2.413  10.642  17.589  0.00  0.00    +0.000 OA
ATOM      2  C   UNL     1       1.822  10.347  18.623  0.00  0.00    +0.000 C 
ATOM      3  C   UNL     1       1.142  11.363  19.463  0.00  0.00    +0.000 C 
ATOM      4 CL   UNL     1       1.177  12.977  18.810  0.00  0.00    +0.000 Cl
ATOM      5  C   UNL     1       0.510  11.067  20.613  0.00  0.00    +0.000 C 
ATOM      6  C   UNL     1       0.416   9.620  21.032  0.00  0.00    +0.000 C 
ATOM      7  O   UNL     1      -0.240   9.329  22.026  0.00  0.00    +0.000 OA
ATOM      8  C   UNL     1       1.140   8.602  20.246  0.00  0.00    +0.000 A 
ATOM      9  N   UNL     1       1.138   7.314  20.698  0.00  0.00    +0.000 NA
ATOM     10  C   UNL     1       1.811   6.374  19.944  0.00  0.00    +0.000 A 
ATOM     11  C   UNL     1       2.471   6.746  18.756  0.00  0.00    +0.000 A 
ATOM     12  N   UNL     1       2.438   8.047  18.324  0.00  0.00    +0.000 NA
ATOM     13  C   UNL     1       1.782   8.953  19.086  0.00  0.00    +0.000 A 
ENDROOT
BRANCH  10  14
ATOM     14  C   UNL     1       1.803   5.002  20.498  0.00  0.00    +0.000 A 
ATOM     15  C   UNL     1       2.913   4.482  21.171  0.00  0.00    +0.000 A 
ATOM     16  C   UNL     1       2.930   3.134  21.526  0.00  0.00    +0.000 A 
ATOM     17  C   UNL     1       1.842   2.334  21.202  0.00  0.00    +0.000 A 
ATOM     18  C   UNL     1       0.753   2.934  20.597  0.00  0.00    +0.000 A 
ATOM     19  N   UNL     1       0.694   4.249  20.285  0.00  0.00    +0.000 NA
ENDBRANCH  10  14
BRANCH  11  20
ATOM     20  C   UNL     1       3.287   5.872  17.889  0.00  0.00    +0.000 A 
ATOM     21  C   UNL     1       2.914   4.545  17.648  0.00  0.00    +0.000 A 
ATOM     22  C   UNL     1       3.697   3.751  16.815  0.00  0.00    +0.000 A 
ATOM     23  C   UNL     1       4.844   4.291  16.252  0.00  0.00    +0.000 A 
ATOM     24  C   UNL     1       5.136   5.617  16.514  0.00  0.00    +0.000 A 
ATOM     25  N   UNL     1       4.367   6.423  17.279  0.00  0.00    +0.000 NA
ENDBRANCH  11  20
BRANCH   5  26
ATOM     26  N   UNL     1      -0.167  11.944  21.462  0.00  0.00    +0.000 N 
ATOM     27  H   UNL     1       0.351  12.820  21.597  0.00  0.00    +0.000 HD
BRANCH  26  28
ATOM     28  C   UNL     1      -1.563  12.176  21.481  0.00  0.00    +0.000 A 
ATOM     29  C   UNL     1      -2.314  12.252  22.666  0.00  0.00    +0.000 A 
ATOM     30  C   UNL     1      -3.667  12.595  22.638  0.00  0.00    +0.000 A 
ATOM     31  C   UNL     1      -4.283  12.847  21.421  0.00  0.00    +0.000 A 
ATOM     32  F   UNL     1      -5.572  13.207  21.396  0.00  0.00    +0.000 F 
ATOM     33  C   UNL     1      -3.577  12.735  20.230  0.00  0.00    +0.000 A 
ATOM     34  C   UNL     1      -2.221  12.396  20.261  0.00  0.00    +0.000 A 
ENDBRANCH  26  28
ENDBRANCH   5  26
TORSDOF 4
ENDMDL
MODEL 4
REMARK VINA RESULT:      -8.1      3.381      8.671
REMARK  Name = 
REMARK  4 active torsions:
REMARK  status: ('A' for Active; 'I' for Inactive)
REMARK    1  A    between atoms: C_5  and  N_6
REMARK    2  A    between atoms: N_6  and  C_7
REMARK    3  A    between atoms: C_18  and  C_19
REMARK    4  A    between atoms: C_25  and  C_26
REMARK                            x       y       z     vdW  Elec       q    Type
REMARK                         _______ _______ _______ _____ _____    ______ ____
ROOT
ATOM      1  O   UNL     1       0.526   8.362  22.176  0.00  0.00    +0.000 OA
ATOM      2  C   UNL     1       0.956   8.618  21.057  0.00  0.00    +0.000 C 
ATOM      3  C   UNL     1       1.572   7.584  20.189  0.00  0.00    +0.000 C 
ATOM      4 CL   UNL     1       1.545   5.976  20.856  0.00  0.00    +0.000 Cl
ATOM      5  C   UNL     1       2.074   7.848  18.969  0.00  0.00    +0.000 C 
ATOM      6  C   UNL     1       1.933   9.246  18.419  0.00  0.00    +0.000 C 
ATOM      7  O   UNL     1       2.299   9.474  17.270  0.00  0.00    +0.000 OA
ATOM      8  C   UNL     1       1.382  10.303  19.289  0.00  0.00    +0.000 A 
ATOM      9  N   UNL     1       1.364  11.584  18.818  0.00  0.00    +0.000 NA
ATOM     10  C   UNL     1       0.835  12.557  19.641  0.00  0.00    +0.000 A 
ATOM     11  C   UNL     1       0.340  12.224  20.918  0.00  0.00    +0.000 A 
ATOM     12  N   UNL     1       0.361  10.924  21.352  0.00  0.00    +0.000 NA
ATOM     13  C   UNL     1       0.895   9.990  20.532  0.00  0.00    +0.000 A 
ENDROOT
BRANCH  10  14
ATOM     14  C   UNL     1       0.869  13.931  19.093  0.00  0.00    +0.000 A 
ATOM     15  C   UNL     1       2.078  14.601  18.882  0.00  0.00    +0.000 A 
ATOM     16  C   UNL     1       2.061  15.949  18.527  0.00  0.00    +0.000 A 
ATOM     17  C   UNL     1       0.842  16.600  18.392  0.00  0.00    +0.000 A 
ATOM     18  C   UNL     1      -0.311  15.854  18.550  0.00  0.00    +0.000 A 
ATOM     19  N   UNL     1      -0.322  14.535  18.848  0.00  0.00    +0.000 NA
ENDBRANCH  10  14
BRANCH  11  20
ATOM     20  C   UNL     1      -0.184  13.162  21.932  0.00  0.00    +0.000 A 
ATOM     21  C   UNL     1      -1.369  12.888  22.623  0.00  0.00    +0.000 A 
ATOM     22  C   UNL     1      -1.830  13.785  23.583  0.00  0.00    +0.000 A 
ATOM     23  C   UNL     1      -1.108  14.944  23.823  0.00  0.00    +0.000 A 
ATOM     24  C   UNL     1       0.068  15.137  23.121  0.00  0.00    +0.000 A 
ATOM     25  N   UNL     1       0.562  14.259  22.220  0.00  0.00    +0.000 NA
ENDBRANCH  11  20
BRANCH   5  26
ATOM     26  N   UNL     1       2.658   6.947  18.077  0.00  0.00    +0.000 N 
ATOM     27  H   UNL     1       2.355   7.116  17.111  0.00  0.00    +0.000 HD
BRANCH  26  28
ATOM     28  C   UNL     1       3.996   6.485  18.112  0.00  0.00    +0.000 A 
ATOM     29  C   UNL     1       4.465   5.561  19.060  0.00  0.00    +0.000 A 
ATOM     30  C   UNL     1       5.763   5.050  18.983  0.00  0.00    +0.000 A 
ATOM     31  C   UNL     1       6.606   5.477  17.968  0.00  0.00    +0.000 A 
ATOM     32  F   UNL     1       7.839   4.965  17.876  0.00  0.00    +0.000 F 
ATOM     33  C   UNL     1       6.184   6.425  17.045  0.00  0.00    +0.000 A 
ATOM     34  C   UNL     1       4.883   6.930  17.120  0.00  0.00    +0.000 A 
ENDBRANCH  26  28
ENDBRANCH   5  26
TORSDOF 4
ENDMDL
MODEL 5
REMARK VINA RESULT:      -8.1      0.742      1.017
REMARK  Name = 
REMARK  4 active torsions:
REMARK  status: ('A' for Active; 'I' for Inactive)
REMARK    1  A    between atoms: C_5  and  N_6
REMARK    2  A    between atoms: N_6  and  C_7
REMARK    3  A    between atoms: C_18  and  C_19
REMARK    4  A    between atoms: C_25  and  C_26
REMARK                            x       y       z     vdW  Elec       q    Type
REMARK                         _______ _______ _______ _____ _____    ______ ____
ROOT
ATOM      1  O   UNL     1       0.151   8.397  21.514  0.00  0.00    +0.000 OA
ATOM      2  C   UNL     1       0.661   8.865  20.502  0.00  0.00    +0.000 C 
ATOM      3  C   UNL     1       0.295  10.203  19.977  0.00  0.00    +0.000 C 
ATOM      4 CL   UNL     1      -0.839  11.078  20.967  0.00  0.00    +0.000 Cl
ATOM      5  C   UNL     1       0.822  10.726  18.855  0.00  0.00    +0.000 C 
ATOM      6  C   UNL     1       1.898   9.950  18.136  0.00  0.00    +0.000 C 
ATOM      7  O   UNL     1       2.454  10.459  17.168  0.00  0.00    +0.000 OA
ATOM      8  C   UNL     1       2.231   8.590  18.603  0.00  0.00    +0.000 A 
ATOM      9  N   UNL     1       3.124   7.858  17.877  0.00  0.00    +0.000 NA
ATOM     10  C   UNL     1       3.431   6.593  18.336  0.00  0.00    +0.000 A 
ATOM     11  C   UNL     1       2.834   6.091  19.509  0.00  0.00    +0.000 A 
ATOM     12  N   UNL     1       1.952   6.862  20.221  0.00  0.00    +0.000 NA
ATOM     13  C   UNL     1       1.657   8.094  19.745  0.00  0.00    +0.000 A 
ENDROOT
BRANCH  10  14
ATOM     14  C   UNL     1       4.381   5.832  17.493  0.00  0.00    +0.000 A 
ATOM     15  C   UNL     1       3.956   4.759  16.705  0.00  0.00    +0.000 A 
ATOM     16  C   UNL     1       4.903   3.965  16.061  0.00  0.00    +0.000 A 
ATOM     17  C   UNL     1       6.252   4.254  16.219  0.00  0.00    +0.000 A 
ATOM     18  C   UNL     1       6.592   5.372  16.958  0.00  0.00    +0.000 A 
ATOM     19  N   UNL     1       5.690   6.186  17.553  0.00  0.00    +0.000 NA
ENDBRANCH  10  14
BRANCH  11  20
ATOM     20  C   UNL     1       3.007   4.739  20.078  0.00  0.00    +0.000 A 
ATOM     21  C   UNL     1       4.077   3.925  19.691  0.00  0.00    +0.000 A 
ATOM     22  C   UNL     1       4.221   2.661  20.256  0.00  0.00    +0.000 A 
ATOM     23  C   UNL     1       3.285   2.228  21.184  0.00  0.00    +0.000 A 
ATOM     24  C   UNL     1       2.268   3.095  21.538  0.00  0.00    +0.000 A 
ATOM     25  N   UNL     1       2.134   4.345  21.042  0.00  0.00    +0.000 NA
ENDBRANCH  11  20
BRANCH   5  26
ATOM     26  N   UNL     1       0.554  11.974  18.291  0.00  0.00    +0.000 N 
ATOM     27  H   UNL     1      -0.441  12.085  18.064  0.00  0.00    +0.000 HD
BRANCH  26  28
ATOM     28  C   UNL     1       1.121  13.209  18.689  0.00  0.00    +0.000 A 
ATOM     29  C   UNL     1       2.437  13.588  18.373  0.00  0.00    +0.000 A 
ATOM     30  C   UNL     1       2.912  14.862  18.690  0.00  0.00    +0.000 A 
ATOM     31  C   UNL     1       2.080  15.759  19.342  0.00  0.00    +0.000 A 
ATOM     32  F   UNL     1       2.525  16.992  19.618  0.00  0.00    +0.000 F 
ATOM     33  C   UNL     1       0.790  15.396  19.708  0.00  0.00    +0.000 A 
ATOM     34  C   UNL     1       0.314  14.122  19.385  0.00  0.00    +0.000 A 
ENDBRANCH  26  28
ENDBRANCH   5  26
TORSDOF 4
ENDMDL
MODEL 6
REMARK VINA RESULT:      -8.0      3.330      8.690
REMARK  Name = 
REMARK  4 active torsions:
REMARK  status: ('A' for Active; 'I' for Inactive)
REMARK    1  A    between atoms: C_5  and  N_6
REMARK    2  A    between atoms: N_6  and  C_7
REMARK    3  A    between atoms: C_18  and  C_19
REMARK    4  A    between atoms: C_25  and  C_26
REMARK                            x       y       z     vdW  Elec       q    Type
REMARK                         _______ _______ _______ _____ _____    ______ ____
ROOT
ATOM      1  O   UNL     1       0.602   8.477  22.230  0.00  0.00    +0.000 OA
ATOM      2  C   UNL     1       0.996   8.716  21.093  0.00  0.00    +0.000 C 
ATOM      3  C   UNL     1       1.576   7.667  20.219  0.00  0.00    +0.000 C 
ATOM      4 CL   UNL     1       1.559   6.068  20.907  0.00  0.00    +0.000 Cl
ATOM      5  C   UNL     1       2.039   7.912  18.980  0.00  0.00    +0.000 C 
ATOM      6  C   UNL     1       1.889   9.304  18.417  0.00  0.00    +0.000 C 
ATOM      7  O   UNL     1       2.218   9.515  17.254  0.00  0.00    +0.000 OA
ATOM      8  C   UNL     1       1.376  10.376  19.291  0.00  0.00    +0.000 A 
ATOM      9  N   UNL     1       1.351  11.651  18.805  0.00  0.00    +0.000 NA
ATOM     10  C   UNL     1       0.856  12.638  19.633  0.00  0.00    +0.000 A 
ATOM     11  C   UNL     1       0.402  12.325  20.930  0.00  0.00    +0.000 A 
ATOM     12  N   UNL     1       0.428  11.030  21.379  0.00  0.00    +0.000 NA
ATOM     13  C   UNL     1       0.928  10.081  20.553  0.00  0.00    +0.000 A 
ENDROOT
BRANCH  10  14
ATOM     14  C   UNL     1       0.882  14.005  19.067  0.00  0.00    +0.000 A 
ATOM     15  C   UNL     1       2.086  14.683  18.855  0.00  0.00    +0.000 A 
ATOM     16  C   UNL     1       2.060  16.025  18.481  0.00  0.00    +0.000 A 
ATOM     17  C   UNL     1       0.837  16.664  18.330  0.00  0.00    +0.000 A 
ATOM     18  C   UNL     1      -0.312  15.910  18.491  0.00  0.00    +0.000 A 
ATOM     19  N   UNL     1      -0.312  14.595  18.806  0.00  0.00    +0.000 NA
ENDBRANCH  10  14
BRANCH  11  20
ATOM     20  C   UNL     1      -0.082  13.279  21.949  0.00  0.00    +0.000 A 
ATOM     21  C   UNL     1       0.529  14.526  22.117  0.00  0.00    +0.000 A 
ATOM     22  C   UNL     1       0.041  15.408  23.077  0.00  0.00    +0.000 A 
ATOM     23  C   UNL     1      -1.036  15.022  23.860  0.00  0.00    +0.000 A 
ATOM     24  C   UNL     1      -1.607  13.785  23.621  0.00  0.00    +0.000 A 
ATOM     25  N   UNL     1      -1.183  12.931  22.663  0.00  0.00    +0.000 NA
ENDBRANCH  11  20
BRANCH   5  26
ATOM     26  N   UNL     1       2.586   6.995  18.080  0.00  0.00    +0.000 N 
ATOM     27  H   UNL     1       2.234   7.140  17.127  0.00  0.00    +0.000 HD
BRANCH  26  28
ATOM     28  C   UNL     1       3.928   6.545  18.060  0.00  0.00    +0.000 A 
ATOM     29  C   UNL     1       4.887   7.029  17.154  0.00  0.00    +0.000 A 
ATOM     30  C   UNL     1       6.224   6.637  17.248  0.00  0.00    +0.000 A 
ATOM     31  C   UNL     1       6.606   5.743  18.237  0.00  0.00    +0.000 A 
ATOM     32  F   UNL     1       7.894   5.392  18.347  0.00  0.00    +0.000 F 
ATOM     33  C   UNL     1       5.671   5.213  19.117  0.00  0.00    +0.000 A 
ATOM     34  C   UNL     1       4.334   5.611  19.025  0.00  0.00    +0.000 A 
ENDBRANCH  26  28
ENDBRANCH   5  26
TORSDOF 4
ENDMDL
MODEL 7
REMARK VINA RESULT:      -8.0      0.873      1.461
REMARK  Name = 
REMARK  4 active torsions:
REMARK  status: ('A' for Active; 'I' for Inactive)
REMARK    1  A    between atoms: C_5  and  N_6
REMARK    2  A    between atoms: N_6  and  C_7
REMARK    3  A    between atoms: C_18  and  C_19
REMARK    4  A    between atoms: C_25  and  C_26
REMARK                            x       y       z     vdW  Elec       q    Type
REMARK                         _______ _______ _______ _____ _____    ______ ____
ROOT
ATOM      1  O   UNL     1      -0.437   9.113  21.445  0.00  0.00    +0.000 OA
ATOM      2  C   UNL     1       0.243   9.505  20.502  0.00  0.00    +0.000 C 
ATOM      3  C   UNL     1       0.161  10.896  19.991  0.00  0.00    +0.000 C 
ATOM      4 CL   UNL     1      -0.901  11.934  20.899  0.00  0.00    +0.000 Cl
ATOM      5  C   UNL     1       0.878  11.341  18.943  0.00  0.00    +0.000 C 
ATOM      6  C   UNL     1       1.873  10.405  18.302  0.00  0.00    +0.000 C 
ATOM      7  O   UNL     1       2.600  10.829  17.409  0.00  0.00    +0.000 OA
ATOM      8  C   UNL     1       1.924   9.000  18.751  0.00  0.00    +0.000 A 
ATOM      9  N   UNL     1       2.749   8.138  18.088  0.00  0.00    +0.000 NA
ATOM     10  C   UNL     1       2.791   6.831  18.530  0.00  0.00    +0.000 A 
ATOM     11  C   UNL     1       2.004   6.418  19.623  0.00  0.00    +0.000 A 
ATOM     12  N   UNL     1       1.198   7.316  20.274  0.00  0.00    +0.000 NA
ATOM     13  C   UNL     1       1.164   8.589  19.816  0.00  0.00    +0.000 A 
ENDROOT
BRANCH  10  14
ATOM     14  C   UNL     1       3.677   5.934  17.755  0.00  0.00    +0.000 A 
ATOM     15  C   UNL     1       4.841   6.410  17.145  0.00  0.00    +0.000 A 
ATOM     16  C   UNL     1       5.555   5.576  16.287  0.00  0.00    +0.000 A 
ATOM     17  C   UNL     1       5.093   4.287  16.053  0.00  0.00    +0.000 A 
ATOM     18  C   UNL     1       3.972   3.866  16.745  0.00  0.00    +0.000 A 
ATOM     19  N   UNL     1       3.290   4.640  17.619  0.00  0.00    +0.000 NA
ENDBRANCH  10  14
BRANCH  11  20
ATOM     20  C   UNL     1       1.889   5.046  20.159  0.00  0.00    +0.000 A 
ATOM     21  C   UNL     1       2.604   4.654  21.296  0.00  0.00    +0.000 A 
ATOM     22  C   UNL     1       2.464   3.358  21.784  0.00  0.00    +0.000 A 
ATOM     23  C   UNL     1       1.626   2.475  21.119  0.00  0.00    +0.000 A 
ATOM     24  C   UNL     1       0.931   2.939  20.018  0.00  0.00    +0.000 A 
ATOM     25  N   UNL     1       1.012   4.206  19.553  0.00  0.00    +0.000 NA
ENDBRANCH  11  20
BRANCH   5  26
ATOM     26  N   UNL     1       0.881  12.626  18.399  0.00  0.00    +0.000 N 
ATOM     27  H   UNL     1      -0.007  12.848  17.937  0.00  0.00    +0.000 HD
BRANCH  26  28
ATOM     28  C   UNL     1       1.442  13.782  18.995  0.00  0.00    +0.000 A 
ATOM     29  C   UNL     1       0.834  15.048  18.937  0.00  0.00    +0.000 A 
ATOM     30  C   UNL     1       1.368  16.133  19.635  0.00  0.00    +0.000 A 
ATOM     31  C   UNL     1       2.524  15.962  20.382  0.00  0.00    +0.000 A 
ATOM     32  F   UNL     1       3.019  16.994  21.077  0.00  0.00    +0.000 F 
ATOM     33  C   UNL     1       3.172  14.734  20.420  0.00  0.00    +0.000 A 
ATOM     34  C   UNL     1       2.633  13.648  19.725  0.00  0.00    +0.000 A 
ENDBRANCH  26  28
ENDBRANCH   5  26
TORSDOF 4
ENDMDL
MODEL 8
REMARK VINA RESULT:      -7.9      3.663      9.126
REMARK  Name = 
REMARK  4 active torsions:
REMARK  status: ('A' for Active; 'I' for Inactive)
REMARK    1  A    between atoms: C_5  and  N_6
REMARK    2  A    between atoms: N_6  and  C_7
REMARK    3  A    between atoms: C_18  and  C_19
REMARK    4  A    between atoms: C_25  and  C_26
REMARK                            x       y       z     vdW  Elec       q    Type
REMARK                         _______ _______ _______ _____ _____    ______ ____
ROOT
ATOM      1  O   UNL     1       0.642   8.702  22.255  0.00  0.00    +0.000 OA
ATOM      2  C   UNL     1       1.014   8.954  21.114  0.00  0.00    +0.000 C 
ATOM      3  C   UNL     1       1.590   7.917  20.222  0.00  0.00    +0.000 C 
ATOM      4 CL   UNL     1       1.601   6.313  20.898  0.00  0.00    +0.000 Cl
ATOM      5  C   UNL     1       2.028   8.176  18.977  0.00  0.00    +0.000 C 
ATOM      6  C   UNL     1       1.854   9.570  18.427  0.00  0.00    +0.000 C 
ATOM      7  O   UNL     1       2.161   9.793  17.260  0.00  0.00    +0.000 OA
ATOM      8  C   UNL     1       1.345  10.630  19.318  0.00  0.00    +0.000 A 
ATOM      9  N   UNL     1       1.297  11.908  18.841  0.00  0.00    +0.000 NA
ATOM     10  C   UNL     1       0.807  12.884  19.686  0.00  0.00    +0.000 A 
ATOM     11  C   UNL     1       0.378  12.557  20.987  0.00  0.00    +0.000 A 
ATOM     12  N   UNL     1       0.426  11.259  21.426  0.00  0.00    +0.000 NA
ATOM     13  C   UNL     1       0.922  10.322  20.585  0.00  0.00    +0.000 A 
ENDROOT
BRANCH  10  14
ATOM     14  C   UNL     1       0.809  14.255  19.129  0.00  0.00    +0.000 A 
ATOM     15  C   UNL     1       2.002  14.941  18.886  0.00  0.00    +0.000 A 
ATOM     16  C   UNL     1       1.958  16.286  18.524  0.00  0.00    +0.000 A 
ATOM     17  C   UNL     1       0.727  16.919  18.414  0.00  0.00    +0.000 A 
ATOM     18  C   UNL     1      -0.412  16.158  18.603  0.00  0.00    +0.000 A 
ATOM     19  N   UNL     1      -0.397  14.841  18.909  0.00  0.00    +0.000 NA
ENDBRANCH  10  14
BRANCH  11  20
ATOM     20  C   UNL     1      -0.098  13.498  22.022  0.00  0.00    +0.000 A 
ATOM     21  C   UNL     1      -1.218  13.202  22.805  0.00  0.00    +0.000 A 
ATOM     22  C   UNL     1      -1.634  14.103  23.781  0.00  0.00    +0.000 A 
ATOM     23  C   UNL     1      -0.933  15.289  23.945  0.00  0.00    +0.000 A 
ATOM     24  C   UNL     1       0.180  15.503  23.153  0.00  0.00    +0.000 A 
ATOM     25  N   UNL     1       0.633  14.623  22.233  0.00  0.00    +0.000 NA
ENDBRANCH  11  20
BRANCH   5  26
ATOM     26  N   UNL     1       2.570   7.272  18.061  0.00  0.00    +0.000 N 
ATOM     27  H   UNL     1       3.337   7.689  17.522  0.00  0.00    +0.000 HD
BRANCH  26  28
ATOM     28  C   UNL     1       2.802   5.893  18.286  0.00  0.00    +0.000 A 
ATOM     29  C   UNL     1       1.887   4.891  17.925  0.00  0.00    +0.000 A 
ATOM     30  C   UNL     1       2.211   3.540  18.065  0.00  0.00    +0.000 A 
ATOM     31  C   UNL     1       3.446   3.184  18.585  0.00  0.00    +0.000 A 
ATOM     32  F   UNL     1       3.769   1.888  18.689  0.00  0.00    +0.000 F 
ATOM     33  C   UNL     1       4.352   4.153  18.994  0.00  0.00    +0.000 A 
ATOM     34  C   UNL     1       4.028   5.505  18.848  0.00  0.00    +0.000 A 
ENDBRANCH  26  28
ENDBRANCH   5  26
TORSDOF 4
ENDMDL
MODEL 9
REMARK VINA RESULT:      -7.8      5.508     10.386
REMARK  Name = 
REMARK  4 active torsions:
REMARK  status: ('A' for Active; 'I' for Inactive)
REMARK    1  A    between atoms: C_5  and  N_6
REMARK    2  A    between atoms: N_6  and  C_7
REMARK    3  A    between atoms: C_18  and  C_19
REMARK    4  A    between atoms: C_25  and  C_26
REMARK                            x       y       z     vdW  Elec       q    Type
REMARK                         _______ _______ _______ _____ _____    ______ ____
ROOT
ATOM      1  O   UNL     1      -4.272  11.345  18.527  0.00  0.00    +0.000 OA
ATOM      2  C   UNL     1      -3.163  11.658  18.948  0.00  0.00    +0.000 C 
ATOM      3  C   UNL     1      -1.912  11.102  18.376  0.00  0.00    +0.000 C 
ATOM      4 CL   UNL     1      -2.152  10.050  17.009  0.00  0.00    +0.000 Cl
ATOM      5  C   UNL     1      -0.687  11.411  18.838  0.00  0.00    +0.000 C 
ATOM      6  C   UNL     1      -0.571  12.436  19.940  0.00  0.00    +0.000 C 
ATOM      7  O   UNL     1       0.544  12.797  20.303  0.00  0.00    +0.000 OA
ATOM      8  C   UNL     1      -1.803  12.953  20.567  0.00  0.00    +0.000 A 
ATOM      9  N   UNL     1      -1.682  13.793  21.635  0.00  0.00    +0.000 NA
ATOM     10  C   UNL     1      -2.845  14.275  22.201  0.00  0.00    +0.000 A 
ATOM     11  C   UNL     1      -4.102  13.902  21.684  0.00  0.00    +0.000 A 
ATOM     12  N   UNL     1      -4.184  13.068  20.600  0.00  0.00    +0.000 NA
ATOM     13  C   UNL     1      -3.031  12.598  20.070  0.00  0.00    +0.000 A 
ENDROOT
BRANCH  10  14
ATOM     14  C   UNL     1      -2.655  15.156  23.375  0.00  0.00    +0.000 A 
ATOM     15  C   UNL     1      -2.487  16.536  23.231  0.00  0.00    +0.000 A 
ATOM     16  C   UNL     1      -2.142  17.304  24.341  0.00  0.00    +0.000 A 
ATOM     17  C   UNL     1      -1.970  16.681  25.570  0.00  0.00    +0.000 A 
ATOM     18  C   UNL     1      -2.221  15.323  25.649  0.00  0.00    +0.000 A 
ATOM     19  N   UNL     1      -2.602  14.565  24.596  0.00  0.00    +0.000 NA
ENDBRANCH  10  14
BRANCH  11  20
ATOM     20  C   UNL     1      -5.424  14.276  22.226  0.00  0.00    +0.000 A 
ATOM     21  C   UNL     1      -6.127  15.373  21.718  0.00  0.00    +0.000 A 
ATOM     22  C   UNL     1      -7.377  15.692  22.240  0.00  0.00    +0.000 A 
ATOM     23  C   UNL     1      -7.894  14.919  23.269  0.00  0.00    +0.000 A 
ATOM     24  C   UNL     1      -7.155  13.834  23.704  0.00  0.00    +0.000 A 
ATOM     25  N   UNL     1      -5.962  13.474  23.181  0.00  0.00    +0.000 NA
ENDBRANCH  11  20
BRANCH   5  26
ATOM     26  N   UNL     1       0.542  10.954  18.362  0.00  0.00    +0.000 N 
ATOM     27  H   UNL     1       1.217  11.719  18.252  0.00  0.00    +0.000 HD
BRANCH  26  28
ATOM     28  C   UNL     1       1.194   9.757  18.746  0.00  0.00    +0.000 A 
ATOM     29  C   UNL     1       1.068   9.190  20.025  0.00  0.00    +0.000 A 
ATOM     30  C   UNL     1       1.638   7.950  20.319  0.00  0.00    +0.000 A 
ATOM     31  C   UNL     1       2.356   7.278  19.341  0.00  0.00    +0.000 A 
ATOM     32  F   UNL     1       2.876   6.075  19.613  0.00  0.00    +0.000 F 
ATOM     33  C   UNL     1       2.536   7.836  18.082  0.00  0.00    +0.000 A 
ATOM     34  C   UNL     1       1.959   9.075  17.787  0.00  0.00    +0.000 A 
ENDBRANCH  26  28
ENDBRANCH   5  26
TORSDOF 4
ENDMDL
