MODEL 1
REMARK VINA RESULT:      -8.6      0.000      0.000
REMARK  Name = 
REMARK  2 active torsions:
REMARK  status: ('A' for Active; 'I' for Inactive)
REMARK    1  A    between atoms: C_5  and  C_6
REMARK    2  A    between atoms: C_15  and  C_16
REMARK                            x       y       z     vdW  Elec       q    Type
REMARK                         _______ _______ _______ _____ _____    ______ ____
ROOT
ATOM      1  C   UNL     1       3.491   4.839  18.514  0.00  0.00    +0.000 A 
ATOM      2  N   UNL     1       4.342   3.960  17.907  0.00  0.00    +0.000 NA
ATOM      3  C   UNL     1       5.000   4.400  16.822  0.00  0.00    +0.000 A 
ATOM      4  C   UNL     1       5.879   3.550  16.157  0.00  0.00    +0.000 A 
ATOM      5  C   UNL     1       6.561   3.960  15.010  0.00  0.00    +0.000 A 
ATOM      6  C   UNL     1       6.362   5.244  14.521  0.00  0.00    +0.000 A 
ATOM      7  C   UNL     1       5.492   6.110  15.187  0.00  0.00    +0.000 A 
ATOM      8  C   UNL     1       4.814   5.714  16.332  0.00  0.00    +0.000 A 
ATOM      9  N   UNL     1       4.002   6.585  16.964  0.00  0.00    +0.000 NA
ATOM     10  C   UNL     1       3.338   6.163  18.082  0.00  0.00    +0.000 A 
ENDROOT
BRANCH   1  15
ATOM     11  O   UNL     1       0.819   2.233  22.509  0.00  0.00    +0.000 OA
ATOM     12  C   UNL     1       1.358   2.906  21.637  0.00  0.00    +0.000 A 
ATOM     13  C   UNL     1       0.748   3.041  20.301  0.00  0.00    +0.000 A 
ATOM     14  C   UNL     1       1.389   3.695  19.331  0.00  0.00    +0.000 A 
ATOM     15  C   UNL     1       2.725   4.259  19.658  0.00  0.00    +0.000 A 
ATOM     16  N   UNL     1       3.236   4.237  20.853  0.00  0.00    +0.000 NA
ATOM     17  N   UNL     1       2.538   3.577  21.821  0.00  0.00    +0.000 N 
ATOM     18  H   UNL     1       2.992   3.487  22.724  0.00  0.00    +0.000 HD
ENDBRANCH   1  15
BRANCH  10  19
ATOM     19  C   UNL     1       2.548   7.234  18.745  0.00  0.00    +0.000 A 
ATOM     20  C   UNL     1       2.104   8.354  18.016  0.00  0.00    +0.000 A 
ATOM     21  C   UNL     1       1.322   9.355  18.608  0.00  0.00    +0.000 A 
ATOM     22  C   UNL     1       0.958   9.248  19.945  0.00  0.00    +0.000 A 
ATOM     23 CL   UNL     1      -0.043  10.445  20.667  0.00  0.00    +0.000 Cl
ATOM     24  C   UNL     1       1.408   8.176  20.704  0.00  0.00    +0.000 A 
ATOM     25  C   UNL     1       2.225   7.203  20.117  0.00  0.00    +0.000 A 
ENDBRANCH  10  19
TORSDOF 2
ENDMDL
MODEL 2
REMARK VINA RESULT:      -8.5      0.884      1.039
REMARK  Name = 
REMARK  2 active torsions:
REMARK  status: ('A' for Active; 'I' for Inactive)
REMARK    1  A    between atoms: C_5  and  C_6
REMARK    2  A    between atoms: C_15  and  C_16
REMARK                            x       y       z     vdW  Elec       q    Type
REMARK                         _______ _______ _______ _____ _____    ______ ____
ROOT
ATOM      1  C   UNL     1       3.497   4.503  18.314  0.00  0.00    +0.000 A 
ATOM      2  N   UNL     1       4.319   3.678  17.600  0.00  0.00    +0.000 NA
ATOM      3  C   UNL     1       4.989   4.227  16.573  0.00  0.00    +0.000 A 
ATOM      4  C   UNL     1       5.839   3.438  15.804  0.00  0.00    +0.000 A 
ATOM      5  C   UNL     1       6.533   3.963  14.713  0.00  0.00    +0.000 A 
ATOM      6  C   UNL     1       6.375   5.304  14.385  0.00  0.00    +0.000 A 
ATOM      7  C   UNL     1       5.534   6.108  15.157  0.00  0.00    +0.000 A 
ATOM      8  C   UNL     1       4.845   5.597  16.249  0.00  0.00    +0.000 A 
ATOM      9  N   UNL     1       4.062   6.410  16.987  0.00  0.00    +0.000 NA
ATOM     10  C   UNL     1       3.386   5.875  18.049  0.00  0.00    +0.000 A 
ENDROOT
BRANCH   1  15
ATOM     11  O   UNL     1       0.763   2.381  22.546  0.00  0.00    +0.000 OA
ATOM     12  C   UNL     1       1.376   2.756  21.553  0.00  0.00    +0.000 A 
ATOM     13  C   UNL     1       2.843   2.626  21.477  0.00  0.00    +0.000 A 
ATOM     14  C   UNL     1       3.510   3.125  20.434  0.00  0.00    +0.000 A 
ATOM     15  C   UNL     1       2.715   3.812  19.383  0.00  0.00    +0.000 A 
ATOM     16  N   UNL     1       1.415   3.851  19.381  0.00  0.00    +0.000 NA
ATOM     17  N   UNL     1       0.772   3.310  20.455  0.00  0.00    +0.000 N 
ATOM     18  H   UNL     1      -0.236   3.431  20.487  0.00  0.00    +0.000 HD
ENDBRANCH   1  15
BRANCH  10  19
ATOM     19  C   UNL     1       2.633   6.880  18.843  0.00  0.00    +0.000 A 
ATOM     20  C   UNL     1       2.197   8.081  18.250  0.00  0.00    +0.000 A 
ATOM     21  C   UNL     1       1.448   9.026  18.965  0.00  0.00    +0.000 A 
ATOM     22  C   UNL     1       1.110   8.780  20.291  0.00  0.00    +0.000 A 
ATOM     23 CL   UNL     1       0.148   9.909  21.162  0.00  0.00    +0.000 Cl
ATOM     24  C   UNL     1       1.553   7.623  20.918  0.00  0.00    +0.000 A 
ATOM     25  C   UNL     1       2.338   6.706  20.210  0.00  0.00    +0.000 A 
ENDBRANCH  10  19
TORSDOF 2
ENDMDL
MODEL 3
REMARK VINA RESULT:      -8.5      4.338      6.651
REMARK  Name = 
REMARK  2 active torsions:
REMARK  status: ('A' for Active; 'I' for Inactive)
REMARK    1  A    between atoms: C_5  and  C_6
REMARK    2  A    between atoms: C_15  and  C_16
REMARK                            x       y       z     vdW  Elec       q    Type
REMARK                         _______ _______ _______ _____ _____    ______ ____
ROOT
ATOM      1  C   UNL     1       5.354   4.352  16.749  0.00  0.00    +0.000 A 
ATOM      2  N   UNL     1       4.391   3.384  16.716  0.00  0.00    +0.000 NA
ATOM      3  C   UNL     1       3.698   3.176  17.848  0.00  0.00    +0.000 A 
ATOM      4  C   UNL     1       2.705   2.201  17.880  0.00  0.00    +0.000 A 
ATOM      5  C   UNL     1       1.982   1.936  19.044  0.00  0.00    +0.000 A 
ATOM      6  C   UNL     1       2.254   2.661  20.197  0.00  0.00    +0.000 A 
ATOM      7  C   UNL     1       3.239   3.650  20.173  0.00  0.00    +0.000 A 
ATOM      8  C   UNL     1       3.960   3.927  19.019  0.00  0.00    +0.000 A 
ATOM      9  N   UNL     1       4.886   4.907  19.026  0.00  0.00    +0.000 NA
ATOM     10  C   UNL     1       5.588   5.147  17.878  0.00  0.00    +0.000 A 
ENDROOT
BRANCH   1  15
ATOM     11  O   UNL     1       7.873   5.115  11.957  0.00  0.00    +0.000 OA
ATOM     12  C   UNL     1       7.368   4.852  13.043  0.00  0.00    +0.000 A 
ATOM     13  C   UNL     1       6.220   3.931  13.140  0.00  0.00    +0.000 A 
ATOM     14  C   UNL     1       5.618   3.727  14.313  0.00  0.00    +0.000 A 
ATOM     15  C   UNL     1       6.146   4.469  15.488  0.00  0.00    +0.000 A 
ATOM     16  N   UNL     1       7.215   5.208  15.444  0.00  0.00    +0.000 NA
ATOM     17  N   UNL     1       7.814   5.372  14.230  0.00  0.00    +0.000 N 
ATOM     18  H   UNL     1       8.590   6.025  14.192  0.00  0.00    +0.000 HD
ENDBRANCH   1  15
BRANCH  10  19
ATOM     19  C   UNL     1       6.510   6.309  17.977  0.00  0.00    +0.000 A 
ATOM     20  C   UNL     1       6.236   7.503  17.280  0.00  0.00    +0.000 A 
ATOM     21  C   UNL     1       7.067   8.626  17.390  0.00  0.00    +0.000 A 
ATOM     22  C   UNL     1       8.187   8.580  18.213  0.00  0.00    +0.000 A 
ATOM     23 CL   UNL     1       9.183   9.970  18.395  0.00  0.00    +0.000 Cl
ATOM     24  C   UNL     1       8.507   7.409  18.886  0.00  0.00    +0.000 A 
ATOM     25  C   UNL     1       7.697   6.278  18.736  0.00  0.00    +0.000 A 
ENDBRANCH  10  19
TORSDOF 2
ENDMDL
MODEL 4
REMARK VINA RESULT:      -8.3      4.366      7.022
REMARK  Name = 
REMARK  2 active torsions:
REMARK  status: ('A' for Active; 'I' for Inactive)
REMARK    1  A    between atoms: C_5  and  C_6
REMARK    2  A    between atoms: C_15  and  C_16
REMARK                            x       y       z     vdW  Elec       q    Type
REMARK                         _______ _______ _______ _____ _____    ______ ____
ROOT
ATOM      1  C   UNL     1       5.039   5.067  18.230  0.00  0.00    +0.000 A 
ATOM      2  N   UNL     1       4.371   4.966  19.417  0.00  0.00    +0.000 NA
ATOM      3  C   UNL     1       3.254   4.219  19.425  0.00  0.00    +0.000 A 
ATOM      4  C   UNL     1       2.525   4.080  20.603  0.00  0.00    +0.000 A 
ATOM      5  C   UNL     1       1.346   3.336  20.647  0.00  0.00    +0.000 A 
ATOM      6  C   UNL     1       0.887   2.717  19.492  0.00  0.00    +0.000 A 
ATOM      7  C   UNL     1       1.616   2.839  18.307  0.00  0.00    +0.000 A 
ATOM      8  C   UNL     1       2.794   3.571  18.254  0.00  0.00    +0.000 A 
ATOM      9  N   UNL     1       3.485   3.646  17.099  0.00  0.00    +0.000 NA
ATOM     10  C   UNL     1       4.635   4.385  17.075  0.00  0.00    +0.000 A 
ENDROOT
BRANCH   1  15
ATOM     11  O   UNL     1       9.058   8.747  18.670  0.00  0.00    +0.000 OA
ATOM     12  C   UNL     1       8.210   7.881  18.484  0.00  0.00    +0.000 A 
ATOM     13  C   UNL     1       7.110   8.094  17.524  0.00  0.00    +0.000 A 
ATOM     14  C   UNL     1       6.139   7.186  17.400  0.00  0.00    +0.000 A 
ATOM     15  C   UNL     1       6.219   5.983  18.268  0.00  0.00    +0.000 A 
ATOM     16  N   UNL     1       7.228   5.729  19.048  0.00  0.00    +0.000 NA
ATOM     17  N   UNL     1       8.210   6.672  19.128  0.00  0.00    +0.000 N 
ATOM     18  H   UNL     1       8.943   6.505  19.810  0.00  0.00    +0.000 HD
ENDBRANCH   1  15
BRANCH  10  19
ATOM     19  C   UNL     1       5.359   4.317  15.779  0.00  0.00    +0.000 A 
ATOM     20  C   UNL     1       4.678   3.978  14.593  0.00  0.00    +0.000 A 
ATOM     21  C   UNL     1       5.328   3.948  13.353  0.00  0.00    +0.000 A 
ATOM     22  C   UNL     1       6.678   4.271  13.272  0.00  0.00    +0.000 A 
ATOM     23 CL   UNL     1       7.474   4.288  11.747  0.00  0.00    +0.000 Cl
ATOM     24  C   UNL     1       7.390   4.575  14.425  0.00  0.00    +0.000 A 
ATOM     25  C   UNL     1       6.743   4.559  15.665  0.00  0.00    +0.000 A 
ENDBRANCH  10  19
TORSDOF 2
ENDMDL
MODEL 5
REMARK VINA RESULT:      -8.0      3.763      5.551
REMARK  Name = 
REMARK  2 active torsions:
REMARK  status: ('A' for Active; 'I' for Inactive)
REMARK    1  A    between atoms: C_5  and  C_6
REMARK    2  A    between atoms: C_15  and  C_16
REMARK                            x       y       z     vdW  Elec       q    Type
REMARK                         _______ _______ _______ _____ _____    ______ ____
ROOT
ATOM      1  C   UNL     1       6.554   5.704  15.898  0.00  0.00    +0.000 A 
ATOM      2  N   UNL     1       7.264   5.653  14.732  0.00  0.00    +0.000 NA
ATOM      3  C   UNL     1       6.855   4.768  13.809  0.00  0.00    +0.000 A 
ATOM      4  C   UNL     1       7.539   4.664  12.601  0.00  0.00    +0.000 A 
ATOM      5  C   UNL     1       7.163   3.738  11.627  0.00  0.00    +0.000 A 
ATOM      6  C   UNL     1       6.080   2.902  11.864  0.00  0.00    +0.000 A 
ATOM      7  C   UNL     1       5.378   3.004  13.067  0.00  0.00    +0.000 A 
ATOM      8  C   UNL     1       5.740   3.927  14.039  0.00  0.00    +0.000 A 
ATOM      9  N   UNL     1       5.023   4.016  15.178  0.00  0.00    +0.000 NA
ATOM     10  C   UNL     1       5.412   4.924  16.123  0.00  0.00    +0.000 A 
ENDROOT
BRANCH   1  15
ATOM     11  O   UNL     1       9.094   8.998  19.446  0.00  0.00    +0.000 OA
ATOM     12  C   UNL     1       8.435   8.267  18.716  0.00  0.00    +0.000 A 
ATOM     13  C   UNL     1       8.333   6.820  18.988  0.00  0.00    +0.000 A 
ATOM     14  C   UNL     1       7.694   6.018  18.133  0.00  0.00    +0.000 A 
ATOM     15  C   UNL     1       7.115   6.644  16.915  0.00  0.00    +0.000 A 
ATOM     16  N   UNL     1       7.108   7.927  16.706  0.00  0.00    +0.000 NA
ATOM     17  N   UNL     1       7.752   8.713  17.615  0.00  0.00    +0.000 N 
ATOM     18  H   UNL     1       7.821   9.701  17.391  0.00  0.00    +0.000 HD
ENDBRANCH   1  15
BRANCH  10  19
ATOM     19  C   UNL     1       4.494   5.000  17.289  0.00  0.00    +0.000 A 
ATOM     20  C   UNL     1       3.682   6.133  17.491  0.00  0.00    +0.000 A 
ATOM     21  C   UNL     1       2.779   6.210  18.559  0.00  0.00    +0.000 A 
ATOM     22  C   UNL     1       2.660   5.144  19.443  0.00  0.00    +0.000 A 
ATOM     23 CL   UNL     1       1.517   5.208  20.727  0.00  0.00    +0.000 Cl
ATOM     24  C   UNL     1       3.470   4.026  19.296  0.00  0.00    +0.000 A 
ATOM     25  C   UNL     1       4.401   3.975  18.253  0.00  0.00    +0.000 A 
ENDBRANCH  10  19
TORSDOF 2
ENDMDL
MODEL 6
REMARK VINA RESULT:      -7.9      4.426      7.114
REMARK  Name = 
REMARK  2 active torsions:
REMARK  status: ('A' for Active; 'I' for Inactive)
REMARK    1  A    between atoms: C_5  and  C_6
REMARK    2  A    between atoms: C_15  and  C_16
REMARK                            x       y       z     vdW  Elec       q    Type
REMARK                         _______ _______ _______ _____ _____    ______ ____
ROOT
ATOM      1  C   UNL     1       4.865   5.076  18.079  0.00  0.00    +0.000 A 
ATOM      2  N   UNL     1       4.218   4.939  19.275  0.00  0.00    +0.000 NA
ATOM      3  C   UNL     1       3.263   3.998  19.345  0.00  0.00    +0.000 A 
ATOM      4  C   UNL     1       2.564   3.812  20.535  0.00  0.00    +0.000 A 
ATOM      5  C   UNL     1       1.546   2.864  20.642  0.00  0.00    +0.000 A 
ATOM      6  C   UNL     1       1.221   2.085  19.539  0.00  0.00    +0.000 A 
ATOM      7  C   UNL     1       1.922   2.255  18.344  0.00  0.00    +0.000 A 
ATOM      8  C   UNL     1       2.942   3.190  18.229  0.00  0.00    +0.000 A 
ATOM      9  N   UNL     1       3.615   3.307  17.067  0.00  0.00    +0.000 NA
ATOM     10  C   UNL     1       4.605   4.246  16.980  0.00  0.00    +0.000 A 
ENDROOT
BRANCH   1  15
ATOM     11  O   UNL     1       8.753   8.888  17.593  0.00  0.00    +0.000 OA
ATOM     12  C   UNL     1       7.852   8.082  17.796  0.00  0.00    +0.000 A 
ATOM     13  C   UNL     1       8.075   6.900  18.649  0.00  0.00    +0.000 A 
ATOM     14  C   UNL     1       7.118   5.979  18.786  0.00  0.00    +0.000 A 
ATOM     15  C   UNL     1       5.851   6.198  18.042  0.00  0.00    +0.000 A 
ATOM     16  N   UNL     1       5.597   7.279  17.365  0.00  0.00    +0.000 NA
ATOM     17  N   UNL     1       6.594   8.205  17.268  0.00  0.00    +0.000 N 
ATOM     18  H   UNL     1       6.417   8.998  16.660  0.00  0.00    +0.000 HD
ENDBRANCH   1  15
BRANCH  10  19
ATOM     19  C   UNL     1       5.340   4.220  15.688  0.00  0.00    +0.000 A 
ATOM     20  C   UNL     1       4.681   3.855  14.497  0.00  0.00    +0.000 A 
ATOM     21  C   UNL     1       5.340   3.863  13.260  0.00  0.00    +0.000 A 
ATOM     22  C   UNL     1       6.673   4.251  13.189  0.00  0.00    +0.000 A 
ATOM     23 CL   UNL     1       7.476   4.314  11.669  0.00  0.00    +0.000 Cl
ATOM     24  C   UNL     1       7.363   4.583  14.347  0.00  0.00    +0.000 A 
ATOM     25  C   UNL     1       6.710   4.529  15.584  0.00  0.00    +0.000 A 
ENDBRANCH  10  19
TORSDOF 2
ENDMDL
MODEL 7
REMARK VINA RESULT:      -7.7      2.958      5.721
REMARK  Name = 
REMARK  2 active torsions:
REMARK  status: ('A' for Active; 'I' for Inactive)
REMARK    1  A    between atoms: C_5  and  C_6
REMARK    2  A    between atoms: C_15  and  C_16
REMARK                            x       y       z     vdW  Elec       q    Type
REMARK                         _______ _______ _______ _____ _____    ______ ____
ROOT
ATOM      1  C   UNL     1       3.213   6.033  19.136  0.00  0.00    +0.000 A 
ATOM      2  N   UNL     1       2.384   6.669  20.015  0.00  0.00    +0.000 NA
ATOM      3  C   UNL     1       1.911   7.870  19.646  0.00  0.00    +0.000 A 
ATOM      4  C   UNL     1       1.064   8.571  20.500  0.00  0.00    +0.000 A 
ATOM      5  C   UNL     1       0.573   9.834  20.165  0.00  0.00    +0.000 A 
ATOM      6  C   UNL     1       0.933  10.406  18.952  0.00  0.00    +0.000 A 
ATOM      7  C   UNL     1       1.772   9.707  18.081  0.00  0.00    +0.000 A 
ATOM      8  C   UNL     1       2.261   8.448  18.402  0.00  0.00    +0.000 A 
ATOM      9  N   UNL     1       3.048   7.792  17.526  0.00  0.00    +0.000 NA
ATOM     10  C   UNL     1       3.524   6.559  17.874  0.00  0.00    +0.000 A 
ENDROOT
BRANCH   1  15
ATOM     11  O   UNL     1       5.048   1.088  20.572  0.00  0.00    +0.000 OA
ATOM     12  C   UNL     1       4.652   2.227  20.355  0.00  0.00    +0.000 A 
ATOM     13  C   UNL     1       3.247   2.599  20.606  0.00  0.00    +0.000 A 
ATOM     14  C   UNL     1       2.803   3.814  20.276  0.00  0.00    +0.000 A 
ATOM     15  C   UNL     1       3.774   4.745  19.646  0.00  0.00    +0.000 A 
ATOM     16  N   UNL     1       5.038   4.473  19.505  0.00  0.00    +0.000 NA
ATOM     17  N   UNL     1       5.455   3.229  19.876  0.00  0.00    +0.000 N 
ATOM     18  H   UNL     1       6.422   2.996  19.674  0.00  0.00    +0.000 HD
ENDBRANCH   1  15
BRANCH  10  19
ATOM     19  C   UNL     1       4.299   5.892  16.795  0.00  0.00    +0.000 A 
ATOM     20  C   UNL     1       4.163   4.509  16.565  0.00  0.00    +0.000 A 
ATOM     21  C   UNL     1       4.850   3.866  15.527  0.00  0.00    +0.000 A 
ATOM     22  C   UNL     1       5.681   4.599  14.688  0.00  0.00    +0.000 A 
ATOM     23 CL   UNL     1       6.489   3.828  13.380  0.00  0.00    +0.000 Cl
ATOM     24  C   UNL     1       5.866   5.958  14.908  0.00  0.00    +0.000 A 
ATOM     25  C   UNL     1       5.212   6.584  15.974  0.00  0.00    +0.000 A 
ENDBRANCH  10  19
TORSDOF 2
ENDMDL
MODEL 8
REMARK VINA RESULT:      -7.6      5.768      9.594
REMARK  Name = 
REMARK  2 active torsions:
REMARK  status: ('A' for Active; 'I' for Inactive)
REMARK    1  A    between atoms: C_5  and  C_6
REMARK    2  A    between atoms: C_15  and  C_16
REMARK                            x       y       z     vdW  Elec       q    Type
REMARK                         _______ _______ _______ _____ _____    ______ ____
ROOT
ATOM      1  C   UNL     1      -1.772  11.661  19.395  0.00  0.00    +0.000 A 
ATOM      2  N   UNL     1      -2.573  12.658  19.874  0.00  0.00    +0.000 NA
ATOM      3  C   UNL     1      -2.332  13.086  21.124  0.00  0.00    +0.000 A 
ATOM      4  C   UNL     1      -3.117  14.097  21.671  0.00  0.00    +0.000 A 
ATOM      5  C   UNL     1      -2.916  14.551  22.975  0.00  0.00    +0.000 A 
ATOM      6  C   UNL     1      -1.910  13.985  23.747  0.00  0.00    +0.000 A 
ATOM      7  C   UNL     1      -1.108  12.978  23.205  0.00  0.00    +0.000 A 
ATOM      8  C   UNL     1      -1.295  12.524  21.906  0.00  0.00    +0.000 A 
ATOM      9  N   UNL     1      -0.485  11.569  21.408  0.00  0.00    +0.000 NA
ATOM     10  C   UNL     1      -0.701  11.133  20.130  0.00  0.00    +0.000 A 
ENDROOT
BRANCH   1  15
ATOM     11  O   UNL     1      -3.664   9.991  14.546  0.00  0.00    +0.000 OA
ATOM     12  C   UNL     1      -3.149  10.305  15.613  0.00  0.00    +0.000 A 
ATOM     13  C   UNL     1      -3.285   9.441  16.801  0.00  0.00    +0.000 A 
ATOM     14  C   UNL     1      -2.805   9.838  17.981  0.00  0.00    +0.000 A 
ATOM     15  C   UNL     1      -2.150  11.171  18.035  0.00  0.00    +0.000 A 
ATOM     16  N   UNL     1      -1.933  11.904  16.984  0.00  0.00    +0.000 NA
ATOM     17  N   UNL     1      -2.421  11.451  15.794  0.00  0.00    +0.000 N 
ATOM     18  H   UNL     1      -2.328  12.076  14.999  0.00  0.00    +0.000 HD
ENDBRANCH   1  15
BRANCH  10  19
ATOM     19  C   UNL     1       0.308  10.151  19.656  0.00  0.00    +0.000 A 
ATOM     20  C   UNL     1       0.705   9.078  20.478  0.00  0.00    +0.000 A 
ATOM     21  C   UNL     1       1.623   8.115  20.039  0.00  0.00    +0.000 A 
ATOM     22  C   UNL     1       2.156   8.200  18.758  0.00  0.00    +0.000 A 
ATOM     23 CL   UNL     1       3.244   6.995  18.191  0.00  0.00    +0.000 Cl
ATOM     24  C   UNL     1       1.814   9.264  17.933  0.00  0.00    +0.000 A 
ATOM     25  C   UNL     1       0.931  10.246  18.396  0.00  0.00    +0.000 A 
ENDBRANCH  10  19
TORSDOF 2
ENDMDL
MODEL 9
REMARK VINA RESULT:      -7.4      2.593      4.526
REMARK  Name = 
REMARK  2 active torsions:
REMARK  status: ('A' for Active; 'I' for Inactive)
REMARK    1  A    between atoms: C_5  and  C_6
REMARK    2  A    between atoms: C_15  and  C_16
REMARK                            x       y       z     vdW  Elec       q    Type
REMARK                         _______ _______ _______ _____ _____    ______ ____
ROOT
ATOM      1  C   UNL     1       3.590   5.983  17.882  0.00  0.00    +0.000 A 
ATOM      2  N   UNL     1       4.227   6.494  16.787  0.00  0.00    +0.000 NA
ATOM      3  C   UNL     1       4.968   5.641  16.061  0.00  0.00    +0.000 A 
ATOM      4  C   UNL     1       5.646   6.101  14.935  0.00  0.00    +0.000 A 
ATOM      5  C   UNL     1       6.448   5.253  14.170  0.00  0.00    +0.000 A 
ATOM      6  C   UNL     1       6.573   3.919  14.535  0.00  0.00    +0.000 A 
ATOM      7  C   UNL     1       5.888   3.443  15.656  0.00  0.00    +0.000 A 
ATOM      8  C   UNL     1       5.082   4.276  16.419  0.00  0.00    +0.000 A 
ATOM      9  N   UNL     1       4.415   3.776  17.479  0.00  0.00    +0.000 NA
ATOM     10  C   UNL     1       3.640   4.624  18.220  0.00  0.00    +0.000 A 
ENDROOT
BRANCH   1  15
ATOM     11  O   UNL     1       0.460   9.512  20.645  0.00  0.00    +0.000 OA
ATOM     12  C   UNL     1       1.246   8.789  20.044  0.00  0.00    +0.000 A 
ATOM     13  C   UNL     1       1.552   9.026  18.620  0.00  0.00    +0.000 A 
ATOM     14  C   UNL     1       2.334   8.176  17.949  0.00  0.00    +0.000 A 
ATOM     15  C   UNL     1       2.858   7.002  18.694  0.00  0.00    +0.000 A 
ATOM     16  N   UNL     1       2.682   6.828  19.970  0.00  0.00    +0.000 NA
ATOM     17  N   UNL     1       1.895   7.731  20.622  0.00  0.00    +0.000 N 
ATOM     18  H   UNL     1       1.689   7.532  21.596  0.00  0.00    +0.000 HD
ENDBRANCH   1  15
BRANCH  10  19
ATOM     19  C   UNL     1       2.880   3.945  19.302  0.00  0.00    +0.000 A 
ATOM     20  C   UNL     1       3.556   3.310  20.362  0.00  0.00    +0.000 A 
ATOM     21  C   UNL     1       2.862   2.699  21.416  0.00  0.00    +0.000 A 
ATOM     22  C   UNL     1       1.472   2.724  21.435  0.00  0.00    +0.000 A 
ATOM     23 CL   UNL     1       0.613   2.022  22.749  0.00  0.00    +0.000 Cl
ATOM     24  C   UNL     1       0.773   3.310  20.388  0.00  0.00    +0.000 A 
ATOM     25  C   UNL     1       1.472   3.878  19.318  0.00  0.00    +0.000 A 
ENDBRANCH  10  19
TORSDOF 2
ENDMDL
