MODEL 1
REMARK VINA RESULT:      -6.2      0.000      0.000
REMARK  Name = 
REMARK  13 active torsions:
REMARK  status: ('A' for Active; 'I' for Inactive)
REMARK    1  A    between atoms: C_1  and  C_2
REMARK    2  A    between atoms: C_2  and  C_3
REMARK    3  A    between atoms: C_3  and  C_4
REMARK    4  A    between atoms: C_4  and  C_5
REMARK    5  A    between atoms: C_5  and  C_6
REMARK    6  A    between atoms: C_6  and  C_7
REMARK    7  A    between atoms: C_7  and  C_8
REMARK    8  A    between atoms: C_8  and  C_9
REMARK    9  A    between atoms: C_9  and  C_10
REMARK   10  A    between atoms: C_12  and  O_13
REMARK   11  A    between atoms: C_15  and  O_16
REMARK   12  A    between atoms: C_17  and  O_18
REMARK   13  A    between atoms: O_18  and  C_19
REMARK                            x       y       z     vdW  Elec       q    Type
REMARK                         _______ _______ _______ _____ _____    ______ ____
ROOT
ATOM      1  C   UNL     1       4.917   4.998  17.701  0.00  0.00    +0.000 A 
ATOM      2  C   UNL     1       5.541   5.052  18.976  0.00  0.00    +0.000 A 
ATOM      3  C   UNL     1       6.863   5.453  19.120  0.00  0.00    +0.000 A 
ATOM      4  C   UNL     1       7.606   5.819  18.021  0.00  0.00    +0.000 A 
ATOM      5  C   UNL     1       7.008   5.781  16.760  0.00  0.00    +0.000 A 
ATOM      6  C   UNL     1       5.662   5.381  16.570  0.00  0.00    +0.000 A 
ENDROOT
BRANCH   3   7
ATOM      7  O   UNL     1       7.453   5.497  20.353  0.00  0.00    +0.000 OA
ATOM      8  H   UNL     1       7.309   4.645  20.801  0.00  0.00    +0.000 HD
ENDBRANCH   3   7
BRANCH   5   9
ATOM      9  O   UNL     1       7.753   6.148  15.664  0.00  0.00    +0.000 OA
ATOM     10  H   UNL     1       7.149   6.370  14.935  0.00  0.00    +0.000 HD
ENDBRANCH   5   9
BRANCH   6  11
ATOM     11  O   UNL     1       5.288   5.433  15.255  0.00  0.00    +0.000 OA
ATOM     12  C   UNL     1       5.423   4.334  14.384  0.00  0.00    +0.000 C 
ENDBRANCH   6  11
BRANCH   1  13
ATOM     13  C   UNL     1       3.475   4.562  17.743  0.00  0.00    +0.000 C 
BRANCH  13  14
ATOM     14  C   UNL     1       3.275   3.182  17.126  0.00  0.00    +0.000 C 
BRANCH  14  15
ATOM     15  C   UNL     1       3.416   2.116  18.201  0.00  0.00    +0.000 C 
BRANCH  15  16
ATOM     16  C   UNL     1       2.161   2.043  19.052  0.00  0.00    +0.000 C 
BRANCH  16  17
ATOM     17  C   UNL     1       2.487   2.373  20.501  0.00  0.00    +0.000 C 
BRANCH  17  18
ATOM     18  C   UNL     1       1.294   3.048  21.164  0.00  0.00    +0.000 C 
BRANCH  18  19
ATOM     19  C   UNL     1       0.991   4.378  20.489  0.00  0.00    +0.000 C 
BRANCH  19  21
ATOM     20  C   UNL     1       1.598   6.801  20.633  0.00  0.00    +0.000 C 
ATOM     21  C   UNL     1       2.114   5.377  20.737  0.00  0.00    +0.000 C 
ENDBRANCH  19  21
ENDBRANCH  18  19
ENDBRANCH  17  18
ENDBRANCH  16  17
ENDBRANCH  15  16
ENDBRANCH  14  15
ENDBRANCH  13  14
ENDBRANCH   1  13
TORSDOF 11
ENDMDL
MODEL 2
REMARK VINA RESULT:      -6.1      0.985      1.155
REMARK  Name = 
REMARK  13 active torsions:
REMARK  status: ('A' for Active; 'I' for Inactive)
REMARK    1  A    between atoms: C_1  and  C_2
REMARK    2  A    between atoms: C_2  and  C_3
REMARK    3  A    between atoms: C_3  and  C_4
REMARK    4  A    between atoms: C_4  and  C_5
REMARK    5  A    between atoms: C_5  and  C_6
REMARK    6  A    between atoms: C_6  and  C_7
REMARK    7  A    between atoms: C_7  and  C_8
REMARK    8  A    between atoms: C_8  and  C_9
REMARK    9  A    between atoms: C_9  and  C_10
REMARK   10  A    between atoms: C_12  and  O_13
REMARK   11  A    between atoms: C_15  and  O_16
REMARK   12  A    between atoms: C_17  and  O_18
REMARK   13  A    between atoms: O_18  and  C_19
REMARK                            x       y       z     vdW  Elec       q    Type
REMARK                         _______ _______ _______ _____ _____    ______ ____
ROOT
ATOM      1  C   UNL     1       5.915   4.698  17.699  0.00  0.00    +0.000 A 
ATOM      2  C   UNL     1       6.406   4.620  19.029  0.00  0.00    +0.000 A 
ATOM      3  C   UNL     1       7.380   5.494  19.494  0.00  0.00    +0.000 A 
ATOM      4  C   UNL     1       7.893   6.471  18.672  0.00  0.00    +0.000 A 
ATOM      5  C   UNL     1       7.418   6.569  17.363  0.00  0.00    +0.000 A 
ATOM      6  C   UNL     1       6.424   5.699  16.850  0.00  0.00    +0.000 A 
ENDROOT
BRANCH   3   7
ATOM      7  O   UNL     1       7.845   5.407  20.777  0.00  0.00    +0.000 OA
ATOM      8  H   UNL     1       8.808   5.551  20.773  0.00  0.00    +0.000 HD
ENDBRANCH   3   7
BRANCH   5   9
ATOM      9  O   UNL     1       7.932   7.546  16.545  0.00  0.00    +0.000 OA
ATOM     10  H   UNL     1       7.211   7.920  16.011  0.00  0.00    +0.000 HD
ENDBRANCH   5   9
BRANCH   6  11
ATOM     11  O   UNL     1       6.105   5.987  15.551  0.00  0.00    +0.000 OA
ATOM     12  C   UNL     1       6.420   5.124  14.484  0.00  0.00    +0.000 C 
ENDBRANCH   6  11
BRANCH   1  13
ATOM     13  C   UNL     1       4.847   3.683  17.379  0.00  0.00    +0.000 C 
BRANCH  13  14
ATOM     14  C   UNL     1       3.507   4.339  17.067  0.00  0.00    +0.000 C 
BRANCH  14  15
ATOM     15  C   UNL     1       2.381   3.352  17.328  0.00  0.00    +0.000 C 
BRANCH  15  16
ATOM     16  C   UNL     1       2.878   2.178  18.153  0.00  0.00    +0.000 C 
BRANCH  16  17
ATOM     17  C   UNL     1       2.482   2.353  19.611  0.00  0.00    +0.000 C 
BRANCH  17  18
ATOM     18  C   UNL     1       1.032   2.806  19.708  0.00  0.00    +0.000 C 
BRANCH  18  19
ATOM     19  C   UNL     1       0.934   4.130  20.451  0.00  0.00    +0.000 C 
BRANCH  19  21
ATOM     20  C   UNL     1       2.510   6.032  20.053  0.00  0.00    +0.000 C 
ATOM     21  C   UNL     1       2.321   4.691  20.738  0.00  0.00    +0.000 C 
ENDBRANCH  19  21
ENDBRANCH  18  19
ENDBRANCH  17  18
ENDBRANCH  16  17
ENDBRANCH  15  16
ENDBRANCH  14  15
ENDBRANCH  13  14
ENDBRANCH   1  13
TORSDOF 11
ENDMDL
MODEL 3
REMARK VINA RESULT:      -6.1      0.768      2.396
REMARK  Name = 
REMARK  13 active torsions:
REMARK  status: ('A' for Active; 'I' for Inactive)
REMARK    1  A    between atoms: C_1  and  C_2
REMARK    2  A    between atoms: C_2  and  C_3
REMARK    3  A    between atoms: C_3  and  C_4
REMARK    4  A    between atoms: C_4  and  C_5
REMARK    5  A    between atoms: C_5  and  C_6
REMARK    6  A    between atoms: C_6  and  C_7
REMARK    7  A    between atoms: C_7  and  C_8
REMARK    8  A    between atoms: C_8  and  C_9
REMARK    9  A    between atoms: C_9  and  C_10
REMARK   10  A    between atoms: C_12  and  O_13
REMARK   11  A    between atoms: C_15  and  O_16
REMARK   12  A    between atoms: C_17  and  O_18
REMARK   13  A    between atoms: O_18  and  C_19
REMARK                            x       y       z     vdW  Elec       q    Type
REMARK                         _______ _______ _______ _____ _____    ______ ____
ROOT
ATOM      1  C   UNL     1       4.913   5.318  17.925  0.00  0.00    +0.000 A 
ATOM      2  C   UNL     1       5.610   5.302  19.162  0.00  0.00    +0.000 A 
ATOM      3  C   UNL     1       6.976   5.540  19.227  0.00  0.00    +0.000 A 
ATOM      4  C   UNL     1       7.695   5.807  18.085  0.00  0.00    +0.000 A 
ATOM      5  C   UNL     1       7.027   5.836  16.859  0.00  0.00    +0.000 A 
ATOM      6  C   UNL     1       5.633   5.601  16.749  0.00  0.00    +0.000 A 
ENDROOT
BRANCH   3   7
ATOM      7  O   UNL     1       7.636   5.519  20.425  0.00  0.00    +0.000 OA
ATOM      8  H   UNL     1       8.547   5.834  20.289  0.00  0.00    +0.000 HD
ENDBRANCH   3   7
BRANCH   5   9
ATOM      9  O   UNL     1       7.747   6.104  15.719  0.00  0.00    +0.000 OA
ATOM     10  H   UNL     1       7.139   6.429  15.034  0.00  0.00    +0.000 HD
ENDBRANCH   5   9
BRANCH   6  11
ATOM     11  O   UNL     1       5.194   5.692  15.457  0.00  0.00    +0.000 OA
ATOM     12  C   UNL     1       5.140   4.579  14.595  0.00  0.00    +0.000 C 
ENDBRANCH   6  11
BRANCH   1  13
ATOM     13  C   UNL     1       3.433   5.060  18.052  0.00  0.00    +0.000 C 
BRANCH  13  14
ATOM     14  C   UNL     1       2.676   6.289  18.545  0.00  0.00    +0.000 C 
BRANCH  14  15
ATOM     15  C   UNL     1       2.417   6.164  20.037  0.00  0.00    +0.000 C 
BRANCH  15  16
ATOM     16  C   UNL     1       1.450   5.029  20.321  0.00  0.00    +0.000 C 
BRANCH  16  17
ATOM     17  C   UNL     1       2.058   4.055  21.318  0.00  0.00    +0.000 C 
BRANCH  17  18
ATOM     18  C   UNL     1       2.426   2.753  20.619  0.00  0.00    +0.000 C 
BRANCH  18  19
ATOM     19  C   UNL     1       1.384   2.400  19.567  0.00  0.00    +0.000 C 
BRANCH  19  21
ATOM     20  C   UNL     1       3.498   1.515  18.562  0.00  0.00    +0.000 C 
ATOM     21  C   UNL     1       2.052   1.893  18.295  0.00  0.00    +0.000 C 
ENDBRANCH  19  21
ENDBRANCH  18  19
ENDBRANCH  17  18
ENDBRANCH  16  17
ENDBRANCH  15  16
ENDBRANCH  14  15
ENDBRANCH  13  14
ENDBRANCH   1  13
TORSDOF 11
ENDMDL
MODEL 4
REMARK VINA RESULT:      -6.1      1.326      2.035
REMARK  Name = 
REMARK  13 active torsions:
REMARK  status: ('A' for Active; 'I' for Inactive)
REMARK    1  A    between atoms: C_1  and  C_2
REMARK    2  A    between atoms: C_2  and  C_3
REMARK    3  A    between atoms: C_3  and  C_4
REMARK    4  A    between atoms: C_4  and  C_5
REMARK    5  A    between atoms: C_5  and  C_6
REMARK    6  A    between atoms: C_6  and  C_7
REMARK    7  A    between atoms: C_7  and  C_8
REMARK    8  A    between atoms: C_8  and  C_9
REMARK    9  A    between atoms: C_9  and  C_10
REMARK   10  A    between atoms: C_12  and  O_13
REMARK   11  A    between atoms: C_15  and  O_16
REMARK   12  A    between atoms: C_17  and  O_18
REMARK   13  A    between atoms: O_18  and  C_19
REMARK                            x       y       z     vdW  Elec       q    Type
REMARK                         _______ _______ _______ _____ _____    ______ ____
ROOT
ATOM      1  C   UNL     1       6.115   4.949  17.671  0.00  0.00    +0.000 A 
ATOM      2  C   UNL     1       6.664   4.713  18.959  0.00  0.00    +0.000 A 
ATOM      3  C   UNL     1       7.590   5.581  19.523  0.00  0.00    +0.000 A 
ATOM      4  C   UNL     1       7.997   6.706  18.845  0.00  0.00    +0.000 A 
ATOM      5  C   UNL     1       7.463   6.961  17.580  0.00  0.00    +0.000 A 
ATOM      6  C   UNL     1       6.515   6.103  16.970  0.00  0.00    +0.000 A 
ENDROOT
BRANCH   3   7
ATOM      7  O   UNL     1       8.113   5.340  20.764  0.00  0.00    +0.000 OA
ATOM      8  H   UNL     1       7.680   5.928  21.407  0.00  0.00    +0.000 HD
ENDBRANCH   3   7
BRANCH   5   9
ATOM      9  O   UNL     1       7.871   8.086  16.905  0.00  0.00    +0.000 OA
ATOM     10  H   UNL     1       7.086   8.573  16.603  0.00  0.00    +0.000 HD
ENDBRANCH   5   9
BRANCH   6  11
ATOM     11  O   UNL     1       6.123   6.556  15.740  0.00  0.00    +0.000 OA
ATOM     12  C   UNL     1       4.802   6.963  15.468  0.00  0.00    +0.000 C 
ENDBRANCH   6  11
BRANCH   1  13
ATOM     13  C   UNL     1       5.111   3.914  17.233  0.00  0.00    +0.000 C 
BRANCH  13  14
ATOM     14  C   UNL     1       4.664   3.023  18.387  0.00  0.00    +0.000 C 
BRANCH  14  15
ATOM     15  C   UNL     1       3.313   2.407  18.064  0.00  0.00    +0.000 C 
BRANCH  15  16
ATOM     16  C   UNL     1       2.462   3.373  17.258  0.00  0.00    +0.000 C 
BRANCH  16  17
ATOM     17  C   UNL     1       1.406   4.013  18.146  0.00  0.00    +0.000 C 
BRANCH  17  18
ATOM     18  C   UNL     1       2.034   5.103  19.003  0.00  0.00    +0.000 C 
BRANCH  18  19
ATOM     19  C   UNL     1       1.605   4.954  20.455  0.00  0.00    +0.000 C 
BRANCH  19  21
ATOM     20  C   UNL     1       2.101   2.797  21.622  0.00  0.00    +0.000 C 
ATOM     21  C   UNL     1       1.120   3.537  20.732  0.00  0.00    +0.000 C 
ENDBRANCH  19  21
ENDBRANCH  18  19
ENDBRANCH  17  18
ENDBRANCH  16  17
ENDBRANCH  15  16
ENDBRANCH  14  15
ENDBRANCH  13  14
ENDBRANCH   1  13
TORSDOF 11
ENDMDL
MODEL 5
REMARK VINA RESULT:      -6.0      1.052      1.997
REMARK  Name = 
REMARK  13 active torsions:
REMARK  status: ('A' for Active; 'I' for Inactive)
REMARK    1  A    between atoms: C_1  and  C_2
REMARK    2  A    between atoms: C_2  and  C_3
REMARK    3  A    between atoms: C_3  and  C_4
REMARK    4  A    between atoms: C_4  and  C_5
REMARK    5  A    between atoms: C_5  and  C_6
REMARK    6  A    between atoms: C_6  and  C_7
REMARK    7  A    between atoms: C_7  and  C_8
REMARK    8  A    between atoms: C_8  and  C_9
REMARK    9  A    between atoms: C_9  and  C_10
REMARK   10  A    between atoms: C_12  and  O_13
REMARK   11  A    between atoms: C_15  and  O_16
REMARK   12  A    between atoms: C_17  and  O_18
REMARK   13  A    between atoms: O_18  and  C_19
REMARK                            x       y       z     vdW  Elec       q    Type
REMARK                         _______ _______ _______ _____ _____    ______ ____
ROOT
ATOM      1  C   UNL     1       4.855   5.516  17.833  0.00  0.00    +0.000 A 
ATOM      2  C   UNL     1       5.545   5.487  19.074  0.00  0.00    +0.000 A 
ATOM      3  C   UNL     1       6.932   5.517  19.133  0.00  0.00    +0.000 A 
ATOM      4  C   UNL     1       7.680   5.584  17.980  0.00  0.00    +0.000 A 
ATOM      5  C   UNL     1       7.020   5.621  16.750  0.00  0.00    +0.000 A 
ATOM      6  C   UNL     1       5.607   5.594  16.645  0.00  0.00    +0.000 A 
ENDROOT
BRANCH   3   7
ATOM      7  O   UNL     1       7.584   5.487  20.335  0.00  0.00    +0.000 OA
ATOM      8  H   UNL     1       8.084   4.654  20.400  0.00  0.00    +0.000 HD
ENDBRANCH   3   7
BRANCH   5   9
ATOM      9  O   UNL     1       7.770   5.688  15.600  0.00  0.00    +0.000 OA
ATOM     10  H   UNL     1       7.439   6.420  15.052  0.00  0.00    +0.000 HD
ENDBRANCH   5   9
BRANCH   6  11
ATOM     11  O   UNL     1       5.183   5.652  15.346  0.00  0.00    +0.000 OA
ATOM     12  C   UNL     1       5.121   4.515  14.518  0.00  0.00    +0.000 C 
ENDBRANCH   6  11
BRANCH   1  13
ATOM     13  C   UNL     1       3.353   5.498  17.966  0.00  0.00    +0.000 C 
BRANCH  13  14
ATOM     14  C   UNL     1       2.746   4.201  17.441  0.00  0.00    +0.000 C 
BRANCH  14  15
ATOM     15  C   UNL     1       1.274   4.139  17.815  0.00  0.00    +0.000 C 
BRANCH  15  16
ATOM     16  C   UNL     1       1.045   3.129  18.925  0.00  0.00    +0.000 C 
BRANCH  16  17
ATOM     17  C   UNL     1       0.835   3.842  20.252  0.00  0.00    +0.000 C 
BRANCH  17  18
ATOM     18  C   UNL     1       2.154   3.941  21.006  0.00  0.00    +0.000 C 
BRANCH  18  19
ATOM     19  C   UNL     1       2.767   2.560  21.192  0.00  0.00    +0.000 C 
BRANCH  19  21
ATOM     20  C   UNL     1       4.141   1.611  19.328  0.00  0.00    +0.000 C 
ATOM     21  C   UNL     1       4.153   2.496  20.562  0.00  0.00    +0.000 C 
ENDBRANCH  19  21
ENDBRANCH  18  19
ENDBRANCH  17  18
ENDBRANCH  16  17
ENDBRANCH  15  16
ENDBRANCH  14  15
ENDBRANCH  13  14
ENDBRANCH   1  13
TORSDOF 11
ENDMDL
MODEL 6
REMARK VINA RESULT:      -6.0      1.291      2.824
REMARK  Name = 
REMARK  13 active torsions:
REMARK  status: ('A' for Active; 'I' for Inactive)
REMARK    1  A    between atoms: C_1  and  C_2
REMARK    2  A    between atoms: C_2  and  C_3
REMARK    3  A    between atoms: C_3  and  C_4
REMARK    4  A    between atoms: C_4  and  C_5
REMARK    5  A    between atoms: C_5  and  C_6
REMARK    6  A    between atoms: C_6  and  C_7
REMARK    7  A    between atoms: C_7  and  C_8
REMARK    8  A    between atoms: C_8  and  C_9
REMARK    9  A    between atoms: C_9  and  C_10
REMARK   10  A    between atoms: C_12  and  O_13
REMARK   11  A    between atoms: C_15  and  O_16
REMARK   12  A    between atoms: C_17  and  O_18
REMARK   13  A    between atoms: O_18  and  C_19
REMARK                            x       y       z     vdW  Elec       q    Type
REMARK                         _______ _______ _______ _____ _____    ______ ____
ROOT
ATOM      1  C   UNL     1       4.828   4.365  16.414  0.00  0.00    +0.000 A 
ATOM      2  C   UNL     1       5.086   3.713  15.179  0.00  0.00    +0.000 A 
ATOM      3  C   UNL     1       6.210   4.013  14.422  0.00  0.00    +0.000 A 
ATOM      4  C   UNL     1       7.116   4.954  14.857  0.00  0.00    +0.000 A 
ATOM      5  C   UNL     1       6.884   5.601  16.073  0.00  0.00    +0.000 A 
ATOM      6  C   UNL     1       5.751   5.322  16.877  0.00  0.00    +0.000 A 
ENDROOT
BRANCH   3   7
ATOM      7  O   UNL     1       6.446   3.379  13.233  0.00  0.00    +0.000 OA
ATOM      8  H   UNL     1       7.282   3.710  12.861  0.00  0.00    +0.000 HD
ENDBRANCH   3   7
BRANCH   5   9
ATOM      9  O   UNL     1       7.790   6.540  16.505  0.00  0.00    +0.000 OA
ATOM     10  H   UNL     1       7.928   6.426  17.460  0.00  0.00    +0.000 HD
ENDBRANCH   5   9
BRANCH   6  11
ATOM     11  O   UNL     1       5.737   6.064  18.026  0.00  0.00    +0.000 OA
ATOM     12  C   UNL     1       6.163   5.548  19.265  0.00  0.00    +0.000 C 
ENDBRANCH   6  11
BRANCH   1  13
ATOM     13  C   UNL     1       3.573   3.895  17.105  0.00  0.00    +0.000 C 
BRANCH  13  14
ATOM     14  C   UNL     1       3.873   2.926  18.243  0.00  0.00    +0.000 C 
BRANCH  14  15
ATOM     15  C   UNL     1       2.938   1.730  18.156  0.00  0.00    +0.000 C 
BRANCH  15  16
ATOM     16  C   UNL     1       1.863   1.812  19.224  0.00  0.00    +0.000 C 
BRANCH  16  17
ATOM     17  C   UNL     1       2.404   2.503  20.466  0.00  0.00    +0.000 C 
BRANCH  17  18
ATOM     18  C   UNL     1       1.310   3.337  21.118  0.00  0.00    +0.000 C 
BRANCH  18  19
ATOM     19  C   UNL     1       1.029   4.587  20.296  0.00  0.00    +0.000 C 
BRANCH  19  21
ATOM     20  C   UNL     1       2.493   6.436  19.461  0.00  0.00    +0.000 C 
ATOM     21  C   UNL     1       1.973   5.716  20.691  0.00  0.00    +0.000 C 
ENDBRANCH  19  21
ENDBRANCH  18  19
ENDBRANCH  17  18
ENDBRANCH  16  17
ENDBRANCH  15  16
ENDBRANCH  14  15
ENDBRANCH  13  14
ENDBRANCH   1  13
TORSDOF 11
ENDMDL
MODEL 7
REMARK VINA RESULT:      -6.0      2.573      6.471
REMARK  Name = 
REMARK  13 active torsions:
REMARK  status: ('A' for Active; 'I' for Inactive)
REMARK    1  A    between atoms: C_1  and  C_2
REMARK    2  A    between atoms: C_2  and  C_3
REMARK    3  A    between atoms: C_3  and  C_4
REMARK    4  A    between atoms: C_4  and  C_5
REMARK    5  A    between atoms: C_5  and  C_6
REMARK    6  A    between atoms: C_6  and  C_7
REMARK    7  A    between atoms: C_7  and  C_8
REMARK    8  A    between atoms: C_8  and  C_9
REMARK    9  A    between atoms: C_9  and  C_10
REMARK   10  A    between atoms: C_12  and  O_13
REMARK   11  A    between atoms: C_15  and  O_16
REMARK   12  A    between atoms: C_17  and  O_18
REMARK   13  A    between atoms: O_18  and  C_19
REMARK                            x       y       z     vdW  Elec       q    Type
REMARK                         _______ _______ _______ _____ _____    ______ ____
ROOT
ATOM      1  C   UNL     1       4.087   4.914  17.737  0.00  0.00    +0.000 A 
ATOM      2  C   UNL     1       2.745   4.481  17.569  0.00  0.00    +0.000 A 
ATOM      3  C   UNL     1       2.261   3.353  18.219  0.00  0.00    +0.000 A 
ATOM      4  C   UNL     1       3.075   2.624  19.055  0.00  0.00    +0.000 A 
ATOM      5  C   UNL     1       4.395   3.038  19.240  0.00  0.00    +0.000 A 
ATOM      6  C   UNL     1       4.928   4.184  18.598  0.00  0.00    +0.000 A 
ENDROOT
BRANCH   3   7
ATOM      7  O   UNL     1       0.967   2.946  18.047  0.00  0.00    +0.000 OA
ATOM      8  H   UNL     1       0.641   2.569  18.883  0.00  0.00    +0.000 HD
ENDBRANCH   3   7
BRANCH   5   9
ATOM      9  O   UNL     1       5.206   2.308  20.076  0.00  0.00    +0.000 OA
ATOM     10  H   UNL     1       5.008   1.364  19.958  0.00  0.00    +0.000 HD
ENDBRANCH   5   9
BRANCH   6  11
ATOM     11  O   UNL     1       6.235   4.405  18.936  0.00  0.00    +0.000 OA
ATOM     12  C   UNL     1       7.256   4.524  17.973  0.00  0.00    +0.000 C 
ENDBRANCH   6  11
BRANCH   1  13
ATOM     13  C   UNL     1       4.427   6.168  16.972  0.00  0.00    +0.000 C 
BRANCH  13  14
ATOM     14  C   UNL     1       5.341   5.885  15.785  0.00  0.00    +0.000 C 
BRANCH  14  15
ATOM     15  C   UNL     1       5.004   4.527  15.191  0.00  0.00    +0.000 C 
BRANCH  15  16
ATOM     16  C   UNL     1       6.207   3.941  14.475  0.00  0.00    +0.000 C 
BRANCH  16  17
ATOM     17  C   UNL     1       6.075   4.140  12.973  0.00  0.00    +0.000 C 
BRANCH  17  18
ATOM     18  C   UNL     1       6.208   2.803  12.256  0.00  0.00    +0.000 C 
BRANCH  18  19
ATOM     19  C   UNL     1       4.960   2.511  11.436  0.00  0.00    +0.000 C 
BRANCH  19  21
ATOM     20  C   UNL     1       3.184   3.632  10.075  0.00  0.00    +0.000 C 
ATOM     21  C   UNL     1       4.125   3.773  11.257  0.00  0.00    +0.000 C 
ENDBRANCH  19  21
ENDBRANCH  18  19
ENDBRANCH  17  18
ENDBRANCH  16  17
ENDBRANCH  15  16
ENDBRANCH  14  15
ENDBRANCH  13  14
ENDBRANCH   1  13
TORSDOF 11
ENDMDL
MODEL 8
REMARK VINA RESULT:      -5.9      3.050      6.750
REMARK  Name = 
REMARK  13 active torsions:
REMARK  status: ('A' for Active; 'I' for Inactive)
REMARK    1  A    between atoms: C_1  and  C_2
REMARK    2  A    between atoms: C_2  and  C_3
REMARK    3  A    between atoms: C_3  and  C_4
REMARK    4  A    between atoms: C_4  and  C_5
REMARK    5  A    between atoms: C_5  and  C_6
REMARK    6  A    between atoms: C_6  and  C_7
REMARK    7  A    between atoms: C_7  and  C_8
REMARK    8  A    between atoms: C_8  and  C_9
REMARK    9  A    between atoms: C_9  and  C_10
REMARK   10  A    between atoms: C_12  and  O_13
REMARK   11  A    between atoms: C_15  and  O_16
REMARK   12  A    between atoms: C_17  and  O_18
REMARK   13  A    between atoms: O_18  and  C_19
REMARK                            x       y       z     vdW  Elec       q    Type
REMARK                         _______ _______ _______ _____ _____    ______ ____
ROOT
ATOM      1  C   UNL     1       2.800   4.256  18.257  0.00  0.00    +0.000 A 
ATOM      2  C   UNL     1       2.687   5.597  18.709  0.00  0.00    +0.000 A 
ATOM      3  C   UNL     1       2.263   5.894  19.998  0.00  0.00    +0.000 A 
ATOM      4  C   UNL     1       1.946   4.887  20.880  0.00  0.00    +0.000 A 
ATOM      5  C   UNL     1       2.059   3.561  20.457  0.00  0.00    +0.000 A 
ATOM      6  C   UNL     1       2.490   3.215  19.152  0.00  0.00    +0.000 A 
ENDROOT
BRANCH   3   7
ATOM      7  O   UNL     1       2.156   7.191  20.420  0.00  0.00    +0.000 OA
ATOM      8  H   UNL     1       2.562   7.269  21.302  0.00  0.00    +0.000 HD
ENDBRANCH   3   7
BRANCH   5   9
ATOM      9  O   UNL     1       1.742   2.556  21.340  0.00  0.00    +0.000 OA
ATOM     10  H   UNL     1       2.086   1.715  20.994  0.00  0.00    +0.000 HD
ENDBRANCH   5   9
BRANCH   6  11
ATOM     11  O   UNL     1       2.536   1.861  18.964  0.00  0.00    +0.000 OA
ATOM     12  C   UNL     1       3.747   1.157  18.813  0.00  0.00    +0.000 C 
ENDBRANCH   6  11
BRANCH   1  13
ATOM     13  C   UNL     1       3.296   4.127  16.839  0.00  0.00    +0.000 C 
BRANCH  13  14
ATOM     14  C   UNL     1       4.789   3.827  16.777  0.00  0.00    +0.000 C 
BRANCH  14  15
ATOM     15  C   UNL     1       5.455   4.751  15.771  0.00  0.00    +0.000 C 
BRANCH  15  16
ATOM     16  C   UNL     1       6.147   3.950  14.683  0.00  0.00    +0.000 C 
BRANCH  16  17
ATOM     17  C   UNL     1       5.413   4.115  13.361  0.00  0.00    +0.000 C 
BRANCH  17  18
ATOM     18  C   UNL     1       6.085   3.276  12.282  0.00  0.00    +0.000 C 
BRANCH  18  19
ATOM     19  C   UNL     1       5.042   2.608  11.398  0.00  0.00    +0.000 C 
BRANCH  19  21
ATOM     20  C   UNL     1       3.350   3.795   9.988  0.00  0.00    +0.000 C 
ATOM     21  C   UNL     1       3.743   3.404  11.401  0.00  0.00    +0.000 C 
ENDBRANCH  19  21
ENDBRANCH  18  19
ENDBRANCH  17  18
ENDBRANCH  16  17
ENDBRANCH  15  16
ENDBRANCH  14  15
ENDBRANCH  13  14
ENDBRANCH   1  13
TORSDOF 11
ENDMDL
MODEL 9
REMARK VINA RESULT:      -5.9      1.390      3.693
REMARK  Name = 
REMARK  13 active torsions:
REMARK  status: ('A' for Active; 'I' for Inactive)
REMARK    1  A    between atoms: C_1  and  C_2
REMARK    2  A    between atoms: C_2  and  C_3
REMARK    3  A    between atoms: C_3  and  C_4
REMARK    4  A    between atoms: C_4  and  C_5
REMARK    5  A    between atoms: C_5  and  C_6
REMARK    6  A    between atoms: C_6  and  C_7
REMARK    7  A    between atoms: C_7  and  C_8
REMARK    8  A    between atoms: C_8  and  C_9
REMARK    9  A    between atoms: C_9  and  C_10
REMARK   10  A    between atoms: C_12  and  O_13
REMARK   11  A    between atoms: C_15  and  O_16
REMARK   12  A    between atoms: C_17  and  O_18
REMARK   13  A    between atoms: O_18  and  C_19
REMARK                            x       y       z     vdW  Elec       q    Type
REMARK                         _______ _______ _______ _____ _____    ______ ____
ROOT
ATOM      1  C   UNL     1       5.064   5.401  17.487  0.00  0.00    +0.000 A 
ATOM      2  C   UNL     1       4.771   5.143  16.122  0.00  0.00    +0.000 A 
ATOM      3  C   UNL     1       5.689   4.519  15.289  0.00  0.00    +0.000 A 
ATOM      4  C   UNL     1       6.916   4.123  15.772  0.00  0.00    +0.000 A 
ATOM      5  C   UNL     1       7.220   4.360  17.114  0.00  0.00    +0.000 A 
ATOM      6  C   UNL     1       6.311   4.993  17.998  0.00  0.00    +0.000 A 
ENDROOT
BRANCH   3   7
ATOM      7  O   UNL     1       5.395   4.279  13.975  0.00  0.00    +0.000 OA
ATOM      8  H   UNL     1       4.448   4.448  13.829  0.00  0.00    +0.000 HD
ENDBRANCH   3   7
BRANCH   5   9
ATOM      9  O   UNL     1       8.446   3.965  17.594  0.00  0.00    +0.000 OA
ATOM     10  H   UNL     1       9.064   4.712  17.529  0.00  0.00    +0.000 HD
ENDBRANCH   5   9
BRANCH   6  11
ATOM     11  O   UNL     1       6.815   5.109  19.264  0.00  0.00    +0.000 OA
ATOM     12  C   UNL     1       7.880   5.975  19.578  0.00  0.00    +0.000 C 
ENDBRANCH   6  11
BRANCH   1  13
ATOM     13  C   UNL     1       3.940   6.066  18.241  0.00  0.00    +0.000 C 
BRANCH  13  14
ATOM     14  C   UNL     1       3.789   5.513  19.653  0.00  0.00    +0.000 C 
BRANCH  14  15
ATOM     15  C   UNL     1       2.445   5.933  20.226  0.00  0.00    +0.000 C 
BRANCH  15  16
ATOM     16  C   UNL     1       1.843   4.814  21.057  0.00  0.00    +0.000 C 
BRANCH  16  17
ATOM     17  C   UNL     1       0.835   4.029  20.231  0.00  0.00    +0.000 C 
BRANCH  17  18
ATOM     18  C   UNL     1       1.273   2.575  20.118  0.00  0.00    +0.000 C 
BRANCH  18  19
ATOM     19  C   UNL     1       1.161   2.094  18.679  0.00  0.00    +0.000 C 
BRANCH  19  21
ATOM     20  C   UNL     1       3.558   2.065  17.964  0.00  0.00    +0.000 C 
ATOM     21  C   UNL     1       2.217   2.758  17.805  0.00  0.00    +0.000 C 
ENDBRANCH  19  21
ENDBRANCH  18  19
ENDBRANCH  17  18
ENDBRANCH  16  17
ENDBRANCH  15  16
ENDBRANCH  14  15
ENDBRANCH  13  14
ENDBRANCH   1  13
TORSDOF 11
ENDMDL
