MODEL 1
REMARK VINA RESULT:      -9.2      0.000      0.000
REMARK  Name = 
REMARK  7 active torsions:
REMARK  status: ('A' for Active; 'I' for Inactive)
REMARK    1  A    between atoms: C_1  and  C_2
REMARK    2  A    between atoms: C_2  and  C_3
REMARK    3  A    between atoms: C_3  and  C_4
REMARK    4  A    between atoms: N_14  and  C_15
REMARK    5  A    between atoms: C_15  and  C_16
REMARK    6  A    between atoms: C_19  and  C_20
REMARK    7  A    between atoms: C_25  and  C_26
REMARK                            x       y       z     vdW  Elec       q    Type
REMARK                         _______ _______ _______ _____ _____    ______ ____
ROOT
ATOM      1  C   UNL     1       1.935   8.909  18.687  0.00  0.00    +0.000 A 
ATOM      2  C   UNL     1       1.675   8.542  20.008  0.00  0.00    +0.000 A 
ATOM      3  C   UNL     1       1.892   7.225  20.439  0.00  0.00    +0.000 A 
ATOM      4  C   UNL     1       2.337   6.210  19.565  0.00  0.00    +0.000 A 
ATOM      5  C   UNL     1       2.623   6.614  18.252  0.00  0.00    +0.000 A 
ATOM      6  C   UNL     1       2.469   7.943  17.830  0.00  0.00    +0.000 A 
ENDROOT
BRANCH   4   7
ATOM      7  C   UNL     1       2.413   4.783  20.018  0.00  0.00    +0.000 A 
ATOM      8  C   UNL     1       1.279   4.240  20.681  0.00  0.00    +0.000 A 
ATOM      9  C   UNL     1       1.218   2.918  21.130  0.00  0.00    +0.000 A 
ATOM     10  C   UNL     1       2.288   2.068  20.912  0.00  0.00    +0.000 A 
ATOM     11  C   UNL     1       3.411   2.549  20.246  0.00  0.00    +0.000 A 
ATOM     12  C   UNL     1       3.499   3.891  19.804  0.00  0.00    +0.000 A 
BRANCH  12  13
ATOM     13  C   UNL     1       4.732   4.244  19.112  0.00  0.00    +0.000 A 
ATOM     14  N   UNL     1       5.752   4.917  19.752  0.00  0.00    +0.000 NA
ATOM     15  N   UNL     1       6.740   5.039  18.877  0.00  0.00    +0.000 NA
ATOM     16  N   UNL     1       6.278   4.455  17.768  0.00  0.00    +0.000 N 
ATOM     17  N   UNL     1       5.024   3.984  17.826  0.00  0.00    +0.000 NA
ATOM     18  H   UNL     1       6.854   4.361  16.937  0.00  0.00    +0.000 HD
ENDBRANCH  12  13
ENDBRANCH   4   7
BRANCH   1  19
ATOM     19  C   UNL     1       1.576  10.280  18.162  0.00  0.00    +0.000 C 
BRANCH  19  30
ATOM     20  C   UNL     1      -0.902  10.712  18.439  0.00  0.00    +0.000 C 
ATOM     21  N   UNL     1      -1.753  11.414  19.122  0.00  0.00    +0.000 NA
ATOM     22  C   UNL     1      -0.941  12.218  20.076  0.00  0.00    +0.000 C 
ATOM     23  C   UNL     1      -1.314  11.843  21.505  0.00  0.00    +0.000 C 
ATOM     24  C   UNL     1      -0.689  12.813  22.498  0.00  0.00    +0.000 C 
ATOM     25  O   UNL     1      -1.045  14.158  22.182  0.00  0.00    +0.000 OA
ATOM     26  C   UNL     1      -0.564  14.564  20.902  0.00  0.00    +0.000 C 
ATOM     27  C   UNL     1      -1.170  13.704  19.800  0.00  0.00    +0.000 C 
ATOM     28  C   UNL     1       0.484  11.799  19.747  0.00  0.00    +0.000 C 
ATOM     29  O   UNL     1       1.509  12.248  20.240  0.00  0.00    +0.000 OA
ATOM     30  N   UNL     1       0.389  10.850  18.764  0.00  0.00    +0.000 N 
BRANCH  20  31
ATOM     31  C   UNL     1      -1.376   9.803  17.328  0.00  0.00    +0.000 C 
BRANCH  31  33
ATOM     32  C   UNL     1      -3.130  10.107  15.506  0.00  0.00    +0.000 C 
ATOM     33  C   UNL     1      -2.852  10.040  17.002  0.00  0.00    +0.000 C 
ENDBRANCH  31  33
ENDBRANCH  20  31
ENDBRANCH  19  30
ENDBRANCH   1  19
TORSDOF 6
ENDMDL
MODEL 2
REMARK VINA RESULT:      -9.2      2.165      3.316
REMARK  Name = 
REMARK  7 active torsions:
REMARK  status: ('A' for Active; 'I' for Inactive)
REMARK    1  A    between atoms: C_1  and  C_2
REMARK    2  A    between atoms: C_2  and  C_3
REMARK    3  A    between atoms: C_3  and  C_4
REMARK    4  A    between atoms: N_14  and  C_15
REMARK    5  A    between atoms: C_15  and  C_16
REMARK    6  A    between atoms: C_19  and  C_20
REMARK    7  A    between atoms: C_25  and  C_26
REMARK                            x       y       z     vdW  Elec       q    Type
REMARK                         _______ _______ _______ _____ _____    ______ ____
ROOT
ATOM      1  C   UNL     1       1.119   8.773  19.857  0.00  0.00    +0.000 A 
ATOM      2  C   UNL     1       1.707   7.639  20.420  0.00  0.00    +0.000 A 
ATOM      3  C   UNL     1       2.602   6.855  19.676  0.00  0.00    +0.000 A 
ATOM      4  C   UNL     1       2.916   7.143  18.331  0.00  0.00    +0.000 A 
ATOM      5  C   UNL     1       2.338   8.307  17.800  0.00  0.00    +0.000 A 
ATOM      6  C   UNL     1       1.493   9.131  18.559  0.00  0.00    +0.000 A 
ENDROOT
BRANCH   4   7
ATOM      7  C   UNL     1       3.755   6.202  17.518  0.00  0.00    +0.000 A 
ATOM      8  C   UNL     1       4.856   6.749  16.805  0.00  0.00    +0.000 A 
ATOM      9  C   UNL     1       5.725   5.974  16.032  0.00  0.00    +0.000 A 
ATOM     10  C   UNL     1       5.544   4.605  15.958  0.00  0.00    +0.000 A 
ATOM     11  C   UNL     1       4.492   4.021  16.659  0.00  0.00    +0.000 A 
ATOM     12  C   UNL     1       3.590   4.794  17.429  0.00  0.00    +0.000 A 
BRANCH  12  13
ATOM     13  C   UNL     1       2.547   4.040  18.115  0.00  0.00    +0.000 A 
ATOM     14  N   UNL     1       1.302   3.853  17.552  0.00  0.00    +0.000 NA
ATOM     15  N   UNL     1       0.611   3.094  18.391  0.00  0.00    +0.000 NA
ATOM     16  N   UNL     1       1.450   2.871  19.407  0.00  0.00    +0.000 N 
ATOM     17  N   UNL     1       2.649   3.466  19.327  0.00  0.00    +0.000 NA
ATOM     18  H   UNL     1       1.195   2.269  20.185  0.00  0.00    +0.000 HD
ENDBRANCH  12  13
ENDBRANCH   4   7
BRANCH   1  19
ATOM     19  C   UNL     1       0.047   9.551  20.584  0.00  0.00    +0.000 C 
BRANCH  19  30
ATOM     20  C   UNL     1      -1.118  11.185  19.042  0.00  0.00    +0.000 C 
ATOM     21  N   UNL     1      -1.105  12.425  18.659  0.00  0.00    +0.000 NA
ATOM     22  C   UNL     1      -0.022  13.079  19.443  0.00  0.00    +0.000 C 
ATOM     23  C   UNL     1      -0.617  14.183  20.310  0.00  0.00    +0.000 C 
ATOM     24  C   UNL     1       0.484  15.032  20.932  0.00  0.00    +0.000 C 
ATOM     25  O   UNL     1       1.356  15.545  19.925  0.00  0.00    +0.000 OA
ATOM     26  C   UNL     1       2.032  14.512  19.211  0.00  0.00    +0.000 C 
ATOM     27  C   UNL     1       1.036  13.619  18.481  0.00  0.00    +0.000 C 
ATOM     28  C   UNL     1       0.519  11.939  20.293  0.00  0.00    +0.000 C 
ATOM     29  O   UNL     1       1.471  11.989  21.059  0.00  0.00    +0.000 OA
ATOM     30  N   UNL     1      -0.245  10.843  19.997  0.00  0.00    +0.000 N 
BRANCH  20  31
ATOM     31  C   UNL     1      -2.073  10.198  18.410  0.00  0.00    +0.000 C 
BRANCH  31  33
ATOM     32  C   UNL     1      -2.678  10.542  15.960  0.00  0.00    +0.000 C 
ATOM     33  C   UNL     1      -1.705   9.918  16.952  0.00  0.00    +0.000 C 
ENDBRANCH  31  33
ENDBRANCH  20  31
ENDBRANCH  19  30
ENDBRANCH   1  19
TORSDOF 6
ENDMDL
MODEL 3
REMARK VINA RESULT:      -9.0      2.183      3.384
REMARK  Name = 
REMARK  7 active torsions:
REMARK  status: ('A' for Active; 'I' for Inactive)
REMARK    1  A    between atoms: C_1  and  C_2
REMARK    2  A    between atoms: C_2  and  C_3
REMARK    3  A    between atoms: C_3  and  C_4
REMARK    4  A    between atoms: N_14  and  C_15
REMARK    5  A    between atoms: C_15  and  C_16
REMARK    6  A    between atoms: C_19  and  C_20
REMARK    7  A    between atoms: C_25  and  C_26
REMARK                            x       y       z     vdW  Elec       q    Type
REMARK                         _______ _______ _______ _____ _____    ______ ____
ROOT
ATOM      1  C   UNL     1       1.187   8.854  19.937  0.00  0.00    +0.000 A 
ATOM      2  C   UNL     1       1.527   9.133  18.613  0.00  0.00    +0.000 A 
ATOM      3  C   UNL     1       2.297   8.227  17.868  0.00  0.00    +0.000 A 
ATOM      4  C   UNL     1       2.794   7.028  18.421  0.00  0.00    +0.000 A 
ATOM      5  C   UNL     1       2.408   6.755  19.743  0.00  0.00    +0.000 A 
ATOM      6  C   UNL     1       1.585   7.626  20.473  0.00  0.00    +0.000 A 
ENDROOT
BRANCH   4   7
ATOM      7  C   UNL     1       3.738   6.157  17.648  0.00  0.00    +0.000 A 
ATOM      8  C   UNL     1       4.858   6.781  17.033  0.00  0.00    +0.000 A 
ATOM      9  C   UNL     1       5.821   6.076  16.306  0.00  0.00    +0.000 A 
ATOM     10  C   UNL     1       5.719   4.702  16.182  0.00  0.00    +0.000 A 
ATOM     11  C   UNL     1       4.652   4.044  16.787  0.00  0.00    +0.000 A 
ATOM     12  C   UNL     1       3.656   4.745  17.509  0.00  0.00    +0.000 A 
BRANCH  12  13
ATOM     13  C   UNL     1       2.608   3.918  18.095  0.00  0.00    +0.000 A 
ATOM     14  N   UNL     1       2.832   3.165  19.229  0.00  0.00    +0.000 NA
ATOM     15  N   UNL     1       1.684   2.576  19.532  0.00  0.00    +0.000 NA
ATOM     16  N   UNL     1       0.838   2.984  18.580  0.00  0.00    +0.000 N 
ATOM     17  N   UNL     1       1.354   3.777  17.630  0.00  0.00    +0.000 NA
ATOM     18  H   UNL     1      -0.142   2.719  18.591  0.00  0.00    +0.000 HD
ENDBRANCH  12  13
ENDBRANCH   4   7
BRANCH   1  19
ATOM     19  C   UNL     1       0.482   9.872  20.804  0.00  0.00    +0.000 C 
BRANCH  19  30
ATOM     20  C   UNL     1      -0.761  11.389  19.204  0.00  0.00    +0.000 C 
ATOM     21  N   UNL     1      -0.753  12.589  18.710  0.00  0.00    +0.000 NA
ATOM     22  C   UNL     1       0.394  13.284  19.354  0.00  0.00    +0.000 C 
ATOM     23  C   UNL     1      -0.117  14.475  20.156  0.00  0.00    +0.000 C 
ATOM     24  C   UNL     1       1.040  15.349  20.621  0.00  0.00    +0.000 C 
ATOM     25  O   UNL     1       1.847  15.749  19.514  0.00  0.00    +0.000 OA
ATOM     26  C   UNL     1       2.452  14.640  18.851  0.00  0.00    +0.000 C 
ATOM     27  C   UNL     1       1.391  13.710  18.277  0.00  0.00    +0.000 C 
ATOM     28  C   UNL     1       0.975  12.212  20.264  0.00  0.00    +0.000 C 
ATOM     29  O   UNL     1       1.980  12.307  20.956  0.00  0.00    +0.000 OA
ATOM     30  N   UNL     1       0.172  11.112  20.123  0.00  0.00    +0.000 N 
BRANCH  20  31
ATOM     31  C   UNL     1      -1.775  10.372  18.732  0.00  0.00    +0.000 C 
BRANCH  31  33
ATOM     32  C   UNL     1      -2.735  10.506  16.376  0.00  0.00    +0.000 C 
ATOM     33  C   UNL     1      -1.582  10.034  17.253  0.00  0.00    +0.000 C 
ENDBRANCH  31  33
ENDBRANCH  20  31
ENDBRANCH  19  30
ENDBRANCH   1  19
TORSDOF 6
ENDMDL
MODEL 4
REMARK VINA RESULT:      -8.9      2.901      8.941
REMARK  Name = 
REMARK  7 active torsions:
REMARK  status: ('A' for Active; 'I' for Inactive)
REMARK    1  A    between atoms: C_1  and  C_2
REMARK    2  A    between atoms: C_2  and  C_3
REMARK    3  A    between atoms: C_3  and  C_4
REMARK    4  A    between atoms: N_14  and  C_15
REMARK    5  A    between atoms: C_15  and  C_16
REMARK    6  A    between atoms: C_19  and  C_20
REMARK    7  A    between atoms: C_25  and  C_26
REMARK                            x       y       z     vdW  Elec       q    Type
REMARK                         _______ _______ _______ _____ _____    ______ ____
ROOT
ATOM      1  C   UNL     1       2.633   7.824  18.396  0.00  0.00    +0.000 A 
ATOM      2  C   UNL     1       2.245   7.597  19.717  0.00  0.00    +0.000 A 
ATOM      3  C   UNL     1       1.290   8.420  20.332  0.00  0.00    +0.000 A 
ATOM      4  C   UNL     1       0.712   9.526  19.672  0.00  0.00    +0.000 A 
ATOM      5  C   UNL     1       1.094   9.711  18.334  0.00  0.00    +0.000 A 
ATOM      6  C   UNL     1       2.001   8.854  17.693  0.00  0.00    +0.000 A 
ENDROOT
BRANCH   4   7
ATOM      7  C   UNL     1      -0.190  10.474  20.405  0.00  0.00    +0.000 A 
ATOM      8  C   UNL     1       0.086  10.719  21.777  0.00  0.00    +0.000 A 
ATOM      9  C   UNL     1      -0.665  11.599  22.562  0.00  0.00    +0.000 A 
ATOM     10  C   UNL     1      -1.719  12.295  21.997  0.00  0.00    +0.000 A 
ATOM     11  C   UNL     1      -2.013  12.104  20.650  0.00  0.00    +0.000 A 
ATOM     12  C   UNL     1      -1.275  11.201  19.846  0.00  0.00    +0.000 A 
BRANCH  12  13
ATOM     13  C   UNL     1      -1.693  11.119  18.452  0.00  0.00    +0.000 A 
ATOM     14  N   UNL     1      -2.328  10.000  17.953  0.00  0.00    +0.000 NA
ATOM     15  N   UNL     1      -2.618  10.256  16.686  0.00  0.00    +0.000 NA
ATOM     16  N   UNL     1      -2.146  11.489  16.477  0.00  0.00    +0.000 N 
ATOM     17  N   UNL     1      -1.518  12.064  17.512  0.00  0.00    +0.000 NA
ATOM     18  H   UNL     1      -2.275  11.964  15.589  0.00  0.00    +0.000 HD
ENDBRANCH  12  13
ENDBRANCH   4   7
BRANCH   1  19
ATOM     19  C   UNL     1       3.760   7.045  17.758  0.00  0.00    +0.000 C 
BRANCH  19  30
ATOM     20  C   UNL     1       5.124   5.192  18.812  0.00  0.00    +0.000 C 
ATOM     21  N   UNL     1       5.042   3.967  19.234  0.00  0.00    +0.000 NA
ATOM     22  C   UNL     1       3.626   3.560  19.021  0.00  0.00    +0.000 C 
ATOM     23  C   UNL     1       2.985   3.226  20.363  0.00  0.00    +0.000 C 
ATOM     24  C   UNL     1       1.625   2.572  20.162  0.00  0.00    +0.000 C 
ATOM     25  O   UNL     1       1.734   1.429  19.315  0.00  0.00    +0.000 OA
ATOM     26  C   UNL     1       2.191   1.762  18.006  0.00  0.00    +0.000 C 
ATOM     27  C   UNL     1       3.585   2.373  18.060  0.00  0.00    +0.000 C 
ATOM     28  C   UNL     1       3.004   4.804  18.405  0.00  0.00    +0.000 C 
ATOM     29  O   UNL     1       1.855   4.921  18.000  0.00  0.00    +0.000 OA
ATOM     30  N   UNL     1       3.994   5.748  18.359  0.00  0.00    +0.000 N 
BRANCH  20  31
ATOM     31  C   UNL     1       6.449   5.921  18.829  0.00  0.00    +0.000 C 
BRANCH  31  33
ATOM     32  C   UNL     1       7.286   4.726  16.741  0.00  0.00    +0.000 C 
ATOM     33  C   UNL     1       7.559   5.078  18.198  0.00  0.00    +0.000 C 
ENDBRANCH  31  33
ENDBRANCH  20  31
ENDBRANCH  19  30
ENDBRANCH   1  19
TORSDOF 6
ENDMDL
MODEL 5
REMARK VINA RESULT:      -8.8      2.394      3.561
REMARK  Name = 
REMARK  7 active torsions:
REMARK  status: ('A' for Active; 'I' for Inactive)
REMARK    1  A    between atoms: C_1  and  C_2
REMARK    2  A    between atoms: C_2  and  C_3
REMARK    3  A    between atoms: C_3  and  C_4
REMARK    4  A    between atoms: N_14  and  C_15
REMARK    5  A    between atoms: C_15  and  C_16
REMARK    6  A    between atoms: C_19  and  C_20
REMARK    7  A    between atoms: C_25  and  C_26
REMARK                            x       y       z     vdW  Elec       q    Type
REMARK                         _______ _______ _______ _____ _____    ______ ____
ROOT
ATOM      1  C   UNL     1       0.799   9.538  20.235  0.00  0.00    +0.000 A 
ATOM      2  C   UNL     1       1.079   9.642  18.871  0.00  0.00    +0.000 A 
ATOM      3  C   UNL     1       1.796   8.632  18.212  0.00  0.00    +0.000 A 
ATOM      4  C   UNL     1       2.298   7.499  18.888  0.00  0.00    +0.000 A 
ATOM      5  C   UNL     1       1.972   7.404  20.250  0.00  0.00    +0.000 A 
ATOM      6  C   UNL     1       1.201   8.378  20.902  0.00  0.00    +0.000 A 
ENDROOT
BRANCH   4   7
ATOM      7  C   UNL     1       3.188   6.517  18.188  0.00  0.00    +0.000 A 
ATOM      8  C   UNL     1       4.162   7.033  17.290  0.00  0.00    +0.000 A 
ATOM      9  C   UNL     1       5.065   6.223  16.596  0.00  0.00    +0.000 A 
ATOM     10  C   UNL     1       5.048   4.853  16.789  0.00  0.00    +0.000 A 
ATOM     11  C   UNL     1       4.127   4.304  17.677  0.00  0.00    +0.000 A 
ATOM     12  C   UNL     1       3.191   5.108  18.372  0.00  0.00    +0.000 A 
BRANCH  12  13
ATOM     13  C   UNL     1       2.299   4.391  19.276  0.00  0.00    +0.000 A 
ATOM     14  N   UNL     1       2.664   4.105  20.575  0.00  0.00    +0.000 NA
ATOM     15  N   UNL     1       1.630   3.501  21.140  0.00  0.00    +0.000 NA
ATOM     16  N   UNL     1       0.709   3.441  20.174  0.00  0.00    +0.000 N 
ATOM     17  N   UNL     1       1.072   3.929  18.979  0.00  0.00    +0.000 NA
ATOM     18  H   UNL     1      -0.218   3.063  20.345  0.00  0.00    +0.000 HD
ENDBRANCH  12  13
ENDBRANCH   4   7
BRANCH   1  19
ATOM     19  C   UNL     1       0.155  10.673  20.998  0.00  0.00    +0.000 C 
BRANCH  19  30
ATOM     20  C   UNL     1      -0.726  12.409  19.381  0.00  0.00    +0.000 C 
ATOM     21  N   UNL     1      -0.437  13.554  18.844  0.00  0.00    +0.000 NA
ATOM     22  C   UNL     1       0.872  13.956  19.427  0.00  0.00    +0.000 C 
ATOM     23  C   UNL     1       0.707  15.259  20.200  0.00  0.00    +0.000 C 
ATOM     24  C   UNL     1       2.063  15.826  20.598  0.00  0.00    +0.000 C 
ATOM     25  O   UNL     1       2.902  15.978  19.453  0.00  0.00    +0.000 OA
ATOM     26  C   UNL     1       3.184  14.734  18.814  0.00  0.00    +0.000 C 
ATOM     27  C   UNL     1       1.902  14.086  18.306  0.00  0.00    +0.000 C 
ATOM     28  C   UNL     1       1.199  12.798  20.359  0.00  0.00    +0.000 C 
ATOM     29  O   UNL     1       2.221  12.655  21.016  0.00  0.00    +0.000 OA
ATOM     30  N   UNL     1       0.141  11.932  20.282  0.00  0.00    +0.000 N 
BRANCH  20  31
ATOM     31  C   UNL     1      -1.981  11.668  18.977  0.00  0.00    +0.000 C 
BRANCH  31  33
ATOM     32  C   UNL     1      -2.026   9.955  17.093  0.00  0.00    +0.000 C 
ATOM     33  C   UNL     1      -2.029  11.432  17.466  0.00  0.00    +0.000 C 
ENDBRANCH  31  33
ENDBRANCH  20  31
ENDBRANCH  19  30
ENDBRANCH   1  19
TORSDOF 6
ENDMDL
MODEL 6
REMARK VINA RESULT:      -8.7      2.651      4.412
REMARK  Name = 
REMARK  7 active torsions:
REMARK  status: ('A' for Active; 'I' for Inactive)
REMARK    1  A    between atoms: C_1  and  C_2
REMARK    2  A    between atoms: C_2  and  C_3
REMARK    3  A    between atoms: C_3  and  C_4
REMARK    4  A    between atoms: N_14  and  C_15
REMARK    5  A    between atoms: C_15  and  C_16
REMARK    6  A    between atoms: C_19  and  C_20
REMARK    7  A    between atoms: C_25  and  C_26
REMARK                            x       y       z     vdW  Elec       q    Type
REMARK                         _______ _______ _______ _____ _____    ______ ____
ROOT
ATOM      1  C   UNL     1       1.388   9.024  19.413  0.00  0.00    +0.000 A 
ATOM      2  C   UNL     1       1.744   9.147  18.069  0.00  0.00    +0.000 A 
ATOM      3  C   UNL     1       2.520   8.161  17.443  0.00  0.00    +0.000 A 
ATOM      4  C   UNL     1       3.008   7.033  18.137  0.00  0.00    +0.000 A 
ATOM      5  C   UNL     1       2.608   6.917  19.477  0.00  0.00    +0.000 A 
ATOM      6  C   UNL     1       1.779   7.867  20.092  0.00  0.00    +0.000 A 
ENDROOT
BRANCH   4   7
ATOM      7  C   UNL     1       3.960   6.078  17.481  0.00  0.00    +0.000 A 
ATOM      8  C   UNL     1       5.114   6.622  16.854  0.00  0.00    +0.000 A 
ATOM      9  C   UNL     1       6.086   5.836  16.230  0.00  0.00    +0.000 A 
ATOM     10  C   UNL     1       5.957   4.458  16.226  0.00  0.00    +0.000 A 
ATOM     11  C   UNL     1       4.855   3.878  16.848  0.00  0.00    +0.000 A 
ATOM     12  C   UNL     1       3.850   4.661  17.466  0.00  0.00    +0.000 A 
BRANCH  12  13
ATOM     13  C   UNL     1       2.764   3.911  18.085  0.00  0.00    +0.000 A 
ATOM     14  N   UNL     1       1.533   3.787  17.476  0.00  0.00    +0.000 NA
ATOM     15  N   UNL     1       0.793   3.015  18.258  0.00  0.00    +0.000 NA
ATOM     16  N   UNL     1       1.591   2.721  19.289  0.00  0.00    +0.000 N 
ATOM     17  N   UNL     1       2.809   3.281  19.272  0.00  0.00    +0.000 NA
ATOM     18  H   UNL     1       1.293   2.094  20.030  0.00  0.00    +0.000 HD
ENDBRANCH  12  13
ENDBRANCH   4   7
BRANCH   1  19
ATOM     19  C   UNL     1       0.676  10.137  20.148  0.00  0.00    +0.000 C 
BRANCH  19  30
ATOM     20  C   UNL     1       0.013  12.244  18.913  0.00  0.00    +0.000 C 
ATOM     21  N   UNL     1      -0.941  12.761  18.200  0.00  0.00    +0.000 NA
ATOM     22  C   UNL     1      -1.975  11.698  18.076  0.00  0.00    +0.000 C 
ATOM     23  C   UNL     1      -2.155  11.331  16.608  0.00  0.00    +0.000 C 
ATOM     24  C   UNL     1      -3.371  10.434  16.422  0.00  0.00    +0.000 C 
ATOM     25  O   UNL     1      -4.537  11.042  16.975  0.00  0.00    +0.000 OA
ATOM     26  C   UNL     1      -4.431  11.248  18.382  0.00  0.00    +0.000 C 
ATOM     27  C   UNL     1      -3.278  12.192  18.704  0.00  0.00    +0.000 C 
ATOM     28  C   UNL     1      -1.373  10.544  18.865  0.00  0.00    +0.000 C 
ATOM     29  O   UNL     1      -1.900   9.464  19.095  0.00  0.00    +0.000 OA
ATOM     30  N   UNL     1      -0.147  10.972  19.298  0.00  0.00    +0.000 N 
BRANCH  20  31
ATOM     31  C   UNL     1       1.223  13.069  19.287  0.00  0.00    +0.000 C 
BRANCH  31  33
ATOM     32  C   UNL     1       3.067  14.351  18.085  0.00  0.00    +0.000 C 
ATOM     33  C   UNL     1       2.276  13.053  18.177  0.00  0.00    +0.000 C 
ENDBRANCH  31  33
ENDBRANCH  20  31
ENDBRANCH  19  30
ENDBRANCH   1  19
TORSDOF 6
ENDMDL
MODEL 7
REMARK VINA RESULT:      -8.7      2.120      3.253
REMARK  Name = 
REMARK  7 active torsions:
REMARK  status: ('A' for Active; 'I' for Inactive)
REMARK    1  A    between atoms: C_1  and  C_2
REMARK    2  A    between atoms: C_2  and  C_3
REMARK    3  A    between atoms: C_3  and  C_4
REMARK    4  A    between atoms: N_14  and  C_15
REMARK    5  A    between atoms: C_15  and  C_16
REMARK    6  A    between atoms: C_19  and  C_20
REMARK    7  A    between atoms: C_25  and  C_26
REMARK                            x       y       z     vdW  Elec       q    Type
REMARK                         _______ _______ _______ _____ _____    ______ ____
ROOT
ATOM      1  C   UNL     1       1.212   9.451  18.851  0.00  0.00    +0.000 A 
ATOM      2  C   UNL     1       1.233   8.823  20.097  0.00  0.00    +0.000 A 
ATOM      3  C   UNL     1       1.904   7.604  20.270  0.00  0.00    +0.000 A 
ATOM      4  C   UNL     1       2.548   6.940  19.204  0.00  0.00    +0.000 A 
ATOM      5  C   UNL     1       2.541   7.610  17.970  0.00  0.00    +0.000 A 
ATOM      6  C   UNL     1       1.926   8.860  17.805  0.00  0.00    +0.000 A 
ENDROOT
BRANCH   4   7
ATOM      7  C   UNL     1       3.125   5.568  19.387  0.00  0.00    +0.000 A 
ATOM      8  C   UNL     1       2.470   4.694  20.297  0.00  0.00    +0.000 A 
ATOM      9  C   UNL     1       2.895   3.385  20.538  0.00  0.00    +0.000 A 
ATOM     10  C   UNL     1       3.989   2.881  19.855  0.00  0.00    +0.000 A 
ATOM     11  C   UNL     1       4.648   3.693  18.937  0.00  0.00    +0.000 A 
ATOM     12  C   UNL     1       4.243   5.028  18.697  0.00  0.00    +0.000 A 
BRANCH  12  13
ATOM     13  C   UNL     1       5.024   5.750  17.699  0.00  0.00    +0.000 A 
ATOM     14  N   UNL     1       4.785   5.600  16.349  0.00  0.00    +0.000 NA
ATOM     15  N   UNL     1       5.615   6.417  15.719  0.00  0.00    +0.000 NA
ATOM     16  N   UNL     1       6.312   7.005  16.696  0.00  0.00    +0.000 N 
ATOM     17  N   UNL     1       6.032   6.604  17.945  0.00  0.00    +0.000 NA
ATOM     18  H   UNL     1       6.999   7.726  16.500  0.00  0.00    +0.000 HD
ENDBRANCH  12  13
ENDBRANCH   4   7
BRANCH   1  19
ATOM     19  C   UNL     1       0.379  10.688  18.602  0.00  0.00    +0.000 C 
BRANCH  19  30
ATOM     20  C   UNL     1       0.108  12.203  20.611  0.00  0.00    +0.000 C 
ATOM     21  N   UNL     1       0.569  13.291  21.147  0.00  0.00    +0.000 NA
ATOM     22  C   UNL     1       1.642  13.769  20.234  0.00  0.00    +0.000 C 
ATOM     23  C   UNL     1       2.973  13.786  20.977  0.00  0.00    +0.000 C 
ATOM     24  C   UNL     1       4.039  14.500  20.157  0.00  0.00    +0.000 C 
ATOM     25  O   UNL     1       3.605  15.810  19.795  0.00  0.00    +0.000 OA
ATOM     26  C   UNL     1       2.442  15.791  18.969  0.00  0.00    +0.000 C 
ATOM     27  C   UNL     1       1.269  15.153  19.703  0.00  0.00    +0.000 C 
ATOM     28  C   UNL     1       1.639  12.724  19.129  0.00  0.00    +0.000 C 
ATOM     29  O   UNL     1       2.321  12.733  18.113  0.00  0.00    +0.000 OA
ATOM     30  N   UNL     1       0.694  11.797  19.478  0.00  0.00    +0.000 N 
BRANCH  20  31
ATOM     31  C   UNL     1      -1.044  11.461  21.251  0.00  0.00    +0.000 C 
BRANCH  31  33
ATOM     32  C   UNL     1      -0.471   9.860  23.148  0.00  0.00    +0.000 C 
ATOM     33  C   UNL     1      -0.830  11.288  22.756  0.00  0.00    +0.000 C 
ENDBRANCH  31  33
ENDBRANCH  20  31
ENDBRANCH  19  30
ENDBRANCH   1  19
TORSDOF 6
ENDMDL
MODEL 8
REMARK VINA RESULT:      -8.7      2.999      9.003
REMARK  Name = 
REMARK  7 active torsions:
REMARK  status: ('A' for Active; 'I' for Inactive)
REMARK    1  A    between atoms: C_1  and  C_2
REMARK    2  A    between atoms: C_2  and  C_3
REMARK    3  A    between atoms: C_3  and  C_4
REMARK    4  A    between atoms: N_14  and  C_15
REMARK    5  A    between atoms: C_15  and  C_16
REMARK    6  A    between atoms: C_19  and  C_20
REMARK    7  A    between atoms: C_25  and  C_26
REMARK                            x       y       z     vdW  Elec       q    Type
REMARK                         _______ _______ _______ _____ _____    ______ ____
ROOT
ATOM      1  C   UNL     1       2.147   7.407  19.517  0.00  0.00    +0.000 A 
ATOM      2  C   UNL     1       1.474   8.088  20.533  0.00  0.00    +0.000 A 
ATOM      3  C   UNL     1       0.982   9.384  20.318  0.00  0.00    +0.000 A 
ATOM      4  C   UNL     1       1.173  10.070  19.100  0.00  0.00    +0.000 A 
ATOM      5  C   UNL     1       1.822   9.350  18.085  0.00  0.00    +0.000 A 
ATOM      6  C   UNL     1       2.261   8.031  18.272  0.00  0.00    +0.000 A 
ENDROOT
BRANCH   4   7
ATOM      7  C   UNL     1       0.769  11.507  18.954  0.00  0.00    +0.000 A 
ATOM      8  C   UNL     1       1.740  12.499  19.260  0.00  0.00    +0.000 A 
ATOM      9  C   UNL     1       1.494  13.869  19.141  0.00  0.00    +0.000 A 
ATOM     10  C   UNL     1       0.264  14.310  18.686  0.00  0.00    +0.000 A 
ATOM     11  C   UNL     1      -0.711  13.374  18.353  0.00  0.00    +0.000 A 
ATOM     12  C   UNL     1      -0.486  11.983  18.487  0.00  0.00    +0.000 A 
BRANCH  12  13
ATOM     13  C   UNL     1      -1.596  11.127  18.087  0.00  0.00    +0.000 A 
ATOM     14  N   UNL     1      -2.888  11.380  18.499  0.00  0.00    +0.000 NA
ATOM     15  N   UNL     1      -3.659  10.464  17.932  0.00  0.00    +0.000 NA
ATOM     16  N   UNL     1      -2.814   9.708  17.225  0.00  0.00    +0.000 N 
ATOM     17  N   UNL     1      -1.516  10.031  17.313  0.00  0.00    +0.000 NA
ATOM     18  H   UNL     1      -3.144   8.945  16.641  0.00  0.00    +0.000 HD
ENDBRANCH  12  13
ENDBRANCH   4   7
BRANCH   1  19
ATOM     19  C   UNL     1       2.810   6.072  19.765  0.00  0.00    +0.000 C 
BRANCH  19  30
ATOM     20  C   UNL     1       2.841   4.538  17.752  0.00  0.00    +0.000 C 
ATOM     21  N   UNL     1       3.607   4.113  16.795  0.00  0.00    +0.000 NA
ATOM     22  C   UNL     1       4.907   4.816  16.975  0.00  0.00    +0.000 C 
ATOM     23  C   UNL     1       5.196   5.674  15.750  0.00  0.00    +0.000 C 
ATOM     24  C   UNL     1       6.621   6.208  15.789  0.00  0.00    +0.000 C 
ATOM     25  O   UNL     1       7.557   5.140  15.934  0.00  0.00    +0.000 OA
ATOM     26  C   UNL     1       7.385   4.427  17.158  0.00  0.00    +0.000 C 
ATOM     27  C   UNL     1       6.006   3.782  17.218  0.00  0.00    +0.000 C 
ATOM     28  C   UNL     1       4.661   5.674  18.207  0.00  0.00    +0.000 C 
ATOM     29  O   UNL     1       5.478   6.387  18.775  0.00  0.00    +0.000 OA
ATOM     30  N   UNL     1       3.361   5.457  18.575  0.00  0.00    +0.000 N 
BRANCH  20  31
ATOM     31  C   UNL     1       1.440   3.991  17.912  0.00  0.00    +0.000 C 
BRANCH  31  33
ATOM     32  C   UNL     1       0.970   2.971  20.198  0.00  0.00    +0.000 C 
ATOM     33  C   UNL     1       1.429   2.722  18.767  0.00  0.00    +0.000 C 
ENDBRANCH  31  33
ENDBRANCH  20  31
ENDBRANCH  19  30
ENDBRANCH   1  19
TORSDOF 6
ENDMDL
MODEL 9
REMARK VINA RESULT:      -8.6      2.666      4.383
REMARK  Name = 
REMARK  7 active torsions:
REMARK  status: ('A' for Active; 'I' for Inactive)
REMARK    1  A    between atoms: C_1  and  C_2
REMARK    2  A    between atoms: C_2  and  C_3
REMARK    3  A    between atoms: C_3  and  C_4
REMARK    4  A    between atoms: N_14  and  C_15
REMARK    5  A    between atoms: C_15  and  C_16
REMARK    6  A    between atoms: C_19  and  C_20
REMARK    7  A    between atoms: C_25  and  C_26
REMARK                            x       y       z     vdW  Elec       q    Type
REMARK                         _______ _______ _______ _____ _____    ______ ____
ROOT
ATOM      1  C   UNL     1       1.119   8.967  19.592  0.00  0.00    +0.000 A 
ATOM      2  C   UNL     1       1.709   7.879  20.237  0.00  0.00    +0.000 A 
ATOM      3  C   UNL     1       2.605   7.044  19.553  0.00  0.00    +0.000 A 
ATOM      4  C   UNL     1       2.920   7.232  18.191  0.00  0.00    +0.000 A 
ATOM      5  C   UNL     1       2.339   8.352  17.576  0.00  0.00    +0.000 A 
ATOM      6  C   UNL     1       1.492   9.228  18.271  0.00  0.00    +0.000 A 
ENDROOT
BRANCH   4   7
ATOM      7  C   UNL     1       3.760   6.235  17.450  0.00  0.00    +0.000 A 
ATOM      8  C   UNL     1       4.874   6.728  16.716  0.00  0.00    +0.000 A 
ATOM      9  C   UNL     1       5.746   5.899  16.005  0.00  0.00    +0.000 A 
ATOM     10  C   UNL     1       5.554   4.529  16.016  0.00  0.00    +0.000 A 
ATOM     11  C   UNL     1       4.490   3.998  16.740  0.00  0.00    +0.000 A 
ATOM     12  C   UNL     1       3.585   4.825  17.449  0.00  0.00    +0.000 A 
BRANCH  12  13
ATOM     13  C   UNL     1       2.529   4.124  18.169  0.00  0.00    +0.000 A 
ATOM     14  N   UNL     1       2.749   3.567  19.412  0.00  0.00    +0.000 NA
ATOM     15  N   UNL     1       1.595   3.055  19.814  0.00  0.00    +0.000 NA
ATOM     16  N   UNL     1       0.749   3.312  18.811  0.00  0.00    +0.000 N 
ATOM     17  N   UNL     1       1.271   3.928  17.740  0.00  0.00    +0.000 NA
ATOM     18  H   UNL     1      -0.235   3.069  18.871  0.00  0.00    +0.000 HD
ENDBRANCH  12  13
ENDBRANCH   4   7
BRANCH   1  19
ATOM     19  C   UNL     1       0.045   9.795  20.260  0.00  0.00    +0.000 C 
BRANCH  19  30
ATOM     20  C   UNL     1      -0.430  12.023  19.158  0.00  0.00    +0.000 C 
ATOM     21  N   UNL     1      -1.249  12.612  18.342  0.00  0.00    +0.000 NA
ATOM     22  C   UNL     1      -2.220  11.567  17.918  0.00  0.00    +0.000 C 
ATOM     23  C   UNL     1      -2.123  11.362  16.411  0.00  0.00    +0.000 C 
ATOM     24  C   UNL     1      -3.265  10.487  15.910  0.00  0.00    +0.000 C 
ATOM     25  O   UNL     1      -4.525  11.029  16.303  0.00  0.00    +0.000 OA
ATOM     26  C   UNL     1      -4.680  11.081  17.720  0.00  0.00    +0.000 C 
ATOM     27  C   UNL     1      -3.627  11.986  18.345  0.00  0.00    +0.000 C 
ATOM     28  C   UNL     1      -1.746  10.335  18.676  0.00  0.00    +0.000 C 
ATOM     29  O   UNL     1      -2.282   9.235  18.689  0.00  0.00    +0.000 OA
ATOM     30  N   UNL     1      -0.629  10.716  19.368  0.00  0.00    +0.000 N 
BRANCH  20  31
ATOM     31  C   UNL     1       0.674  12.805  19.833  0.00  0.00    +0.000 C 
BRANCH  31  33
ATOM     32  C   UNL     1       2.551  12.681  18.115  0.00  0.00    +0.000 C 
ATOM     33  C   UNL     1       1.525  13.564  18.813  0.00  0.00    +0.000 C 
ENDBRANCH  31  33
ENDBRANCH  20  31
ENDBRANCH  19  30
ENDBRANCH   1  19
TORSDOF 6
ENDMDL
