MODEL 1
REMARK VINA RESULT:      -8.1      0.000      0.000
REMARK  Name = 
REMARK  6 active torsions:
REMARK  status: ('A' for Active; 'I' for Inactive)
REMARK    1  A    between atoms: C_1  and  C_2
REMARK    2  A    between atoms: C_2  and  C_3
REMARK    3  A    between atoms: C_6  and  C_7
REMARK    4  A    between atoms: C_7  and  N_8
REMARK    5  A    between atoms: C_11  and  C_12
REMARK    6  A    between atoms: C_14  and  C_15
REMARK                            x       y       z     vdW  Elec       q    Type
REMARK                         _______ _______ _______ _____ _____    ______ ____
ROOT
ATOM      1  N   UNL     1       5.815   4.007  19.257  0.00  0.00    +0.000 N 
ATOM      2  C   UNL     1       6.312   4.817  18.227  0.00  0.00    +0.000 A 
ATOM      3  C   UNL     1       6.945   5.997  18.568  0.00  0.00    +0.000 A 
ATOM      4  C   UNL     1       7.442   6.767  17.538  0.00  0.00    +0.000 A 
ATOM      5  C   UNL     1       8.080   8.099  17.789  0.00  0.00    +0.000 C 
ATOM      6  N   UNL     1       7.370   6.371  16.255  0.00  0.00    +0.000 NA
ATOM      7  C   UNL     1       6.763   5.191  16.008  0.00  0.00    +0.000 A 
ATOM      8  N   UNL     1       6.221   4.405  16.956  0.00  0.00    +0.000 NA
ATOM      9  H   UNL     1       6.581   3.439  19.619  0.00  0.00    +0.000 HD
ENDROOT
BRANCH   7  10
ATOM     10  C   UNL     1       6.715   4.735  14.621  0.00  0.00    +0.000 A 
ATOM     11  C   UNL     1       5.738   3.846  14.156  0.00  0.00    +0.000 A 
ATOM     12  C   UNL     1       5.715   3.441  12.822  0.00  0.00    +0.000 A 
ATOM     13  C   UNL     1       6.684   3.941  11.975  0.00  0.00    +0.000 A 
ATOM     14  N   UNL     1       7.654   4.796  12.366  0.00  0.00    +0.000 NA
ATOM     15  C   UNL     1       7.644   5.169  13.670  0.00  0.00    +0.000 A 
ENDBRANCH   7  10
BRANCH   1  16
ATOM     16  C   UNL     1       4.709   3.129  18.850  0.00  0.00    +0.000 C 
BRANCH  16  20
ATOM     17  C   UNL     1       1.800   4.887  20.247  0.00  0.00    +0.000 A 
ATOM     18  C   UNL     1       1.028   3.776  19.965  0.00  0.00    +0.000 A 
ATOM     19  S   UNL     1       1.992   2.550  19.259  0.00  0.00    +0.000 S 
ATOM     20  C   UNL     1       3.366   3.580  19.375  0.00  0.00    +0.000 A 
ATOM     21  N   UNL     1       3.141   4.760  19.922  0.00  0.00    +0.000 NA
BRANCH  17  23
ATOM     22  C   UNL     1       1.992   7.368  20.140  0.00  0.00    +0.000 C 
ATOM     23  C   UNL     1       1.321   6.181  20.814  0.00  0.00    +0.000 C 
ENDBRANCH  17  23
ENDBRANCH  16  20
ENDBRANCH   1  16
TORSDOF 4
ENDMDL
MODEL 2
REMARK VINA RESULT:      -8.0      0.594      1.022
REMARK  Name = 
REMARK  6 active torsions:
REMARK  status: ('A' for Active; 'I' for Inactive)
REMARK    1  A    between atoms: C_1  and  C_2
REMARK    2  A    between atoms: C_2  and  C_3
REMARK    3  A    between atoms: C_6  and  C_7
REMARK    4  A    between atoms: C_7  and  N_8
REMARK    5  A    between atoms: C_11  and  C_12
REMARK    6  A    between atoms: C_14  and  C_15
REMARK                            x       y       z     vdW  Elec       q    Type
REMARK                         _______ _______ _______ _____ _____    ______ ____
ROOT
ATOM      1  N   UNL     1       5.818   3.959  19.213  0.00  0.00    +0.000 N 
ATOM      2  C   UNL     1       6.328   4.790  18.205  0.00  0.00    +0.000 A 
ATOM      3  C   UNL     1       6.952   5.965  18.579  0.00  0.00    +0.000 A 
ATOM      4  C   UNL     1       7.462   6.756  17.571  0.00  0.00    +0.000 A 
ATOM      5  C   UNL     1       8.092   8.084  17.857  0.00  0.00    +0.000 C 
ATOM      6  N   UNL     1       7.409   6.385  16.280  0.00  0.00    +0.000 NA
ATOM      7  C   UNL     1       6.809   5.209  16.001  0.00  0.00    +0.000 A 
ATOM      8  N   UNL     1       6.256   4.403  16.925  0.00  0.00    +0.000 NA
ATOM      9  H   UNL     1       6.581   3.386  19.574  0.00  0.00    +0.000 HD
ENDROOT
BRANCH   7  10
ATOM     10  C   UNL     1       6.781   4.780  14.604  0.00  0.00    +0.000 A 
ATOM     11  C   UNL     1       7.662   5.292  13.644  0.00  0.00    +0.000 A 
ATOM     12  C   UNL     1       7.615   4.852  12.322  0.00  0.00    +0.000 A 
ATOM     13  C   UNL     1       6.675   3.896  11.989  0.00  0.00    +0.000 A 
ATOM     14  N   UNL     1       5.797   3.368  12.870  0.00  0.00    +0.000 NA
ATOM     15  C   UNL     1       5.873   3.820  14.147  0.00  0.00    +0.000 A 
ENDBRANCH   7  10
BRANCH   1  16
ATOM     16  C   UNL     1       4.721   3.086  18.773  0.00  0.00    +0.000 C 
BRANCH  16  20
ATOM     17  C   UNL     1       1.798   4.792  20.203  0.00  0.00    +0.000 A 
ATOM     18  C   UNL     1       1.019   3.714  19.828  0.00  0.00    +0.000 A 
ATOM     19  S   UNL     1       1.987   2.523  19.069  0.00  0.00    +0.000 S 
ATOM     20  C   UNL     1       3.370   3.522  19.291  0.00  0.00    +0.000 A 
ATOM     21  N   UNL     1       3.146   4.666  19.908  0.00  0.00    +0.000 NA
BRANCH  17  23
ATOM     22  C   UNL     1       1.953   7.278  20.199  0.00  0.00    +0.000 C 
ATOM     23  C   UNL     1       1.320   6.053  20.842  0.00  0.00    +0.000 C 
ENDBRANCH  17  23
ENDBRANCH  16  20
ENDBRANCH   1  16
TORSDOF 4
ENDMDL
MODEL 3
REMARK VINA RESULT:      -7.7      2.624      6.887
REMARK  Name = 
REMARK  6 active torsions:
REMARK  status: ('A' for Active; 'I' for Inactive)
REMARK    1  A    between atoms: C_1  and  C_2
REMARK    2  A    between atoms: C_2  and  C_3
REMARK    3  A    between atoms: C_6  and  C_7
REMARK    4  A    between atoms: C_7  and  N_8
REMARK    5  A    between atoms: C_11  and  C_12
REMARK    6  A    between atoms: C_14  and  C_15
REMARK                            x       y       z     vdW  Elec       q    Type
REMARK                         _______ _______ _______ _____ _____    ______ ____
ROOT
ATOM      1  N   UNL     1       5.484   3.872  16.992  0.00  0.00    +0.000 N 
ATOM      2  C   UNL     1       4.208   4.111  17.522  0.00  0.00    +0.000 A 
ATOM      3  C   UNL     1       3.393   3.025  17.782  0.00  0.00    +0.000 A 
ATOM      4  C   UNL     1       2.151   3.285  18.320  0.00  0.00    +0.000 A 
ATOM      5  C   UNL     1       1.159   2.191  18.572  0.00  0.00    +0.000 C 
ATOM      6  N   UNL     1       1.758   4.532  18.635  0.00  0.00    +0.000 NA
ATOM      7  C   UNL     1       2.625   5.534  18.377  0.00  0.00    +0.000 A 
ATOM      8  N   UNL     1       3.837   5.362  17.820  0.00  0.00    +0.000 NA
ATOM      9  H   UNL     1       6.114   3.640  17.760  0.00  0.00    +0.000 HD
ENDROOT
BRANCH   7  10
ATOM     10  C   UNL     1       2.222   6.888  18.752  0.00  0.00    +0.000 A 
ATOM     11  C   UNL     1       2.193   7.944  17.833  0.00  0.00    +0.000 A 
ATOM     12  C   UNL     1       1.791   9.221  18.223  0.00  0.00    +0.000 A 
ATOM     13  C   UNL     1       1.425   9.412  19.541  0.00  0.00    +0.000 A 
ATOM     14  N   UNL     1       1.436   8.434  20.473  0.00  0.00    +0.000 NA
ATOM     15  C   UNL     1       1.831   7.205  20.057  0.00  0.00    +0.000 A 
ENDBRANCH   7  10
BRANCH   1  16
ATOM     16  C   UNL     1       6.039   5.000  16.231  0.00  0.00    +0.000 C 
BRANCH  16  20
ATOM     17  C   UNL     1       7.838   7.800  17.788  0.00  0.00    +0.000 A 
ATOM     18  C   UNL     1       8.208   6.955  18.817  0.00  0.00    +0.000 A 
ATOM     19  S   UNL     1       7.587   5.384  18.542  0.00  0.00    +0.000 S 
ATOM     20  C   UNL     1       6.871   5.935  17.077  0.00  0.00    +0.000 A 
ATOM     21  N   UNL     1       7.088   7.204  16.787  0.00  0.00    +0.000 NA
BRANCH  17  23
ATOM     22  C   UNL     1       8.954   9.745  18.872  0.00  0.00    +0.000 C 
ATOM     23  C   UNL     1       8.135   9.259  17.687  0.00  0.00    +0.000 C 
ENDBRANCH  17  23
ENDBRANCH  16  20
ENDBRANCH   1  16
TORSDOF 4
ENDMDL
MODEL 4
REMARK VINA RESULT:      -7.7      1.972      7.110
REMARK  Name = 
REMARK  6 active torsions:
REMARK  status: ('A' for Active; 'I' for Inactive)
REMARK    1  A    between atoms: C_1  and  C_2
REMARK    2  A    between atoms: C_2  and  C_3
REMARK    3  A    between atoms: C_6  and  C_7
REMARK    4  A    between atoms: C_7  and  N_8
REMARK    5  A    between atoms: C_11  and  C_12
REMARK    6  A    between atoms: C_14  and  C_15
REMARK                            x       y       z     vdW  Elec       q    Type
REMARK                         _______ _______ _______ _____ _____    ______ ____
ROOT
ATOM      1  N   UNL     1       6.261   4.329  18.808  0.00  0.00    +0.000 N 
ATOM      2  C   UNL     1       4.886   4.489  19.031  0.00  0.00    +0.000 A 
ATOM      3  C   UNL     1       4.152   3.383  19.414  0.00  0.00    +0.000 A 
ATOM      4  C   UNL     1       2.805   3.570  19.647  0.00  0.00    +0.000 A 
ATOM      5  C   UNL     1       1.902   2.428  19.994  0.00  0.00    +0.000 C 
ATOM      6  N   UNL     1       2.231   4.783  19.561  0.00  0.00    +0.000 NA
ATOM      7  C   UNL     1       3.024   5.818  19.211  0.00  0.00    +0.000 A 
ATOM      8  N   UNL     1       4.335   5.706  18.933  0.00  0.00    +0.000 NA
ATOM      9  H   UNL     1       6.742   4.377  19.706  0.00  0.00    +0.000 HD
ENDROOT
BRANCH   7  10
ATOM     10  C   UNL     1       2.416   7.145  19.154  0.00  0.00    +0.000 A 
ATOM     11  C   UNL     1       2.421   7.923  17.990  0.00  0.00    +0.000 A 
ATOM     12  C   UNL     1       1.820   9.182  17.968  0.00  0.00    +0.000 A 
ATOM     13  C   UNL     1       1.222   9.636  19.128  0.00  0.00    +0.000 A 
ATOM     14  N   UNL     1       1.190   8.933  20.281  0.00  0.00    +0.000 NA
ATOM     15  C   UNL     1       1.783   7.713  20.264  0.00  0.00    +0.000 A 
ENDBRANCH   7  10
BRANCH   1  16
ATOM     16  C   UNL     1       6.840   5.323  17.893  0.00  0.00    +0.000 C 
BRANCH  16  20
ATOM     17  C   UNL     1       7.095   4.865  14.257  0.00  0.00    +0.000 A 
ATOM     18  C   UNL     1       6.094   3.915  14.333  0.00  0.00    +0.000 A 
ATOM     19  S   UNL     1       5.564   3.746  15.953  0.00  0.00    +0.000 S 
ATOM     20  C   UNL     1       6.700   4.944  16.437  0.00  0.00    +0.000 A 
ATOM     21  N   UNL     1       7.424   5.462  15.463  0.00  0.00    +0.000 NA
BRANCH  17  23
ATOM     22  C   UNL     1       7.348   4.522  11.803  0.00  0.00    +0.000 C 
ATOM     23  C   UNL     1       7.853   5.259  13.033  0.00  0.00    +0.000 C 
ENDBRANCH  17  23
ENDBRANCH  16  20
ENDBRANCH   1  16
TORSDOF 4
ENDMDL
MODEL 5
REMARK VINA RESULT:      -7.5      1.919      7.147
REMARK  Name = 
REMARK  6 active torsions:
REMARK  status: ('A' for Active; 'I' for Inactive)
REMARK    1  A    between atoms: C_1  and  C_2
REMARK    2  A    between atoms: C_2  and  C_3
REMARK    3  A    between atoms: C_6  and  C_7
REMARK    4  A    between atoms: C_7  and  N_8
REMARK    5  A    between atoms: C_11  and  C_12
REMARK    6  A    between atoms: C_14  and  C_15
REMARK                            x       y       z     vdW  Elec       q    Type
REMARK                         _______ _______ _______ _____ _____    ______ ____
ROOT
ATOM      1  N   UNL     1       6.200   4.370  18.797  0.00  0.00    +0.000 N 
ATOM      2  C   UNL     1       4.836   4.509  19.090  0.00  0.00    +0.000 A 
ATOM      3  C   UNL     1       4.133   3.386  19.484  0.00  0.00    +0.000 A 
ATOM      4  C   UNL     1       2.798   3.552  19.785  0.00  0.00    +0.000 A 
ATOM      5  C   UNL     1       1.924   2.392  20.151  0.00  0.00    +0.000 C 
ATOM      6  N   UNL     1       2.207   4.759  19.754  0.00  0.00    +0.000 NA
ATOM      7  C   UNL     1       2.970   5.810  19.389  0.00  0.00    +0.000 A 
ATOM      8  N   UNL     1       4.268   5.720  19.045  0.00  0.00    +0.000 NA
ATOM      9  H   UNL     1       6.723   4.404  19.672  0.00  0.00    +0.000 HD
ENDROOT
BRANCH   7  10
ATOM     10  C   UNL     1       2.345   7.131  19.390  0.00  0.00    +0.000 A 
ATOM     11  C   UNL     1       1.651   7.632  20.499  0.00  0.00    +0.000 A 
ATOM     12  C   UNL     1       1.077   8.902  20.469  0.00  0.00    +0.000 A 
ATOM     13  C   UNL     1       1.213   9.649  19.316  0.00  0.00    +0.000 A 
ATOM     14  N   UNL     1       1.866   9.219  18.214  0.00  0.00    +0.000 NA
ATOM     15  C   UNL     1       2.413   7.979  18.280  0.00  0.00    +0.000 A 
ENDBRANCH   7  10
BRANCH   1  16
ATOM     16  C   UNL     1       6.723   5.390  17.877  0.00  0.00    +0.000 C 
BRANCH  16  20
ATOM     17  C   UNL     1       7.062   4.866  14.257  0.00  0.00    +0.000 A 
ATOM     18  C   UNL     1       6.023   3.956  14.318  0.00  0.00    +0.000 A 
ATOM     19  S   UNL     1       5.442   3.833  15.924  0.00  0.00    +0.000 S 
ATOM     20  C   UNL     1       6.610   4.994  16.424  0.00  0.00    +0.000 A 
ATOM     21  N   UNL     1       7.379   5.469  15.463  0.00  0.00    +0.000 NA
BRANCH  17  23
ATOM     22  C   UNL     1       7.341   4.512  11.807  0.00  0.00    +0.000 C 
ATOM     23  C   UNL     1       7.868   5.213  13.050  0.00  0.00    +0.000 C 
ENDBRANCH  17  23
ENDBRANCH  16  20
ENDBRANCH   1  16
TORSDOF 4
ENDMDL
MODEL 6
REMARK VINA RESULT:      -7.4      1.125      1.174
REMARK  Name = 
REMARK  6 active torsions:
REMARK  status: ('A' for Active; 'I' for Inactive)
REMARK    1  A    between atoms: C_1  and  C_2
REMARK    2  A    between atoms: C_2  and  C_3
REMARK    3  A    between atoms: C_6  and  C_7
REMARK    4  A    between atoms: C_7  and  N_8
REMARK    5  A    between atoms: C_11  and  C_12
REMARK    6  A    between atoms: C_14  and  C_15
REMARK                            x       y       z     vdW  Elec       q    Type
REMARK                         _______ _______ _______ _____ _____    ______ ____
ROOT
ATOM      1  N   UNL     1       5.962   4.055  19.270  0.00  0.00    +0.000 N 
ATOM      2  C   UNL     1       6.436   4.876  18.236  0.00  0.00    +0.000 A 
ATOM      3  C   UNL     1       7.038   6.072  18.574  0.00  0.00    +0.000 A 
ATOM      4  C   UNL     1       7.513   6.853  17.541  0.00  0.00    +0.000 A 
ATOM      5  C   UNL     1       8.116   8.201  17.788  0.00  0.00    +0.000 C 
ATOM      6  N   UNL     1       7.447   6.452  16.259  0.00  0.00    +0.000 NA
ATOM      7  C   UNL     1       6.871   5.257  16.016  0.00  0.00    +0.000 A 
ATOM      8  N   UNL     1       6.352   4.459  16.967  0.00  0.00    +0.000 NA
ATOM      9  H   UNL     1       6.744   3.508  19.631  0.00  0.00    +0.000 HD
ENDROOT
BRANCH   7  10
ATOM     10  C   UNL     1       6.830   4.796  14.630  0.00  0.00    +0.000 A 
ATOM     11  C   UNL     1       5.911   3.840  14.183  0.00  0.00    +0.000 A 
ATOM     12  C   UNL     1       5.894   3.432  12.849  0.00  0.00    +0.000 A 
ATOM     13  C   UNL     1       6.809   3.999  11.985  0.00  0.00    +0.000 A 
ATOM     14  N   UNL     1       7.722   4.923  12.358  0.00  0.00    +0.000 NA
ATOM     15  C   UNL     1       7.709   5.296  13.663  0.00  0.00    +0.000 A 
ENDBRANCH   7  10
BRANCH   1  16
ATOM     16  C   UNL     1       4.878   3.148  18.867  0.00  0.00    +0.000 C 
BRANCH  16  20
ATOM     17  C   UNL     1       2.166   5.528  18.173  0.00  0.00    +0.000 A 
ATOM     18  C   UNL     1       1.404   4.478  17.696  0.00  0.00    +0.000 A 
ATOM     19  S   UNL     1       2.275   3.010  17.826  0.00  0.00    +0.000 S 
ATOM     20  C   UNL     1       3.602   3.870  18.505  0.00  0.00    +0.000 A 
ATOM     21  N   UNL     1       3.417   5.168  18.650  0.00  0.00    +0.000 NA
BRANCH  17  23
ATOM     22  C   UNL     1       2.970   7.861  17.838  0.00  0.00    +0.000 C 
ATOM     23  C   UNL     1       1.786   6.971  18.180  0.00  0.00    +0.000 C 
ENDBRANCH  17  23
ENDBRANCH  16  20
ENDBRANCH   1  16
TORSDOF 4
ENDMDL
MODEL 7
REMARK VINA RESULT:      -7.4      2.733      7.490
REMARK  Name = 
REMARK  6 active torsions:
REMARK  status: ('A' for Active; 'I' for Inactive)
REMARK    1  A    between atoms: C_1  and  C_2
REMARK    2  A    between atoms: C_2  and  C_3
REMARK    3  A    between atoms: C_6  and  C_7
REMARK    4  A    between atoms: C_7  and  N_8
REMARK    5  A    between atoms: C_11  and  C_12
REMARK    6  A    between atoms: C_14  and  C_15
REMARK                            x       y       z     vdW  Elec       q    Type
REMARK                         _______ _______ _______ _____ _____    ______ ____
ROOT
ATOM      1  N   UNL     1       5.512   3.849  16.651  0.00  0.00    +0.000 N 
ATOM      2  C   UNL     1       4.301   4.082  17.318  0.00  0.00    +0.000 A 
ATOM      3  C   UNL     1       3.574   2.991  17.755  0.00  0.00    +0.000 A 
ATOM      4  C   UNL     1       2.396   3.246  18.425  0.00  0.00    +0.000 A 
ATOM      5  C   UNL     1       1.493   2.140  18.877  0.00  0.00    +0.000 C 
ATOM      6  N   UNL     1       1.989   4.498  18.697  0.00  0.00    +0.000 NA
ATOM      7  C   UNL     1       2.772   5.508  18.263  0.00  0.00    +0.000 A 
ATOM      8  N   UNL     1       3.913   5.338  17.571  0.00  0.00    +0.000 NA
ATOM      9  H   UNL     1       6.241   3.699  17.348  0.00  0.00    +0.000 HD
ENDROOT
BRANCH   7  10
ATOM     10  C   UNL     1       2.357   6.871  18.588  0.00  0.00    +0.000 A 
ATOM     11  C   UNL     1       2.311   7.891  17.629  0.00  0.00    +0.000 A 
ATOM     12  C   UNL     1       1.899   9.178  17.972  0.00  0.00    +0.000 A 
ATOM     13  C   UNL     1       1.538   9.416  19.284  0.00  0.00    +0.000 A 
ATOM     14  N   UNL     1       1.566   8.475  20.253  0.00  0.00    +0.000 NA
ATOM     15  C   UNL     1       1.971   7.234  19.882  0.00  0.00    +0.000 A 
ENDBRANCH   7  10
BRANCH   1  16
ATOM     16  C   UNL     1       5.918   4.936  15.749  0.00  0.00    +0.000 C 
BRANCH  16  20
ATOM     17  C   UNL     1       5.974   3.429  12.398  0.00  0.00    +0.000 A 
ATOM     18  C   UNL     1       7.135   4.131  12.132  0.00  0.00    +0.000 A 
ATOM     19  S   UNL     1       7.590   5.058  13.497  0.00  0.00    +0.000 S 
ATOM     20  C   UNL     1       6.215   4.464  14.345  0.00  0.00    +0.000 A 
ATOM     21  N   UNL     1       5.464   3.612  13.673  0.00  0.00    +0.000 NA
BRANCH  17  23
ATOM     22  C   UNL     1       3.883   3.156  11.073  0.00  0.00    +0.000 C 
ATOM     23  C   UNL     1       5.228   2.553  11.448  0.00  0.00    +0.000 C 
ENDBRANCH  17  23
ENDBRANCH  16  20
ENDBRANCH   1  16
TORSDOF 4
ENDMDL
MODEL 8
REMARK VINA RESULT:      -7.3      1.380      1.882
REMARK  Name = 
REMARK  6 active torsions:
REMARK  status: ('A' for Active; 'I' for Inactive)
REMARK    1  A    between atoms: C_1  and  C_2
REMARK    2  A    between atoms: C_2  and  C_3
REMARK    3  A    between atoms: C_6  and  C_7
REMARK    4  A    between atoms: C_7  and  N_8
REMARK    5  A    between atoms: C_11  and  C_12
REMARK    6  A    between atoms: C_14  and  C_15
REMARK                            x       y       z     vdW  Elec       q    Type
REMARK                         _______ _______ _______ _____ _____    ______ ____
ROOT
ATOM      1  N   UNL     1       5.953   3.721  18.885  0.00  0.00    +0.000 N 
ATOM      2  C   UNL     1       6.408   4.635  17.924  0.00  0.00    +0.000 A 
ATOM      3  C   UNL     1       6.919   5.843  18.359  0.00  0.00    +0.000 A 
ATOM      4  C   UNL     1       7.377   6.717  17.396  0.00  0.00    +0.000 A 
ATOM      5  C   UNL     1       7.882   8.082  17.749  0.00  0.00    +0.000 C 
ATOM      6  N   UNL     1       7.384   6.397  16.090  0.00  0.00    +0.000 NA
ATOM      7  C   UNL     1       6.896   5.185  15.750  0.00  0.00    +0.000 A 
ATOM      8  N   UNL     1       6.397   4.296  16.628  0.00  0.00    +0.000 NA
ATOM      9  H   UNL     1       6.756   3.203  19.242  0.00  0.00    +0.000 HD
ENDROOT
BRANCH   7  10
ATOM     10  C   UNL     1       6.935   4.814  14.337  0.00  0.00    +0.000 A 
ATOM     11  C   UNL     1       7.804   5.425  13.425  0.00  0.00    +0.000 A 
ATOM     12  C   UNL     1       7.823   5.037  12.085  0.00  0.00    +0.000 A 
ATOM     13  C   UNL     1       6.960   4.035  11.687  0.00  0.00    +0.000 A 
ATOM     14  N   UNL     1       6.097   3.412  12.520  0.00  0.00    +0.000 NA
ATOM     15  C   UNL     1       6.108   3.815  13.816  0.00  0.00    +0.000 A 
ENDBRANCH   7  10
BRANCH   1  16
ATOM     16  C   UNL     1       4.946   2.775  18.384  0.00  0.00    +0.000 C 
BRANCH  16  20
ATOM     17  C   UNL     1       1.574   3.402  19.703  0.00  0.00    +0.000 A 
ATOM     18  C   UNL     1       1.367   4.298  18.671  0.00  0.00    +0.000 A 
ATOM     19  S   UNL     1       2.751   4.371  17.666  0.00  0.00    +0.000 S 
ATOM     20  C   UNL     1       3.528   3.209  18.670  0.00  0.00    +0.000 A 
ATOM     21  N   UNL     1       2.807   2.770  19.685  0.00  0.00    +0.000 NA
BRANCH  17  23
ATOM     22  C   UNL     1       1.362   2.548  22.033  0.00  0.00    +0.000 C 
ATOM     23  C   UNL     1       0.631   3.098  20.818  0.00  0.00    +0.000 C 
ENDBRANCH  17  23
ENDBRANCH  16  20
ENDBRANCH   1  16
TORSDOF 4
ENDMDL
MODEL 9
REMARK VINA RESULT:      -7.3      2.727      7.360
REMARK  Name = 
REMARK  6 active torsions:
REMARK  status: ('A' for Active; 'I' for Inactive)
REMARK    1  A    between atoms: C_1  and  C_2
REMARK    2  A    between atoms: C_2  and  C_3
REMARK    3  A    between atoms: C_6  and  C_7
REMARK    4  A    between atoms: C_7  and  N_8
REMARK    5  A    between atoms: C_11  and  C_12
REMARK    6  A    between atoms: C_14  and  C_15
REMARK                            x       y       z     vdW  Elec       q    Type
REMARK                         _______ _______ _______ _____ _____    ______ ____
ROOT
ATOM      1  N   UNL     1       5.727   3.946  16.688  0.00  0.00    +0.000 N 
ATOM      2  C   UNL     1       4.490   4.181  17.304  0.00  0.00    +0.000 A 
ATOM      3  C   UNL     1       3.761   3.094  17.747  0.00  0.00    +0.000 A 
ATOM      4  C   UNL     1       2.557   3.352  18.367  0.00  0.00    +0.000 A 
ATOM      5  C   UNL     1       1.652   2.247  18.819  0.00  0.00    +0.000 C 
ATOM      6  N   UNL     1       2.125   4.606  18.587  0.00  0.00    +0.000 NA
ATOM      7  C   UNL     1       2.910   5.614  18.151  0.00  0.00    +0.000 A 
ATOM      8  N   UNL     1       4.077   5.439  17.505  0.00  0.00    +0.000 NA
ATOM      9  H   UNL     1       6.432   3.826  17.415  0.00  0.00    +0.000 HD
ENDROOT
BRANCH   7  10
ATOM     10  C   UNL     1       2.466   6.980  18.420  0.00  0.00    +0.000 A 
ATOM     11  C   UNL     1       1.933   7.366  19.656  0.00  0.00    +0.000 A 
ATOM     12  C   UNL     1       1.530   8.682  19.883  0.00  0.00    +0.000 A 
ATOM     13  C   UNL     1       1.672   9.590  18.852  0.00  0.00    +0.000 A 
ATOM     14  N   UNL     1       2.174   9.276  17.638  0.00  0.00    +0.000 NA
ATOM     15  C   UNL     1       2.557   7.987  17.455  0.00  0.00    +0.000 A 
ENDBRANCH   7  10
BRANCH   1  16
ATOM     16  C   UNL     1       6.152   5.011  15.769  0.00  0.00    +0.000 C 
BRANCH  16  20
ATOM     17  C   UNL     1       6.082   3.458  12.440  0.00  0.00    +0.000 A 
ATOM     18  C   UNL     1       7.229   4.159  12.119  0.00  0.00    +0.000 A 
ATOM     19  S   UNL     1       7.734   5.106  13.452  0.00  0.00    +0.000 S 
ATOM     20  C   UNL     1       6.395   4.521  14.361  0.00  0.00    +0.000 A 
ATOM     21  N   UNL     1       5.622   3.657  13.732  0.00  0.00    +0.000 NA
BRANCH  17  23
ATOM     22  C   UNL     1       3.939   3.157  11.207  0.00  0.00    +0.000 C 
ATOM     23  C   UNL     1       5.302   2.567  11.532  0.00  0.00    +0.000 C 
ENDBRANCH  17  23
ENDBRANCH  16  20
ENDBRANCH   1  16
TORSDOF 4
ENDMDL
