MODEL 1
REMARK VINA RESULT:      -8.1      0.000      0.000
REMARK  Name = 
REMARK  8 active torsions:
REMARK  status: ('A' for Active; 'I' for Inactive)
REMARK    1  A    between atoms: C_1  and  C_2
REMARK    2  A    between atoms: C_6  and  C_7
REMARK    3  A    between atoms: C_7  and  N_8
REMARK    4  A    between atoms: C_11  and  C_12
REMARK    5  A    between atoms: N_14  and  C_15
REMARK    6  A    between atoms: C_17  and  C_18
REMARK    7  A    between atoms: C_21  and  C_22
REMARK    8  A    between atoms: C_23  and  N_24
REMARK                            x       y       z     vdW  Elec       q    Type
REMARK                         _______ _______ _______ _____ _____    ______ ____
ROOT
ATOM      1  N   UNL     1       2.702   7.749  18.713  0.00  0.00    +0.000 N 
ATOM      2  N   UNL     1       2.650   8.295  17.477  0.00  0.00    +0.000 NA
ATOM      3  N   UNL     1       1.711   9.233  17.488  0.00  0.00    +0.000 NA
ATOM      4  C   UNL     1       1.155   9.276  18.748  0.00  0.00    +0.000 A 
ATOM      5  C   UNL     1       1.773   8.327  19.550  0.00  0.00    +0.000 A 
ENDROOT
BRANCH   4   6
ATOM      6  C   UNL     1       0.055  10.171  19.097  0.00  0.00    +0.000 C 
ATOM      7  O   UNL     1       0.063  10.823  20.140  0.00  0.00    +0.000 OA
ATOM      8  N   UNL     1      -0.981  10.120  18.174  0.00  0.00    +0.000 N 
ATOM      9  H   UNL     1      -0.847   9.431  17.441  0.00  0.00    +0.000 HD
BRANCH   8  10
ATOM     10  C   UNL     1      -2.213  10.802  18.219  0.00  0.00    +0.000 A 
ATOM     11  C   UNL     1      -2.571  11.626  19.293  0.00  0.00    +0.000 A 
ATOM     12  C   UNL     1      -3.810  12.280  19.338  0.00  0.00    +0.000 A 
ATOM     13  C   UNL     1      -4.177  13.157  20.499  0.00  0.00    +0.000 C 
ATOM     14  C   UNL     1      -4.715  12.092  18.291  0.00  0.00    +0.000 A 
ATOM     15  C   UNL     1      -4.367  11.292  17.203  0.00  0.00    +0.000 A 
ATOM     16  C   UNL     1      -3.118  10.649  17.144  0.00  0.00    +0.000 A 
ATOM     17  C   UNL     1      -2.804   9.809  15.936  0.00  0.00    +0.000 C 
ENDBRANCH   8  10
ENDBRANCH   4   6
BRANCH   5  18
ATOM     18  N   UNL     1       1.567   7.940  20.830  0.00  0.00    +0.000 N 
ATOM     19  H   UNL     1       2.366   7.816  21.457  0.00  0.00    +0.000 HD
ATOM     20  H   UNL     1       0.663   7.829  21.277  0.00  0.00    +0.000 HD
ENDBRANCH   5  18
BRANCH   1  21
ATOM     21  C   UNL     1       3.487   6.545  18.937  0.00  0.00    +0.000 C 
BRANCH  21  27
ATOM     22  C   UNL     1       1.501   2.776  21.660  0.00  0.00    +0.000 C 
ATOM     23  C   UNL     1       1.655   3.485  20.347  0.00  0.00    +0.000 A 
ATOM     24  C   UNL     1       1.071   2.975  19.182  0.00  0.00    +0.000 A 
ATOM     25  C   UNL     1       1.256   3.621  17.962  0.00  0.00    +0.000 A 
ATOM     26  C   UNL     1       2.041   4.771  17.890  0.00  0.00    +0.000 A 
ATOM     27  C   UNL     1       2.648   5.295  19.040  0.00  0.00    +0.000 A 
ATOM     28  C   UNL     1       2.428   4.655  20.271  0.00  0.00    +0.000 A 
ENDBRANCH  21  27
ENDBRANCH   1  21
TORSDOF 5
ENDMDL
MODEL 2
REMARK VINA RESULT:      -8.1      2.839      3.993
REMARK  Name = 
REMARK  8 active torsions:
REMARK  status: ('A' for Active; 'I' for Inactive)
REMARK    1  A    between atoms: C_1  and  C_2
REMARK    2  A    between atoms: C_6  and  C_7
REMARK    3  A    between atoms: C_7  and  N_8
REMARK    4  A    between atoms: C_11  and  C_12
REMARK    5  A    between atoms: N_14  and  C_15
REMARK    6  A    between atoms: C_17  and  C_18
REMARK    7  A    between atoms: C_21  and  C_22
REMARK    8  A    between atoms: C_23  and  N_24
REMARK                            x       y       z     vdW  Elec       q    Type
REMARK                         _______ _______ _______ _____ _____    ______ ____
ROOT
ATOM      1  N   UNL     1       3.284   5.952  18.749  0.00  0.00    +0.000 N 
ATOM      2  N   UNL     1       3.419   6.893  17.786  0.00  0.00    +0.000 NA
ATOM      3  N   UNL     1       2.722   7.958  18.160  0.00  0.00    +0.000 NA
ATOM      4  C   UNL     1       2.130   7.685  19.374  0.00  0.00    +0.000 A 
ATOM      5  C   UNL     1       2.473   6.400  19.768  0.00  0.00    +0.000 A 
ENDROOT
BRANCH   4   6
ATOM      6  C   UNL     1       1.249   8.630  20.055  0.00  0.00    +0.000 C 
ATOM      7  O   UNL     1       0.747   8.370  21.147  0.00  0.00    +0.000 OA
ATOM      8  N   UNL     1       1.007   9.767  19.295  0.00  0.00    +0.000 N 
ATOM      9  H   UNL     1       1.421   9.741  18.369  0.00  0.00    +0.000 HD
BRANCH   8  10
ATOM     10  C   UNL     1       0.168  10.855  19.610  0.00  0.00    +0.000 A 
ATOM     11  C   UNL     1       0.486  11.773  20.619  0.00  0.00    +0.000 A 
ATOM     12  C   UNL     1      -0.368  12.838  20.940  0.00  0.00    +0.000 A 
ATOM     13  C   UNL     1      -0.012  13.811  22.026  0.00  0.00    +0.000 C 
ATOM     14  C   UNL     1      -1.572  12.976  20.246  0.00  0.00    +0.000 A 
ATOM     15  C   UNL     1      -1.894  12.084  19.223  0.00  0.00    +0.000 A 
ATOM     16  C   UNL     1      -1.032  11.026  18.885  0.00  0.00    +0.000 A 
ATOM     17  C   UNL     1      -1.438  10.106  17.765  0.00  0.00    +0.000 C 
ENDBRANCH   8  10
ENDBRANCH   4   6
BRANCH   5  18
ATOM     18  N   UNL     1       2.121   5.648  20.837  0.00  0.00    +0.000 N 
ATOM     19  H   UNL     1       2.807   5.019  21.263  0.00  0.00    +0.000 HD
ATOM     20  H   UNL     1       1.236   5.698  21.331  0.00  0.00    +0.000 HD
ENDBRANCH   5  18
BRANCH   1  21
ATOM     21  C   UNL     1       3.759   4.599  18.507  0.00  0.00    +0.000 C 
BRANCH  21  27
ATOM     22  C   UNL     1       5.943   3.970  13.990  0.00  0.00    +0.000 C 
ATOM     23  C   UNL     1       6.058   4.275  15.455  0.00  0.00    +0.000 A 
ATOM     24  C   UNL     1       7.309   4.461  16.053  0.00  0.00    +0.000 A 
ATOM     25  C   UNL     1       7.405   4.702  17.422  0.00  0.00    +0.000 A 
ATOM     26  C   UNL     1       6.254   4.742  18.208  0.00  0.00    +0.000 A 
ATOM     27  C   UNL     1       4.989   4.545  17.635  0.00  0.00    +0.000 A 
ATOM     28  C   UNL     1       4.902   4.335  16.249  0.00  0.00    +0.000 A 
ENDBRANCH  21  27
ENDBRANCH   1  21
TORSDOF 5
ENDMDL
MODEL 3
REMARK VINA RESULT:      -8.1      2.492      3.134
REMARK  Name = 
REMARK  8 active torsions:
REMARK  status: ('A' for Active; 'I' for Inactive)
REMARK    1  A    between atoms: C_1  and  C_2
REMARK    2  A    between atoms: C_6  and  C_7
REMARK    3  A    between atoms: C_7  and  N_8
REMARK    4  A    between atoms: C_11  and  C_12
REMARK    5  A    between atoms: N_14  and  C_15
REMARK    6  A    between atoms: C_17  and  C_18
REMARK    7  A    between atoms: C_21  and  C_22
REMARK    8  A    between atoms: C_23  and  N_24
REMARK                            x       y       z     vdW  Elec       q    Type
REMARK                         _______ _______ _______ _____ _____    ______ ____
ROOT
ATOM      1  N   UNL     1       2.657   7.595  18.926  0.00  0.00    +0.000 N 
ATOM      2  N   UNL     1       2.496   8.179  17.716  0.00  0.00    +0.000 NA
ATOM      3  N   UNL     1       1.591   9.140  17.848  0.00  0.00    +0.000 NA
ATOM      4  C   UNL     1       1.168   9.162  19.159  0.00  0.00    +0.000 A 
ATOM      5  C   UNL     1       1.835   8.173  19.868  0.00  0.00    +0.000 A 
ENDROOT
BRANCH   4   6
ATOM      6  C   UNL     1       0.136  10.076  19.642  0.00  0.00    +0.000 C 
ATOM      7  O   UNL     1      -0.979  10.117  19.127  0.00  0.00    +0.000 OA
ATOM      8  N   UNL     1       0.598  10.905  20.656  0.00  0.00    +0.000 N 
ATOM      9  H   UNL     1       1.586  10.796  20.862  0.00  0.00    +0.000 HD
BRANCH   8  10
ATOM     10  C   UNL     1      -0.100  11.937  21.315  0.00  0.00    +0.000 A 
ATOM     11  C   UNL     1      -0.138  13.246  20.818  0.00  0.00    +0.000 A 
ATOM     12  C   UNL     1      -0.816  14.270  21.494  0.00  0.00    +0.000 A 
ATOM     13  C   UNL     1      -0.843  15.667  20.948  0.00  0.00    +0.000 C 
ATOM     14  C   UNL     1      -1.455  13.979  22.701  0.00  0.00    +0.000 A 
ATOM     15  C   UNL     1      -1.446  12.677  23.199  0.00  0.00    +0.000 A 
ATOM     16  C   UNL     1      -0.784  11.642  22.515  0.00  0.00    +0.000 A 
ATOM     17  C   UNL     1      -0.823  10.258  23.105  0.00  0.00    +0.000 C 
ENDBRANCH   8  10
ENDBRANCH   4   6
BRANCH   5  18
ATOM     18  N   UNL     1       1.749   7.754  21.151  0.00  0.00    +0.000 N 
ATOM     19  H   UNL     1       2.001   8.392  21.912  0.00  0.00    +0.000 HD
ATOM     20  H   UNL     1       1.371   6.865  21.461  0.00  0.00    +0.000 HD
ENDBRANCH   5  18
BRANCH   1  21
ATOM     21  C   UNL     1       3.424   6.365  19.036  0.00  0.00    +0.000 C 
BRANCH  21  27
ATOM     22  C   UNL     1       1.410   2.586  21.726  0.00  0.00    +0.000 C 
ATOM     23  C   UNL     1       1.556   3.316  20.423  0.00  0.00    +0.000 A 
ATOM     24  C   UNL     1       0.942   2.838  19.261  0.00  0.00    +0.000 A 
ATOM     25  C   UNL     1       1.119   3.502  18.048  0.00  0.00    +0.000 A 
ATOM     26  C   UNL     1       1.925   4.638  17.983  0.00  0.00    +0.000 A 
ATOM     27  C   UNL     1       2.562   5.129  19.132  0.00  0.00    +0.000 A 
ATOM     28  C   UNL     1       2.350   4.472  20.355  0.00  0.00    +0.000 A 
ENDBRANCH  21  27
ENDBRANCH   1  21
TORSDOF 5
ENDMDL
MODEL 4
REMARK VINA RESULT:      -8.0      2.458      3.170
REMARK  Name = 
REMARK  8 active torsions:
REMARK  status: ('A' for Active; 'I' for Inactive)
REMARK    1  A    between atoms: C_1  and  C_2
REMARK    2  A    between atoms: C_6  and  C_7
REMARK    3  A    between atoms: C_7  and  N_8
REMARK    4  A    between atoms: C_11  and  C_12
REMARK    5  A    between atoms: N_14  and  C_15
REMARK    6  A    between atoms: C_17  and  C_18
REMARK    7  A    between atoms: C_21  and  C_22
REMARK    8  A    between atoms: C_23  and  N_24
REMARK                            x       y       z     vdW  Elec       q    Type
REMARK                         _______ _______ _______ _____ _____    ______ ____
ROOT
ATOM      1  N   UNL     1       2.562   7.679  18.924  0.00  0.00    +0.000 N 
ATOM      2  N   UNL     1       2.322   8.267  17.729  0.00  0.00    +0.000 NA
ATOM      3  N   UNL     1       1.408   9.209  17.918  0.00  0.00    +0.000 NA
ATOM      4  C   UNL     1       1.058   9.215  19.251  0.00  0.00    +0.000 A 
ATOM      5  C   UNL     1       1.784   8.236  19.915  0.00  0.00    +0.000 A 
ENDROOT
BRANCH   4   6
ATOM      6  C   UNL     1       0.037  10.105  19.797  0.00  0.00    +0.000 C 
ATOM      7  O   UNL     1      -1.079  10.191  19.289  0.00  0.00    +0.000 OA
ATOM      8  N   UNL     1       0.510  10.860  20.862  0.00  0.00    +0.000 N 
ATOM      9  H   UNL     1       1.498  10.728  21.056  0.00  0.00    +0.000 HD
BRANCH   8  10
ATOM     10  C   UNL     1      -0.176  11.854  21.590  0.00  0.00    +0.000 A 
ATOM     11  C   UNL     1      -1.335  11.573  22.323  0.00  0.00    +0.000 A 
ATOM     12  C   UNL     1      -2.022  12.574  23.024  0.00  0.00    +0.000 A 
ATOM     13  C   UNL     1      -3.265  12.255  23.803  0.00  0.00    +0.000 C 
ATOM     14  C   UNL     1      -1.547  13.886  22.974  0.00  0.00    +0.000 A 
ATOM     15  C   UNL     1      -0.382  14.179  22.267  0.00  0.00    +0.000 A 
ATOM     16  C   UNL     1       0.322  13.176  21.578  0.00  0.00    +0.000 A 
ATOM     17  C   UNL     1       1.577  13.561  20.843  0.00  0.00    +0.000 C 
ENDBRANCH   8  10
ENDBRANCH   4   6
BRANCH   5  18
ATOM     18  N   UNL     1       1.777   7.808  21.198  0.00  0.00    +0.000 N 
ATOM     19  H   UNL     1       2.657   7.539  21.648  0.00  0.00    +0.000 HD
ATOM     20  H   UNL     1       0.972   7.797  21.816  0.00  0.00    +0.000 HD
ENDBRANCH   5  18
BRANCH   1  21
ATOM     21  C   UNL     1       3.358   6.464  18.983  0.00  0.00    +0.000 C 
BRANCH  21  27
ATOM     22  C   UNL     1       1.350   2.682  21.672  0.00  0.00    +0.000 C 
ATOM     23  C   UNL     1       1.523   3.392  20.362  0.00  0.00    +0.000 A 
ATOM     24  C   UNL     1       0.965   2.877  19.187  0.00  0.00    +0.000 A 
ATOM     25  C   UNL     1       1.167   3.523  17.970  0.00  0.00    +0.000 A 
ATOM     26  C   UNL     1       1.944   4.679  17.911  0.00  0.00    +0.000 A 
ATOM     27  C   UNL     1       2.527   5.208  19.072  0.00  0.00    +0.000 A 
ATOM     28  C   UNL     1       2.289   4.567  20.299  0.00  0.00    +0.000 A 
ENDBRANCH  21  27
ENDBRANCH   1  21
TORSDOF 5
ENDMDL
MODEL 5
REMARK VINA RESULT:      -7.8      1.212      1.902
REMARK  Name = 
REMARK  8 active torsions:
REMARK  status: ('A' for Active; 'I' for Inactive)
REMARK    1  A    between atoms: C_1  and  C_2
REMARK    2  A    between atoms: C_6  and  C_7
REMARK    3  A    between atoms: C_7  and  N_8
REMARK    4  A    between atoms: C_11  and  C_12
REMARK    5  A    between atoms: N_14  and  C_15
REMARK    6  A    between atoms: C_17  and  C_18
REMARK    7  A    between atoms: C_21  and  C_22
REMARK    8  A    between atoms: C_23  and  N_24
REMARK                            x       y       z     vdW  Elec       q    Type
REMARK                         _______ _______ _______ _____ _____    ______ ____
ROOT
ATOM      1  N   UNL     1       2.299   7.973  19.053  0.00  0.00    +0.000 N 
ATOM      2  N   UNL     1       2.540   8.274  17.756  0.00  0.00    +0.000 NA
ATOM      3  N   UNL     1       1.713   9.250  17.407  0.00  0.00    +0.000 NA
ATOM      4  C   UNL     1       0.932   9.569  18.497  0.00  0.00    +0.000 A 
ATOM      5  C   UNL     1       1.288   8.757  19.564  0.00  0.00    +0.000 A 
ENDROOT
BRANCH   4   6
ATOM      6  C   UNL     1      -0.122  10.579  18.447  0.00  0.00    +0.000 C 
ATOM      7  O   UNL     1       0.071  11.729  18.838  0.00  0.00    +0.000 OA
ATOM      8  N   UNL     1      -1.329  10.061  17.998  0.00  0.00    +0.000 N 
ATOM      9  H   UNL     1      -1.314   9.059  17.835  0.00  0.00    +0.000 HD
BRANCH   8  10
ATOM     10  C   UNL     1      -2.565  10.728  17.875  0.00  0.00    +0.000 A 
ATOM     11  C   UNL     1      -3.128  11.453  18.933  0.00  0.00    +0.000 A 
ATOM     12  C   UNL     1      -4.369  12.093  18.807  0.00  0.00    +0.000 A 
ATOM     13  C   UNL     1      -4.959  12.862  19.952  0.00  0.00    +0.000 C 
ATOM     14  C   UNL     1      -5.067  11.990  17.602  0.00  0.00    +0.000 A 
ATOM     15  C   UNL     1      -4.510  11.291  16.531  0.00  0.00    +0.000 A 
ATOM     16  C   UNL     1      -3.257  10.664  16.645  0.00  0.00    +0.000 A 
ATOM     17  C   UNL     1      -2.713   9.935  15.447  0.00  0.00    +0.000 C 
ENDBRANCH   8  10
ENDBRANCH   4   6
BRANCH   5  18
ATOM     18  N   UNL     1       0.803   8.636  20.821  0.00  0.00    +0.000 N 
ATOM     19  H   UNL     1       0.705   9.468  21.409  0.00  0.00    +0.000 HD
ATOM     20  H   UNL     1       0.437   7.785  21.236  0.00  0.00    +0.000 HD
ENDBRANCH   5  18
BRANCH   1  21
ATOM     21  C   UNL     1       2.905   6.790  19.644  0.00  0.00    +0.000 C 
BRANCH  21  27
ATOM     22  C   UNL     1       5.272   3.917  16.222  0.00  0.00    +0.000 C 
ATOM     23  C   UNL     1       4.072   4.187  17.081  0.00  0.00    +0.000 A 
ATOM     24  C   UNL     1       2.934   3.378  16.998  0.00  0.00    +0.000 A 
ATOM     25  C   UNL     1       1.810   3.664  17.771  0.00  0.00    +0.000 A 
ATOM     26  C   UNL     1       1.807   4.769  18.620  0.00  0.00    +0.000 A 
ATOM     27  C   UNL     1       2.931   5.604  18.712  0.00  0.00    +0.000 A 
ATOM     28  C   UNL     1       4.070   5.287  17.953  0.00  0.00    +0.000 A 
ENDBRANCH  21  27
ENDBRANCH   1  21
TORSDOF 5
ENDMDL
MODEL 6
REMARK VINA RESULT:      -7.8      3.196      4.448
REMARK  Name = 
REMARK  8 active torsions:
REMARK  status: ('A' for Active; 'I' for Inactive)
REMARK    1  A    between atoms: C_1  and  C_2
REMARK    2  A    between atoms: C_6  and  C_7
REMARK    3  A    between atoms: C_7  and  N_8
REMARK    4  A    between atoms: C_11  and  C_12
REMARK    5  A    between atoms: N_14  and  C_15
REMARK    6  A    between atoms: C_17  and  C_18
REMARK    7  A    between atoms: C_21  and  C_22
REMARK    8  A    between atoms: C_23  and  N_24
REMARK                            x       y       z     vdW  Elec       q    Type
REMARK                         _______ _______ _______ _____ _____    ______ ____
ROOT
ATOM      1  N   UNL     1       3.139   6.664  18.841  0.00  0.00    +0.000 N 
ATOM      2  N   UNL     1       3.363   7.359  17.702  0.00  0.00    +0.000 NA
ATOM      3  N   UNL     1       2.618   8.456  17.744  0.00  0.00    +0.000 NA
ATOM      4  C   UNL     1       1.905   8.452  18.924  0.00  0.00    +0.000 A 
ATOM      5  C   UNL     1       2.221   7.307  19.641  0.00  0.00    +0.000 A 
ENDROOT
BRANCH   4   6
ATOM      6  C   UNL     1       0.947   9.497  19.272  0.00  0.00    +0.000 C 
ATOM      7  O   UNL     1       0.129   9.918  18.456  0.00  0.00    +0.000 OA
ATOM      8  N   UNL     1       1.137   9.980  20.560  0.00  0.00    +0.000 N 
ATOM      9  H   UNL     1       1.941   9.584  21.036  0.00  0.00    +0.000 HD
BRANCH   8  10
ATOM     10  C   UNL     1       0.438  11.019  21.206  0.00  0.00    +0.000 A 
ATOM     11  C   UNL     1       0.547  12.355  20.800  0.00  0.00    +0.000 A 
ATOM     12  C   UNL     1      -0.134  13.384  21.465  0.00  0.00    +0.000 A 
ATOM     13  C   UNL     1      -0.004  14.810  21.017  0.00  0.00    +0.000 C 
ATOM     14  C   UNL     1      -0.928  13.069  22.571  0.00  0.00    +0.000 A 
ATOM     15  C   UNL     1      -1.065  11.742  22.975  0.00  0.00    +0.000 A 
ATOM     16  C   UNL     1      -0.400  10.704  22.300  0.00  0.00    +0.000 A 
ATOM     17  C   UNL     1      -0.600   9.293  22.784  0.00  0.00    +0.000 C 
ENDBRANCH   8  10
ENDBRANCH   4   6
BRANCH   5  18
ATOM     18  N   UNL     1       1.768   6.813  20.816  0.00  0.00    +0.000 N 
ATOM     19  H   UNL     1       0.979   7.265  21.286  0.00  0.00    +0.000 HD
ATOM     20  H   UNL     1       2.088   5.960  21.264  0.00  0.00    +0.000 HD
ENDBRANCH   5  18
BRANCH   1  21
ATOM     21  C   UNL     1       3.653   5.310  18.972  0.00  0.00    +0.000 C 
BRANCH  21  27
ATOM     22  C   UNL     1       6.130   3.865  14.807  0.00  0.00    +0.000 C 
ATOM     23  C   UNL     1       6.151   4.419  16.202  0.00  0.00    +0.000 A 
ATOM     24  C   UNL     1       7.361   4.685  16.850  0.00  0.00    +0.000 A 
ATOM     25  C   UNL     1       7.368   5.160  18.160  0.00  0.00    +0.000 A 
ATOM     26  C   UNL     1       6.167   5.356  18.840  0.00  0.00    +0.000 A 
ATOM     27  C   UNL     1       4.940   5.084  18.217  0.00  0.00    +0.000 A 
ATOM     28  C   UNL     1       4.944   4.637  16.885  0.00  0.00    +0.000 A 
ENDBRANCH  21  27
ENDBRANCH   1  21
TORSDOF 5
ENDMDL
MODEL 7
REMARK VINA RESULT:      -7.7      1.847      8.325
REMARK  Name = 
REMARK  8 active torsions:
REMARK  status: ('A' for Active; 'I' for Inactive)
REMARK    1  A    between atoms: C_1  and  C_2
REMARK    2  A    between atoms: C_6  and  C_7
REMARK    3  A    between atoms: C_7  and  N_8
REMARK    4  A    between atoms: C_11  and  C_12
REMARK    5  A    between atoms: N_14  and  C_15
REMARK    6  A    between atoms: C_17  and  C_18
REMARK    7  A    between atoms: C_21  and  C_22
REMARK    8  A    between atoms: C_23  and  N_24
REMARK                            x       y       z     vdW  Elec       q    Type
REMARK                         _______ _______ _______ _____ _____    ______ ____
ROOT
ATOM      1  N   UNL     1       0.277  10.850  20.183  0.00  0.00    +0.000 N 
ATOM      2  N   UNL     1      -0.062   9.931  21.116  0.00  0.00    +0.000 NA
ATOM      3  N   UNL     1       0.558   8.798  20.812  0.00  0.00    +0.000 NA
ATOM      4  C   UNL     1       1.295   9.000  19.665  0.00  0.00    +0.000 A 
ATOM      5  C   UNL     1       1.125  10.310  19.241  0.00  0.00    +0.000 A 
ENDROOT
BRANCH   4   6
ATOM      6  C   UNL     1       2.070   7.940  19.026  0.00  0.00    +0.000 C 
ATOM      7  O   UNL     1       2.263   7.928  17.811  0.00  0.00    +0.000 OA
ATOM      8  N   UNL     1       2.463   6.957  19.924  0.00  0.00    +0.000 N 
ATOM      9  H   UNL     1       2.103   7.090  20.865  0.00  0.00    +0.000 HD
BRANCH   8  10
ATOM     10  C   UNL     1       3.170   5.769  19.652  0.00  0.00    +0.000 A 
ATOM     11  C   UNL     1       4.457   5.778  19.100  0.00  0.00    +0.000 A 
ATOM     12  C   UNL     1       5.141   4.589  18.812  0.00  0.00    +0.000 A 
ATOM     13  C   UNL     1       6.519   4.617  18.218  0.00  0.00    +0.000 C 
ATOM     14  C   UNL     1       4.515   3.366  19.065  0.00  0.00    +0.000 A 
ATOM     15  C   UNL     1       3.243   3.339  19.635  0.00  0.00    +0.000 A 
ATOM     16  C   UNL     1       2.560   4.528  19.944  0.00  0.00    +0.000 A 
ATOM     17  C   UNL     1       1.193   4.425  20.565  0.00  0.00    +0.000 C 
ENDBRANCH   8  10
ENDBRANCH   4   6
BRANCH   5  18
ATOM     18  N   UNL     1       1.582  10.987  18.163  0.00  0.00    +0.000 N 
ATOM     19  H   UNL     1       2.338  11.669  18.275  0.00  0.00    +0.000 HD
ATOM     20  H   UNL     1       1.299  10.831  17.201  0.00  0.00    +0.000 HD
ENDBRANCH   5  18
BRANCH   1  21
ATOM     21  C   UNL     1      -0.426  12.122  20.136  0.00  0.00    +0.000 C 
BRANCH  21  27
ATOM     22  C   UNL     1      -3.612  10.629  16.504  0.00  0.00    +0.000 C 
ATOM     23  C   UNL     1      -3.378  11.272  17.840  0.00  0.00    +0.000 A 
ATOM     24  C   UNL     1      -4.436  11.832  18.562  0.00  0.00    +0.000 A 
ATOM     25  C   UNL     1      -4.200  12.462  19.782  0.00  0.00    +0.000 A 
ATOM     26  C   UNL     1      -2.901  12.555  20.282  0.00  0.00    +0.000 A 
ATOM     27  C   UNL     1      -1.821  12.014  19.570  0.00  0.00    +0.000 A 
ATOM     28  C   UNL     1      -2.075  11.352  18.358  0.00  0.00    +0.000 A 
ENDBRANCH  21  27
ENDBRANCH   1  21
TORSDOF 5
ENDMDL
MODEL 8
REMARK VINA RESULT:      -7.7      2.643      4.052
REMARK  Name = 
REMARK  8 active torsions:
REMARK  status: ('A' for Active; 'I' for Inactive)
REMARK    1  A    between atoms: C_1  and  C_2
REMARK    2  A    between atoms: C_6  and  C_7
REMARK    3  A    between atoms: C_7  and  N_8
REMARK    4  A    between atoms: C_11  and  C_12
REMARK    5  A    between atoms: N_14  and  C_15
REMARK    6  A    between atoms: C_17  and  C_18
REMARK    7  A    between atoms: C_21  and  C_22
REMARK    8  A    between atoms: C_23  and  N_24
REMARK                            x       y       z     vdW  Elec       q    Type
REMARK                         _______ _______ _______ _____ _____    ______ ____
ROOT
ATOM      1  N   UNL     1       3.281   6.103  18.786  0.00  0.00    +0.000 N 
ATOM      2  N   UNL     1       3.448   7.007  17.793  0.00  0.00    +0.000 NA
ATOM      3  N   UNL     1       2.725   8.077  18.093  0.00  0.00    +0.000 NA
ATOM      4  C   UNL     1       2.084   7.847  19.292  0.00  0.00    +0.000 A 
ATOM      5  C   UNL     1       2.423   6.582  19.752  0.00  0.00    +0.000 A 
ENDROOT
BRANCH   4   6
ATOM      6  C   UNL     1       1.166   8.809  19.896  0.00  0.00    +0.000 C 
ATOM      7  O   UNL     1       0.801   8.702  21.065  0.00  0.00    +0.000 OA
ATOM      8  N   UNL     1       0.724   9.760  18.986  0.00  0.00    +0.000 N 
ATOM      9  H   UNL     1       1.051   9.608  18.037  0.00  0.00    +0.000 HD
BRANCH   8  10
ATOM     10  C   UNL     1      -0.203  10.799  19.203  0.00  0.00    +0.000 A 
ATOM     11  C   UNL     1      -1.535  10.710  18.780  0.00  0.00    +0.000 A 
ATOM     12  C   UNL     1      -2.442  11.760  18.980  0.00  0.00    +0.000 A 
ATOM     13  C   UNL     1      -3.865  11.647  18.518  0.00  0.00    +0.000 C 
ATOM     14  C   UNL     1      -2.000  12.930  19.602  0.00  0.00    +0.000 A 
ATOM     15  C   UNL     1      -0.683  13.028  20.049  0.00  0.00    +0.000 A 
ATOM     16  C   UNL     1       0.226  11.970  19.868  0.00  0.00    +0.000 A 
ATOM     17  C   UNL     1       1.630  12.139  20.383  0.00  0.00    +0.000 C 
ENDBRANCH   8  10
ENDBRANCH   4   6
BRANCH   5  18
ATOM     18  N   UNL     1       2.033   5.870  20.834  0.00  0.00    +0.000 N 
ATOM     19  H   UNL     1       2.691   5.226  21.281  0.00  0.00    +0.000 HD
ATOM     20  H   UNL     1       1.147   5.966  21.319  0.00  0.00    +0.000 HD
ENDBRANCH   5  18
BRANCH   1  21
ATOM     21  C   UNL     1       3.779   4.748  18.620  0.00  0.00    +0.000 C 
BRANCH  21  27
ATOM     22  C   UNL     1       6.004   3.956  14.149  0.00  0.00    +0.000 C 
ATOM     23  C   UNL     1       6.105   4.319  15.601  0.00  0.00    +0.000 A 
ATOM     24  C   UNL     1       7.350   4.536  16.201  0.00  0.00    +0.000 A 
ATOM     25  C   UNL     1       7.433   4.832  17.560  0.00  0.00    +0.000 A 
ATOM     26  C   UNL     1       6.276   4.895  18.335  0.00  0.00    +0.000 A 
ATOM     27  C   UNL     1       5.017   4.667  17.760  0.00  0.00    +0.000 A 
ATOM     28  C   UNL     1       4.943   4.403  16.383  0.00  0.00    +0.000 A 
ENDBRANCH  21  27
ENDBRANCH   1  21
TORSDOF 5
ENDMDL
MODEL 9
REMARK VINA RESULT:      -7.7      1.845      8.136
REMARK  Name = 
REMARK  8 active torsions:
REMARK  status: ('A' for Active; 'I' for Inactive)
REMARK    1  A    between atoms: C_1  and  C_2
REMARK    2  A    between atoms: C_6  and  C_7
REMARK    3  A    between atoms: C_7  and  N_8
REMARK    4  A    between atoms: C_11  and  C_12
REMARK    5  A    between atoms: N_14  and  C_15
REMARK    6  A    between atoms: C_17  and  C_18
REMARK    7  A    between atoms: C_21  and  C_22
REMARK    8  A    between atoms: C_23  and  N_24
REMARK                            x       y       z     vdW  Elec       q    Type
REMARK                         _______ _______ _______ _____ _____    ______ ____
ROOT
ATOM      1  N   UNL     1       0.647  10.576  19.831  0.00  0.00    +0.000 N 
ATOM      2  N   UNL     1       0.393   9.642  20.776  0.00  0.00    +0.000 NA
ATOM      3  N   UNL     1       1.022   8.528  20.424  0.00  0.00    +0.000 NA
ATOM      4  C   UNL     1       1.679   8.758  19.235  0.00  0.00    +0.000 A 
ATOM      5  C   UNL     1       1.447  10.065  18.833  0.00  0.00    +0.000 A 
ENDROOT
BRANCH   4   6
ATOM      6  C   UNL     1       2.438   7.723  18.538  0.00  0.00    +0.000 C 
ATOM      7  O   UNL     1       3.149   7.988  17.571  0.00  0.00    +0.000 OA
ATOM      8  N   UNL     1       2.190   6.454  19.045  0.00  0.00    +0.000 N 
ATOM      9  H   UNL     1       1.480   6.430  19.770  0.00  0.00    +0.000 HD
BRANCH   8  10
ATOM     10  C   UNL     1       2.701   5.224  18.586  0.00  0.00    +0.000 A 
ATOM     11  C   UNL     1       3.744   5.152  17.654  0.00  0.00    +0.000 A 
ATOM     12  C   UNL     1       4.229   3.922  17.186  0.00  0.00    +0.000 A 
ATOM     13  C   UNL     1       5.346   3.864  16.186  0.00  0.00    +0.000 C 
ATOM     14  C   UNL     1       3.644   2.741  17.649  0.00  0.00    +0.000 A 
ATOM     15  C   UNL     1       2.619   2.794  18.594  0.00  0.00    +0.000 A 
ATOM     16  C   UNL     1       2.143   4.024  19.081  0.00  0.00    +0.000 A 
ATOM     17  C   UNL     1       1.041   4.007  20.105  0.00  0.00    +0.000 C 
ENDBRANCH   8  10
ENDBRANCH   4   6
BRANCH   5  18
ATOM     18  N   UNL     1       1.816  10.761  17.733  0.00  0.00    +0.000 N 
ATOM     19  H   UNL     1       1.167  11.433  17.316  0.00  0.00    +0.000 HD
ATOM     20  H   UNL     1       2.735  10.745  17.302  0.00  0.00    +0.000 HD
ENDBRANCH   5  18
BRANCH   1  21
ATOM     21  C   UNL     1      -0.091  11.829  19.839  0.00  0.00    +0.000 C 
BRANCH  21  27
ATOM     22  C   UNL     1      -3.274  10.074  16.324  0.00  0.00    +0.000 C 
ATOM     23  C   UNL     1      -3.036  10.843  17.590  0.00  0.00    +0.000 A 
ATOM     24  C   UNL     1      -4.086  11.509  18.233  0.00  0.00    +0.000 A 
ATOM     25  C   UNL     1      -3.845  12.254  19.385  0.00  0.00    +0.000 A 
ATOM     26  C   UNL     1      -2.551  12.355  19.896  0.00  0.00    +0.000 A 
ATOM     27  C   UNL     1      -1.480  11.709  19.262  0.00  0.00    +0.000 A 
ATOM     28  C   UNL     1      -1.740  10.933  18.121  0.00  0.00    +0.000 A 
ENDBRANCH  21  27
ENDBRANCH   1  21
TORSDOF 5
ENDMDL
