MODEL 1
REMARK VINA RESULT:      -7.5      0.000      0.000
REMARK  Name = 
REMARK  8 active torsions:
REMARK  status: ('A' for Active; 'I' for Inactive)
REMARK    1  A    between atoms: C_2  and  C_3
REMARK    2  A    between atoms: C_3  and  N_4
REMARK    3  A    between atoms: N_4  and  C_5
REMARK    4  A    between atoms: N_4  and  C_8
REMARK    5  A    between atoms: C_5  and  C_6
REMARK    6  A    between atoms: C_8  and  C_9
REMARK    7  A    between atoms: C_10  and  O_11
REMARK    8  A    between atoms: C_17  and  C_18
REMARK                            x       y       z     vdW  Elec       q    Type
REMARK                         _______ _______ _______ _____ _____    ______ ____
ROOT
ATOM      1  C   UNL     1       3.314   5.954  18.443  0.00  0.00    +0.000 A 
ATOM      2  C   UNL     1       3.205   4.990  19.458  0.00  0.00    +0.000 A 
ATOM      3  C   UNL     1       2.446   5.218  20.598  0.00  0.00    +0.000 A 
ATOM      4  C   UNL     1       1.798   6.440  20.772  0.00  0.00    +0.000 A 
ATOM      5  C   UNL     1       1.893   7.422  19.778  0.00  0.00    +0.000 A 
ATOM      6  C   UNL     1       1.235   8.735  19.950  0.00  0.00    +0.000 A 
ATOM      7  O   UNL     1       0.640   9.012  20.987  0.00  0.00    +0.000 OA
ATOM      8  C   UNL     1       1.365   9.693  18.828  0.00  0.00    +0.000 A 
ATOM      9  C   UNL     1       2.099   9.319  17.778  0.00  0.00    +0.000 A 
ATOM     10  O   UNL     1       2.746   8.117  17.622  0.00  0.00    +0.000 OA
ATOM     11  C   UNL     1       2.636   7.181  18.623  0.00  0.00    +0.000 A 
ENDROOT
BRANCH   8  12
ATOM     12  C   UNL     1       0.738  11.025  18.857  0.00  0.00    +0.000 A 
ATOM     13  C   UNL     1       1.499  12.120  19.300  0.00  0.00    +0.000 A 
ATOM     14  C   UNL     1       0.968  13.414  19.286  0.00  0.00    +0.000 A 
ATOM     15  C   UNL     1      -0.330  13.630  18.825  0.00  0.00    +0.000 A 
ATOM     16  C   UNL     1      -1.102  12.551  18.393  0.00  0.00    +0.000 A 
ATOM     17  C   UNL     1      -0.575  11.255  18.415  0.00  0.00    +0.000 A 
ATOM     18 CL   UNL     1      -1.595   9.967  17.871  0.00  0.00    +0.000 Cl
ENDBRANCH   8  12
BRANCH   2  19
ATOM     19  O   UNL     1       3.859   3.789  19.397  0.00  0.00    +0.000 OA
ATOM     20  H   UNL     1       4.722   3.886  19.831  0.00  0.00    +0.000 HD
ENDBRANCH   2  19
BRANCH   1  21
ATOM     21  C   UNL     1       4.130   5.718  17.190  0.00  0.00    +0.000 C 
BRANCH  21  22
ATOM     22  N   UNL     1       5.551   5.368  17.446  0.00  0.00    +0.000 NA
BRANCH  22  23
ATOM     23  C   UNL     1       5.932   4.322  16.459  0.00  0.00    +0.000 C 
BRANCH  23  25
ATOM     24  C   UNL     1       6.184   3.968  13.993  0.00  0.00    +0.000 C 
ATOM     25  C   UNL     1       6.050   4.786  15.038  0.00  0.00    +0.000 C 
ENDBRANCH  23  25
ENDBRANCH  22  23
BRANCH  22  26
ATOM     26  C   UNL     1       6.375   6.586  17.267  0.00  0.00    +0.000 C 
BRANCH  26  27
ATOM     27  C   UNL     1       7.622   6.592  18.119  0.00  0.00    +0.000 C 
ATOM     28  C   UNL     1       7.753   5.829  19.223  0.00  0.00    +0.000 C 
ENDBRANCH  26  27
ENDBRANCH  22  26
ENDBRANCH  21  22
ENDBRANCH   1  21
TORSDOF 8
ENDMDL
MODEL 2
REMARK VINA RESULT:      -7.3      0.920      1.054
REMARK  Name = 
REMARK  8 active torsions:
REMARK  status: ('A' for Active; 'I' for Inactive)
REMARK    1  A    between atoms: C_2  and  C_3
REMARK    2  A    between atoms: C_3  and  N_4
REMARK    3  A    between atoms: N_4  and  C_5
REMARK    4  A    between atoms: N_4  and  C_8
REMARK    5  A    between atoms: C_5  and  C_6
REMARK    6  A    between atoms: C_8  and  C_9
REMARK    7  A    between atoms: C_10  and  O_11
REMARK    8  A    between atoms: C_17  and  C_18
REMARK                            x       y       z     vdW  Elec       q    Type
REMARK                         _______ _______ _______ _____ _____    ______ ____
ROOT
ATOM      1  C   UNL     1       3.849   5.562  18.231  0.00  0.00    +0.000 A 
ATOM      2  C   UNL     1       3.793   4.446  19.082  0.00  0.00    +0.000 A 
ATOM      3  C   UNL     1       2.978   4.428  20.205  0.00  0.00    +0.000 A 
ATOM      4  C   UNL     1       2.216   5.549  20.532  0.00  0.00    +0.000 A 
ATOM      5  C   UNL     1       2.255   6.678  19.704  0.00  0.00    +0.000 A 
ATOM      6  C   UNL     1       1.475   7.888  20.042  0.00  0.00    +0.000 A 
ATOM      7  O   UNL     1       0.821   7.948  21.079  0.00  0.00    +0.000 OA
ATOM      8  C   UNL     1       1.555   9.016  19.087  0.00  0.00    +0.000 A 
ATOM      9  C   UNL     1       2.357   8.874  18.029  0.00  0.00    +0.000 A 
ATOM     10  O   UNL     1       3.116   7.771  17.723  0.00  0.00    +0.000 OA
ATOM     11  C   UNL     1       3.057   6.683  18.563  0.00  0.00    +0.000 A 
ENDROOT
BRANCH   8  12
ATOM     12  C   UNL     1       0.809  10.270  19.287  0.00  0.00    +0.000 A 
ATOM     13  C   UNL     1       1.287  11.197  20.229  0.00  0.00    +0.000 A 
ATOM     14  C   UNL     1       0.648  12.427  20.410  0.00  0.00    +0.000 A 
ATOM     15  C   UNL     1      -0.475  12.749  19.649  0.00  0.00    +0.000 A 
ATOM     16  C   UNL     1      -0.969  11.834  18.719  0.00  0.00    +0.000 A 
ATOM     17  C   UNL     1      -0.336  10.598  18.543  0.00  0.00    +0.000 A 
ATOM     18 CL   UNL     1      -1.010   9.512  17.376  0.00  0.00    +0.000 Cl
ENDBRANCH   8  12
BRANCH   2  19
ATOM     19  O   UNL     1       4.556   3.328  18.870  0.00  0.00    +0.000 OA
ATOM     20  H   UNL     1       3.973   2.609  18.578  0.00  0.00    +0.000 HD
ENDBRANCH   2  19
BRANCH   1  21
ATOM     21  C   UNL     1       4.726   5.594  16.998  0.00  0.00    +0.000 C 
BRANCH  21  22
ATOM     22  N   UNL     1       6.114   5.112  17.225  0.00  0.00    +0.000 NA
BRANCH  22  23
ATOM     23  C   UNL     1       6.759   4.982  15.891  0.00  0.00    +0.000 C 
BRANCH  23  25
ATOM     24  C   UNL     1       6.082   3.923  13.724  0.00  0.00    +0.000 C 
ATOM     25  C   UNL     1       5.825   4.747  14.742  0.00  0.00    +0.000 C 
ENDBRANCH  23  25
ENDBRANCH  22  23
BRANCH  22  26
ATOM     26  C   UNL     1       6.826   6.108  18.059  0.00  0.00    +0.000 C 
BRANCH  26  27
ATOM     27  C   UNL     1       7.209   7.356  17.299  0.00  0.00    +0.000 C 
ATOM     28  C   UNL     1       8.012   8.307  17.818  0.00  0.00    +0.000 C 
ENDBRANCH  26  27
ENDBRANCH  22  26
ENDBRANCH  21  22
ENDBRANCH   1  21
TORSDOF 8
ENDMDL
MODEL 3
REMARK VINA RESULT:      -7.2      1.841      2.659
REMARK  Name = 
REMARK  8 active torsions:
REMARK  status: ('A' for Active; 'I' for Inactive)
REMARK    1  A    between atoms: C_2  and  C_3
REMARK    2  A    between atoms: C_3  and  N_4
REMARK    3  A    between atoms: N_4  and  C_5
REMARK    4  A    between atoms: N_4  and  C_8
REMARK    5  A    between atoms: C_5  and  C_6
REMARK    6  A    between atoms: C_8  and  C_9
REMARK    7  A    between atoms: C_10  and  O_11
REMARK    8  A    between atoms: C_17  and  C_18
REMARK                            x       y       z     vdW  Elec       q    Type
REMARK                         _______ _______ _______ _____ _____    ______ ____
ROOT
ATOM      1  C   UNL     1       4.145   4.655  17.306  0.00  0.00    +0.000 A 
ATOM      2  C   UNL     1       4.002   3.283  17.564  0.00  0.00    +0.000 A 
ATOM      3  C   UNL     1       3.140   2.813  18.546  0.00  0.00    +0.000 A 
ATOM      4  C   UNL     1       2.417   3.713  19.327  0.00  0.00    +0.000 A 
ATOM      5  C   UNL     1       2.543   5.089  19.095  0.00  0.00    +0.000 A 
ATOM      6  C   UNL     1       1.806   6.064  19.927  0.00  0.00    +0.000 A 
ATOM      7  O   UNL     1       1.112   5.693  20.869  0.00  0.00    +0.000 OA
ATOM      8  C   UNL     1       1.978   7.493  19.581  0.00  0.00    +0.000 A 
ATOM      9  C   UNL     1       2.816   7.791  18.586  0.00  0.00    +0.000 A 
ATOM     10  O   UNL     1       3.536   6.898  17.831  0.00  0.00    +0.000 OA
ATOM     11  C   UNL     1       3.392   5.555  18.092  0.00  0.00    +0.000 A 
ENDROOT
BRANCH   8  12
ATOM     12  C   UNL     1       1.282   8.567  20.310  0.00  0.00    +0.000 A 
ATOM     13  C   UNL     1       1.351   8.585  21.714  0.00  0.00    +0.000 A 
ATOM     14  C   UNL     1       0.760   9.618  22.447  0.00  0.00    +0.000 A 
ATOM     15  C   UNL     1       0.095  10.650  21.785  0.00  0.00    +0.000 A 
ATOM     16  C   UNL     1       0.007  10.640  20.393  0.00  0.00    +0.000 A 
ATOM     17  C   UNL     1       0.591   9.602  19.659  0.00  0.00    +0.000 A 
ATOM     18 CL   UNL     1       0.434   9.653  17.936  0.00  0.00    +0.000 Cl
ENDBRANCH   8  12
BRANCH   2  19
ATOM     19  O   UNL     1       4.721   2.334  16.886  0.00  0.00    +0.000 OA
ATOM     20  H   UNL     1       4.153   1.560  16.745  0.00  0.00    +0.000 HD
ENDBRANCH   2  19
BRANCH   1  21
ATOM     21  C   UNL     1       5.074   5.183  16.233  0.00  0.00    +0.000 C 
BRANCH  21  22
ATOM     22  N   UNL     1       6.382   4.480  16.161  0.00  0.00    +0.000 NA
BRANCH  22  23
ATOM     23  C   UNL     1       6.833   4.534  14.744  0.00  0.00    +0.000 C 
BRANCH  23  25
ATOM     24  C   UNL     1       6.260   3.577  12.502  0.00  0.00    +0.000 C 
ATOM     25  C   UNL     1       5.908   3.903  13.747  0.00  0.00    +0.000 C 
ENDBRANCH  23  25
ENDBRANCH  22  23
BRANCH  22  26
ATOM     26  C   UNL     1       7.341   5.179  17.046  0.00  0.00    +0.000 C 
BRANCH  26  27
ATOM     27  C   UNL     1       7.206   6.683  17.000  0.00  0.00    +0.000 C 
ATOM     28  C   UNL     1       7.759   7.493  17.925  0.00  0.00    +0.000 C 
ENDBRANCH  26  27
ENDBRANCH  22  26
ENDBRANCH  21  22
ENDBRANCH   1  21
TORSDOF 8
ENDMDL
MODEL 4
REMARK VINA RESULT:      -7.2      0.624      1.906
REMARK  Name = 
REMARK  8 active torsions:
REMARK  status: ('A' for Active; 'I' for Inactive)
REMARK    1  A    between atoms: C_2  and  C_3
REMARK    2  A    between atoms: C_3  and  N_4
REMARK    3  A    between atoms: N_4  and  C_5
REMARK    4  A    between atoms: N_4  and  C_8
REMARK    5  A    between atoms: C_5  and  C_6
REMARK    6  A    between atoms: C_8  and  C_9
REMARK    7  A    between atoms: C_10  and  O_11
REMARK    8  A    between atoms: C_17  and  C_18
REMARK                            x       y       z     vdW  Elec       q    Type
REMARK                         _______ _______ _______ _____ _____    ______ ____
ROOT
ATOM      1  C   UNL     1       3.077   5.633  18.616  0.00  0.00    +0.000 A 
ATOM      2  C   UNL     1       2.914   4.746  19.692  0.00  0.00    +0.000 A 
ATOM      3  C   UNL     1       2.202   5.104  20.829  0.00  0.00    +0.000 A 
ATOM      4  C   UNL     1       1.658   6.383  20.937  0.00  0.00    +0.000 A 
ATOM      5  C   UNL     1       1.810   7.291  19.882  0.00  0.00    +0.000 A 
ATOM      6  C   UNL     1       1.264   8.662  19.983  0.00  0.00    +0.000 A 
ATOM      7  O   UNL     1       0.716   9.049  21.010  0.00  0.00    +0.000 OA
ATOM      8  C   UNL     1       1.444   9.536  18.801  0.00  0.00    +0.000 A 
ATOM      9  C   UNL     1       2.123   9.039  17.764  0.00  0.00    +0.000 A 
ATOM     10  O   UNL     1       2.667   7.782  17.672  0.00  0.00    +0.000 OA
ATOM     11  C   UNL     1       2.505   6.920  18.732  0.00  0.00    +0.000 A 
ENDROOT
BRANCH   8  12
ATOM     12  C   UNL     1       0.927  10.914  18.757  0.00  0.00    +0.000 A 
ATOM     13  C   UNL     1       1.830  11.979  18.920  0.00  0.00    +0.000 A 
ATOM     14  C   UNL     1       1.397  13.305  18.824  0.00  0.00    +0.000 A 
ATOM     15  C   UNL     1       0.057  13.584  18.559  0.00  0.00    +0.000 A 
ATOM     16  C   UNL     1      -0.854  12.537  18.407  0.00  0.00    +0.000 A 
ATOM     17  C   UNL     1      -0.423  11.210  18.512  0.00  0.00    +0.000 A 
ATOM     18 CL   UNL     1      -1.611   9.966  18.319  0.00  0.00    +0.000 Cl
ENDBRANCH   8  12
BRANCH   2  19
ATOM     19  O   UNL     1       3.468   3.493  19.694  0.00  0.00    +0.000 OA
ATOM     20  H   UNL     1       4.311   3.531  20.175  0.00  0.00    +0.000 HD
ENDBRANCH   2  19
BRANCH   1  21
ATOM     21  C   UNL     1       3.843   5.255  17.367  0.00  0.00    +0.000 C 
BRANCH  21  22
ATOM     22  N   UNL     1       5.236   5.772  17.326  0.00  0.00    +0.000 NA
BRANCH  22  23
ATOM     23  C   UNL     1       6.113   4.719  17.904  0.00  0.00    +0.000 C 
BRANCH  23  25
ATOM     24  C   UNL     1       7.925   6.033  19.028  0.00  0.00    +0.000 C 
ATOM     25  C   UNL     1       7.539   5.120  18.135  0.00  0.00    +0.000 C 
ENDBRANCH  23  25
ENDBRANCH  22  23
BRANCH  22  26
ATOM     26  C   UNL     1       5.596   6.042  15.915  0.00  0.00    +0.000 C 
BRANCH  26  27
ATOM     27  C   UNL     1       5.434   4.836  15.019  0.00  0.00    +0.000 C 
ATOM     28  C   UNL     1       6.463   4.292  14.338  0.00  0.00    +0.000 C 
ENDBRANCH  26  27
ENDBRANCH  22  26
ENDBRANCH  21  22
ENDBRANCH   1  21
TORSDOF 8
ENDMDL
MODEL 5
REMARK VINA RESULT:      -7.0      1.709      2.135
REMARK  Name = 
REMARK  8 active torsions:
REMARK  status: ('A' for Active; 'I' for Inactive)
REMARK    1  A    between atoms: C_2  and  C_3
REMARK    2  A    between atoms: C_3  and  N_4
REMARK    3  A    between atoms: N_4  and  C_5
REMARK    4  A    between atoms: N_4  and  C_8
REMARK    5  A    between atoms: C_5  and  C_6
REMARK    6  A    between atoms: C_8  and  C_9
REMARK    7  A    between atoms: C_10  and  O_11
REMARK    8  A    between atoms: C_17  and  C_18
REMARK                            x       y       z     vdW  Elec       q    Type
REMARK                         _______ _______ _______ _____ _____    ______ ____
ROOT
ATOM      1  C   UNL     1       4.116   4.971  18.334  0.00  0.00    +0.000 A 
ATOM      2  C   UNL     1       4.054   3.769  19.058  0.00  0.00    +0.000 A 
ATOM      3  C   UNL     1       3.183   3.607  20.126  0.00  0.00    +0.000 A 
ATOM      4  C   UNL     1       2.367   4.664  20.527  0.00  0.00    +0.000 A 
ATOM      5  C   UNL     1       2.411   5.877  19.827  0.00  0.00    +0.000 A 
ATOM      6  C   UNL     1       1.574   7.021  20.247  0.00  0.00    +0.000 A 
ATOM      7  O   UNL     1       0.865   6.951  21.247  0.00  0.00    +0.000 OA
ATOM      8  C   UNL     1       1.665   8.247  19.423  0.00  0.00    +0.000 A 
ATOM      9  C   UNL     1       2.525   8.242  18.402  0.00  0.00    +0.000 A 
ATOM     10  O   UNL     1       3.335   7.200  18.023  0.00  0.00    +0.000 OA
ATOM     11  C   UNL     1       3.270   6.027  18.739  0.00  0.00    +0.000 A 
ENDROOT
BRANCH   8  12
ATOM     12  C   UNL     1       0.867   9.450  19.714  0.00  0.00    +0.000 A 
ATOM     13  C   UNL     1       0.084  10.005  18.687  0.00  0.00    +0.000 A 
ATOM     14  C   UNL     1      -0.739  11.109  18.931  0.00  0.00    +0.000 A 
ATOM     15  C   UNL     1      -0.792  11.670  20.206  0.00  0.00    +0.000 A 
ATOM     16  C   UNL     1      -0.012  11.138  21.233  0.00  0.00    +0.000 A 
ATOM     17  C   UNL     1       0.818  10.039  20.988  0.00  0.00    +0.000 A 
ATOM     18 CL   UNL     1       1.762   9.439  22.308  0.00  0.00    +0.000 Cl
ENDBRANCH   8  12
BRANCH   2  19
ATOM     19  O   UNL     1       4.865   2.702  18.771  0.00  0.00    +0.000 OA
ATOM     20  H   UNL     1       5.694   3.039  18.396  0.00  0.00    +0.000 HD
ENDBRANCH   2  19
BRANCH   1  21
ATOM     21  C   UNL     1       5.054   5.160  17.162  0.00  0.00    +0.000 C 
BRANCH  21  22
ATOM     22  N   UNL     1       6.440   4.680  17.406  0.00  0.00    +0.000 NA
BRANCH  22  23
ATOM     23  C   UNL     1       7.043   4.381  16.080  0.00  0.00    +0.000 C 
BRANCH  23  25
ATOM     24  C   UNL     1       6.350   3.993  13.705  0.00  0.00    +0.000 C 
ATOM     25  C   UNL     1       6.079   3.962  15.011  0.00  0.00    +0.000 C 
ENDBRANCH  23  25
ENDBRANCH  22  23
BRANCH  22  26
ATOM     26  C   UNL     1       7.193   5.751  18.099  0.00  0.00    +0.000 C 
BRANCH  26  27
ATOM     27  C   UNL     1       7.291   7.025  17.293  0.00  0.00    +0.000 C 
ATOM     28  C   UNL     1       7.909   8.132  17.753  0.00  0.00    +0.000 C 
ENDBRANCH  26  27
ENDBRANCH  22  26
ENDBRANCH  21  22
ENDBRANCH   1  21
TORSDOF 8
ENDMDL
MODEL 6
REMARK VINA RESULT:      -6.9      1.053      1.339
REMARK  Name = 
REMARK  8 active torsions:
REMARK  status: ('A' for Active; 'I' for Inactive)
REMARK    1  A    between atoms: C_2  and  C_3
REMARK    2  A    between atoms: C_3  and  N_4
REMARK    3  A    between atoms: N_4  and  C_5
REMARK    4  A    between atoms: N_4  and  C_8
REMARK    5  A    between atoms: C_5  and  C_6
REMARK    6  A    between atoms: C_8  and  C_9
REMARK    7  A    between atoms: C_10  and  O_11
REMARK    8  A    between atoms: C_17  and  C_18
REMARK                            x       y       z     vdW  Elec       q    Type
REMARK                         _______ _______ _______ _____ _____    ______ ____
ROOT
ATOM      1  C   UNL     1       3.509   6.010  18.340  0.00  0.00    +0.000 A 
ATOM      2  C   UNL     1       3.527   5.025  19.340  0.00  0.00    +0.000 A 
ATOM      3  C   UNL     1       2.786   5.159  20.507  0.00  0.00    +0.000 A 
ATOM      4  C   UNL     1       2.026   6.308  20.722  0.00  0.00    +0.000 A 
ATOM      5  C   UNL     1       1.992   7.309  19.743  0.00  0.00    +0.000 A 
ATOM      6  C   UNL     1       1.213   8.547  19.958  0.00  0.00    +0.000 A 
ATOM      7  O   UNL     1       0.626   8.748  21.017  0.00  0.00    +0.000 OA
ATOM      8  C   UNL     1       1.211   9.530  18.851  0.00  0.00    +0.000 A 
ATOM      9  C   UNL     1       1.946   9.247  17.773  0.00  0.00    +0.000 A 
ATOM     10  O   UNL     1       2.704   8.118  17.576  0.00  0.00    +0.000 OA
ATOM     11  C   UNL     1       2.719   7.160  18.562  0.00  0.00    +0.000 A 
ENDROOT
BRANCH   8  12
ATOM     12  C   UNL     1       0.456  10.793  18.922  0.00  0.00    +0.000 A 
ATOM     13  C   UNL     1      -0.897  10.749  19.299  0.00  0.00    +0.000 A 
ATOM     14  C   UNL     1      -1.638  11.926  19.441  0.00  0.00    +0.000 A 
ATOM     15  C   UNL     1      -1.035  13.162  19.213  0.00  0.00    +0.000 A 
ATOM     16  C   UNL     1       0.304  13.221  18.826  0.00  0.00    +0.000 A 
ATOM     17  C   UNL     1       1.045  12.043  18.674  0.00  0.00    +0.000 A 
ATOM     18 CL   UNL     1       2.698  12.195  18.185  0.00  0.00    +0.000 Cl
ENDBRANCH   8  12
BRANCH   2  19
ATOM     19  O   UNL     1       4.296   3.896  19.238  0.00  0.00    +0.000 OA
ATOM     20  H   UNL     1       4.851   3.828  20.032  0.00  0.00    +0.000 HD
ENDBRANCH   2  19
BRANCH   1  21
ATOM     21  C   UNL     1       4.304   5.875  17.059  0.00  0.00    +0.000 C 
BRANCH  21  22
ATOM     22  N   UNL     1       5.713   5.446  17.260  0.00  0.00    +0.000 NA
BRANCH  22  23
ATOM     23  C   UNL     1       5.992   4.373  16.269  0.00  0.00    +0.000 C 
BRANCH  23  25
ATOM     24  C   UNL     1       6.079   3.976  13.798  0.00  0.00    +0.000 C 
ATOM     25  C   UNL     1       5.707   4.722  14.839  0.00  0.00    +0.000 C 
ENDBRANCH  23  25
ENDBRANCH  22  23
BRANCH  22  26
ATOM     26  C   UNL     1       6.596   6.614  17.034  0.00  0.00    +0.000 C 
BRANCH  26  27
ATOM     27  C   UNL     1       7.656   6.773  18.099  0.00  0.00    +0.000 C 
ATOM     28  C   UNL     1       7.804   5.899  19.115  0.00  0.00    +0.000 C 
ENDBRANCH  26  27
ENDBRANCH  22  26
ENDBRANCH  21  22
ENDBRANCH   1  21
TORSDOF 8
ENDMDL
MODEL 7
REMARK VINA RESULT:      -6.9      2.704      7.698
REMARK  Name = 
REMARK  8 active torsions:
REMARK  status: ('A' for Active; 'I' for Inactive)
REMARK    1  A    between atoms: C_2  and  C_3
REMARK    2  A    between atoms: C_3  and  N_4
REMARK    3  A    between atoms: N_4  and  C_5
REMARK    4  A    between atoms: N_4  and  C_8
REMARK    5  A    between atoms: C_5  and  C_6
REMARK    6  A    between atoms: C_8  and  C_9
REMARK    7  A    between atoms: C_10  and  O_11
REMARK    8  A    between atoms: C_17  and  C_18
REMARK                            x       y       z     vdW  Elec       q    Type
REMARK                         _______ _______ _______ _____ _____    ______ ____
ROOT
ATOM      1  C   UNL     1       0.413  10.364  19.838  0.00  0.00    +0.000 A 
ATOM      2  C   UNL     1      -0.101  10.327  21.144  0.00  0.00    +0.000 A 
ATOM      3  C   UNL     1       0.171   9.271  22.003  0.00  0.00    +0.000 A 
ATOM      4  C   UNL     1       0.943   8.196  21.564  0.00  0.00    +0.000 A 
ATOM      5  C   UNL     1       1.465   8.203  20.264  0.00  0.00    +0.000 A 
ATOM      6  C   UNL     1       2.266   7.064  19.768  0.00  0.00    +0.000 A 
ATOM      7  O   UNL     1       2.445   6.068  20.461  0.00  0.00    +0.000 OA
ATOM      8  C   UNL     1       2.803   7.182  18.393  0.00  0.00    +0.000 A 
ATOM      9  C   UNL     1       2.485   8.275  17.697  0.00  0.00    +0.000 A 
ATOM     10  O   UNL     1       1.711   9.323  18.133  0.00  0.00    +0.000 OA
ATOM     11  C   UNL     1       1.209   9.277  19.412  0.00  0.00    +0.000 A 
ENDROOT
BRANCH   8  12
ATOM     12  C   UNL     1       3.638   6.133  17.783  0.00  0.00    +0.000 A 
ATOM     13  C   UNL     1       5.002   6.395  17.571  0.00  0.00    +0.000 A 
ATOM     14  C   UNL     1       5.849   5.409  17.053  0.00  0.00    +0.000 A 
ATOM     15  C   UNL     1       5.342   4.147  16.746  0.00  0.00    +0.000 A 
ATOM     16  C   UNL     1       3.988   3.875  16.940  0.00  0.00    +0.000 A 
ATOM     17  C   UNL     1       3.138   4.864  17.449  0.00  0.00    +0.000 A 
ATOM     18 CL   UNL     1       1.469   4.456  17.656  0.00  0.00    +0.000 Cl
ENDBRANCH   8  12
BRANCH   2  19
ATOM     19  O   UNL     1      -0.919  11.310  21.634  0.00  0.00    +0.000 OA
ATOM     20  H   UNL     1      -0.448  11.778  22.342  0.00  0.00    +0.000 HD
ENDBRANCH   2  19
BRANCH   1  21
ATOM     21  C   UNL     1       0.132  11.512  18.892  0.00  0.00    +0.000 C 
BRANCH  21  22
ATOM     22  N   UNL     1       0.407  12.855  19.466  0.00  0.00    +0.000 NA
BRANCH  22  23
ATOM     23  C   UNL     1       1.882  12.979  19.611  0.00  0.00    +0.000 C 
BRANCH  23  25
ATOM     24  C   UNL     1       3.517  14.263  18.214  0.00  0.00    +0.000 C 
ATOM     25  C   UNL     1       2.633  13.272  18.347  0.00  0.00    +0.000 C 
ENDBRANCH  23  25
ENDBRANCH  22  23
BRANCH  22  26
ATOM     26  C   UNL     1      -0.120  13.880  18.536  0.00  0.00    +0.000 C 
BRANCH  26  27
ATOM     27  C   UNL     1      -0.250  15.246  19.168  0.00  0.00    +0.000 C 
ATOM     28  C   UNL     1      -0.415  16.371  18.443  0.00  0.00    +0.000 C 
ENDBRANCH  26  27
ENDBRANCH  22  26
ENDBRANCH  21  22
ENDBRANCH   1  21
TORSDOF 8
ENDMDL
MODEL 8
REMARK VINA RESULT:      -6.9      2.333      4.175
REMARK  Name = 
REMARK  8 active torsions:
REMARK  status: ('A' for Active; 'I' for Inactive)
REMARK    1  A    between atoms: C_2  and  C_3
REMARK    2  A    between atoms: C_3  and  N_4
REMARK    3  A    between atoms: N_4  and  C_5
REMARK    4  A    between atoms: N_4  and  C_8
REMARK    5  A    between atoms: C_5  and  C_6
REMARK    6  A    between atoms: C_8  and  C_9
REMARK    7  A    between atoms: C_10  and  O_11
REMARK    8  A    between atoms: C_17  and  C_18
REMARK                            x       y       z     vdW  Elec       q    Type
REMARK                         _______ _______ _______ _____ _____    ______ ____
ROOT
ATOM      1  C   UNL     1       4.805   4.991  18.441  0.00  0.00    +0.000 A 
ATOM      2  C   UNL     1       5.633   5.007  17.307  0.00  0.00    +0.000 A 
ATOM      3  C   UNL     1       5.583   6.043  16.384  0.00  0.00    +0.000 A 
ATOM      4  C   UNL     1       4.670   7.084  16.553  0.00  0.00    +0.000 A 
ATOM      5  C   UNL     1       3.828   7.092  17.673  0.00  0.00    +0.000 A 
ATOM      6  C   UNL     1       2.836   8.171  17.862  0.00  0.00    +0.000 A 
ATOM      7  O   UNL     1       2.691   9.051  17.018  0.00  0.00    +0.000 OA
ATOM      8  C   UNL     1       2.016   8.110  19.093  0.00  0.00    +0.000 A 
ATOM      9  C   UNL     1       2.202   7.068  19.907  0.00  0.00    +0.000 A 
ATOM     10  O   UNL     1       3.093   6.039  19.724  0.00  0.00    +0.000 OA
ATOM     11  C   UNL     1       3.898   6.061  18.610  0.00  0.00    +0.000 A 
ENDROOT
BRANCH   8  12
ATOM     12  C   UNL     1       1.009   9.134  19.419  0.00  0.00    +0.000 A 
ATOM     13  C   UNL     1       0.281   9.722  18.370  0.00  0.00    +0.000 A 
ATOM     14  C   UNL     1      -0.728  10.653  18.633  0.00  0.00    +0.000 A 
ATOM     15  C   UNL     1      -1.026  11.005  19.949  0.00  0.00    +0.000 A 
ATOM     16  C   UNL     1      -0.304  10.439  21.000  0.00  0.00    +0.000 A 
ATOM     17  C   UNL     1       0.713   9.514  20.737  0.00  0.00    +0.000 A 
ATOM     18 CL   UNL     1       1.570   8.861  22.092  0.00  0.00    +0.000 Cl
ENDBRANCH   8  12
BRANCH   2  19
ATOM     19  O   UNL     1       6.512   3.994  17.032  0.00  0.00    +0.000 OA
ATOM     20  H   UNL     1       6.940   4.181  16.181  0.00  0.00    +0.000 HD
ENDBRANCH   2  19
BRANCH   1  21
ATOM     21  C   UNL     1       4.853   3.873  19.460  0.00  0.00    +0.000 C 
BRANCH  21  22
ATOM     22  N   UNL     1       3.565   3.151  19.634  0.00  0.00    +0.000 NA
BRANCH  22  23
ATOM     23  C   UNL     1       3.444   2.188  18.507  0.00  0.00    +0.000 C 
BRANCH  23  25
ATOM     24  C   UNL     1       1.572   3.562  17.570  0.00  0.00    +0.000 C 
ATOM     25  C   UNL     1       2.382   2.504  17.498  0.00  0.00    +0.000 C 
ENDBRANCH  23  25
ENDBRANCH  22  23
BRANCH  22  26
ATOM     26  C   UNL     1       3.597   2.441  20.934  0.00  0.00    +0.000 C 
BRANCH  26  27
ATOM     27  C   UNL     1       2.251   2.393  21.619  0.00  0.00    +0.000 C 
ATOM     28  C   UNL     1       1.241   3.226  21.297  0.00  0.00    +0.000 C 
ENDBRANCH  26  27
ENDBRANCH  22  26
ENDBRANCH  21  22
ENDBRANCH   1  21
TORSDOF 8
ENDMDL
MODEL 9
REMARK VINA RESULT:      -6.9      2.962      8.034
REMARK  Name = 
REMARK  8 active torsions:
REMARK  status: ('A' for Active; 'I' for Inactive)
REMARK    1  A    between atoms: C_2  and  C_3
REMARK    2  A    between atoms: C_3  and  N_4
REMARK    3  A    between atoms: N_4  and  C_5
REMARK    4  A    between atoms: N_4  and  C_8
REMARK    5  A    between atoms: C_5  and  C_6
REMARK    6  A    between atoms: C_8  and  C_9
REMARK    7  A    between atoms: C_10  and  O_11
REMARK    8  A    between atoms: C_17  and  C_18
REMARK                            x       y       z     vdW  Elec       q    Type
REMARK                         _______ _______ _______ _____ _____    ______ ____
ROOT
ATOM      1  C   UNL     1       0.148  10.360  20.118  0.00  0.00    +0.000 A 
ATOM      2  C   UNL     1      -0.222  10.282  21.470  0.00  0.00    +0.000 A 
ATOM      3  C   UNL     1       0.228   9.255  22.289  0.00  0.00    +0.000 A 
ATOM      4  C   UNL     1       1.040   8.250  21.766  0.00  0.00    +0.000 A 
ATOM      5  C   UNL     1       1.421   8.300  20.419  0.00  0.00    +0.000 A 
ATOM      6  C   UNL     1       2.262   7.233  19.834  0.00  0.00    +0.000 A 
ATOM      7  O   UNL     1       2.596   6.257  20.498  0.00  0.00    +0.000 OA
ATOM      8  C   UNL     1       2.640   7.393  18.411  0.00  0.00    +0.000 A 
ATOM      9  C   UNL     1       2.158   8.454  17.760  0.00  0.00    +0.000 A 
ATOM     10  O   UNL     1       1.347   9.431  18.281  0.00  0.00    +0.000 OA
ATOM     11  C   UNL     1       0.986   9.345  19.605  0.00  0.00    +0.000 A 
ENDROOT
BRANCH   8  12
ATOM     12  C   UNL     1       3.495   6.419  17.712  0.00  0.00    +0.000 A 
ATOM     13  C   UNL     1       4.781   6.817  17.308  0.00  0.00    +0.000 A 
ATOM     14  C   UNL     1       5.652   5.910  16.696  0.00  0.00    +0.000 A 
ATOM     15  C   UNL     1       5.249   4.591  16.484  0.00  0.00    +0.000 A 
ATOM     16  C   UNL     1       3.971   4.185  16.869  0.00  0.00    +0.000 A 
ATOM     17  C   UNL     1       3.096   5.094  17.472  0.00  0.00    +0.000 A 
ATOM     18 CL   UNL     1       1.525   4.519  17.915  0.00  0.00    +0.000 Cl
ENDBRANCH   8  12
BRANCH   2  19
ATOM     19  O   UNL     1      -1.067  11.192  22.049  0.00  0.00    +0.000 OA
ATOM     20  H   UNL     1      -1.960  10.812  22.070  0.00  0.00    +0.000 HD
ENDBRANCH   2  19
BRANCH   1  21
ATOM     21  C   UNL     1      -0.328  11.477  19.214  0.00  0.00    +0.000 C 
BRANCH  21  22
ATOM     22  N   UNL     1      -1.764  11.390  18.842  0.00  0.00    +0.000 NA
BRANCH  22  23
ATOM     23  C   UNL     1      -2.434  12.602  19.386  0.00  0.00    +0.000 C 
BRANCH  23  25
ATOM     24  C   UNL     1      -4.934  12.698  19.493  0.00  0.00    +0.000 C 
ATOM     25  C   UNL     1      -3.763  12.368  20.039  0.00  0.00    +0.000 C 
ENDBRANCH  23  25
ENDBRANCH  22  23
BRANCH  22  26
ATOM     26  C   UNL     1      -1.865  11.350  17.365  0.00  0.00    +0.000 C 
BRANCH  26  27
ATOM     27  C   UNL     1      -2.238   9.987  16.831  0.00  0.00    +0.000 C 
ATOM     28  C   UNL     1      -2.952   9.819  15.699  0.00  0.00    +0.000 C 
ENDBRANCH  26  27
ENDBRANCH  22  26
ENDBRANCH  21  22
ENDBRANCH   1  21
TORSDOF 8
ENDMDL
