MODEL 1
REMARK VINA RESULT:      -6.1      0.000      0.000
REMARK  Name = 
REMARK  9 active torsions:
REMARK  status: ('A' for Active; 'I' for Inactive)
REMARK    1  A    between atoms: C_1  and  O_2
REMARK    2  A    between atoms: O_2  and  C_3
REMARK    3  A    between atoms: C_6  and  C_7
REMARK    4  A    between atoms: C_10  and  C_11
REMARK    5  A    between atoms: C_11  and  N_12
REMARK    6  A    between atoms: C_11  and  C_13
REMARK    7  A    between atoms: C_13  and  C_14
REMARK    8  A    between atoms: C_14  and  S_15
REMARK    9  A    between atoms: S_15  and  C_16
REMARK                            x       y       z     vdW  Elec       q    Type
REMARK                         _______ _______ _______ _____ _____    ______ ____
ROOT
ATOM      1  C   UNL     1       4.942   4.055  19.444  0.00  0.00    +0.000 A 
ATOM      2  N   UNL     1       5.290   2.756  19.437  0.00  0.00    +0.000 NA
ATOM      3  O   UNL     1       4.209   2.115  20.030  0.00  0.00    +0.000 OA
ATOM      4  C   UNL     1       3.308   3.087  20.340  0.00  0.00    +0.000 A 
ATOM      5  N   UNL     1       3.714   4.296  20.025  0.00  0.00    +0.000 NA
ENDROOT
BRANCH   1   9
ATOM      6  C   UNL     1       7.303   7.200  17.758  0.00  0.00    +0.000 A 
ATOM      7  C   UNL     1       6.011   6.959  17.292  0.00  0.00    +0.000 A 
ATOM      8  C   UNL     1       5.238   5.932  17.839  0.00  0.00    +0.000 A 
ATOM      9  C   UNL     1       5.755   5.114  18.851  0.00  0.00    +0.000 A 
ATOM     10  C   UNL     1       7.064   5.345  19.298  0.00  0.00    +0.000 A 
ATOM     11  C   UNL     1       7.834   6.382  18.753  0.00  0.00    +0.000 A 
BRANCH   6  13
ATOM     12  C   UNL     1       8.258   9.352  17.962  0.00  0.00    +0.000 C 
ATOM     13  O   UNL     1       7.959   8.229  17.141  0.00  0.00    +0.000 OA
ENDBRANCH   6  13
ENDBRANCH   1   9
BRANCH   4  14
ATOM     14  C   UNL     1       2.008   2.632  20.928  0.00  0.00    +0.000 C 
BRANCH  14  15
ATOM     15  N   UNL     1       1.876   3.059  22.334  0.00  0.00    +0.000 NA
ATOM     16  H   UNL     1       0.929   2.844  22.648  0.00  0.00    +0.000 HD
ATOM     17  H   UNL     1       1.957   4.075  22.384  0.00  0.00    +0.000 HD
ENDBRANCH  14  15
BRANCH  14  18
ATOM     18  C   UNL     1       0.815   3.187  20.129  0.00  0.00    +0.000 C 
BRANCH  18  19
ATOM     19  C   UNL     1       0.799   2.708  18.674  0.00  0.00    +0.000 C 
BRANCH  19  20
ATOM     20  S   UNL     1       1.348   4.063  17.585  0.00  0.00    +0.000 S 
ATOM     21  C   UNL     1       2.746   3.238  16.789  0.00  0.00    +0.000 C 
ENDBRANCH  19  20
ENDBRANCH  18  19
ENDBRANCH  14  18
ENDBRANCH   4  14
TORSDOF 7
ENDMDL
MODEL 2
REMARK VINA RESULT:      -6.1      4.504      5.426
REMARK  Name = 
REMARK  9 active torsions:
REMARK  status: ('A' for Active; 'I' for Inactive)
REMARK    1  A    between atoms: C_1  and  O_2
REMARK    2  A    between atoms: O_2  and  C_3
REMARK    3  A    between atoms: C_6  and  C_7
REMARK    4  A    between atoms: C_10  and  C_11
REMARK    5  A    between atoms: C_11  and  N_12
REMARK    6  A    between atoms: C_11  and  C_13
REMARK    7  A    between atoms: C_13  and  C_14
REMARK    8  A    between atoms: C_14  and  S_15
REMARK    9  A    between atoms: S_15  and  C_16
REMARK                            x       y       z     vdW  Elec       q    Type
REMARK                         _______ _______ _______ _____ _____    ______ ____
ROOT
ATOM      1  C   UNL     1       3.004   6.905  18.155  0.00  0.00    +0.000 A 
ATOM      2  N   UNL     1       4.057   7.076  17.337  0.00  0.00    +0.000 NA
ATOM      3  O   UNL     1       4.455   5.781  17.025  0.00  0.00    +0.000 OA
ATOM      4  C   UNL     1       3.603   4.948  17.683  0.00  0.00    +0.000 A 
ATOM      5  N   UNL     1       2.708   5.580  18.408  0.00  0.00    +0.000 NA
ENDROOT
BRANCH   1   9
ATOM      6  C   UNL     1       0.610  10.093  19.709  0.00  0.00    +0.000 A 
ATOM      7  C   UNL     1       1.039  10.114  18.382  0.00  0.00    +0.000 A 
ATOM      8  C   UNL     1       1.823   9.076  17.872  0.00  0.00    +0.000 A 
ATOM      9  C   UNL     1       2.206   8.006  18.689  0.00  0.00    +0.000 A 
ATOM     10  C   UNL     1       1.792   8.003  20.030  0.00  0.00    +0.000 A 
ATOM     11  C   UNL     1       0.999   9.041  20.536  0.00  0.00    +0.000 A 
BRANCH   6  13
ATOM     12  C   UNL     1      -0.277  11.362  21.494  0.00  0.00    +0.000 C 
ATOM     13  O   UNL     1      -0.146  11.166  20.090  0.00  0.00    +0.000 OA
ENDBRANCH   6  13
ENDBRANCH   1   9
BRANCH   4  14
ATOM     14  C   UNL     1       3.782   3.481  17.441  0.00  0.00    +0.000 C 
BRANCH  14  15
ATOM     15  N   UNL     1       4.779   2.904  18.362  0.00  0.00    +0.000 NA
ATOM     16  H   UNL     1       4.842   1.901  18.181  0.00  0.00    +0.000 HD
ATOM     17  H   UNL     1       4.439   2.988  19.320  0.00  0.00    +0.000 HD
ENDBRANCH  14  15
BRANCH  14  18
ATOM     18  C   UNL     1       2.453   2.725  17.616  0.00  0.00    +0.000 C 
BRANCH  18  19
ATOM     19  C   UNL     1       2.371   1.968  18.946  0.00  0.00    +0.000 C 
BRANCH  19  20
ATOM     20  S   UNL     1       1.191   2.813  20.050  0.00  0.00    +0.000 S 
ATOM     21  C   UNL     1       2.255   3.016  21.498  0.00  0.00    +0.000 C 
ENDBRANCH  19  20
ENDBRANCH  18  19
ENDBRANCH  14  18
ENDBRANCH   4  14
TORSDOF 7
ENDMDL
MODEL 3
REMARK VINA RESULT:      -6.0      4.567      5.616
REMARK  Name = 
REMARK  9 active torsions:
REMARK  status: ('A' for Active; 'I' for Inactive)
REMARK    1  A    between atoms: C_1  and  O_2
REMARK    2  A    between atoms: O_2  and  C_3
REMARK    3  A    between atoms: C_6  and  C_7
REMARK    4  A    between atoms: C_10  and  C_11
REMARK    5  A    between atoms: C_11  and  N_12
REMARK    6  A    between atoms: C_11  and  C_13
REMARK    7  A    between atoms: C_13  and  C_14
REMARK    8  A    between atoms: C_14  and  S_15
REMARK    9  A    between atoms: S_15  and  C_16
REMARK                            x       y       z     vdW  Elec       q    Type
REMARK                         _______ _______ _______ _____ _____    ______ ____
ROOT
ATOM      1  C   UNL     1       3.068   6.997  18.384  0.00  0.00    +0.000 A 
ATOM      2  N   UNL     1       3.832   7.140  17.287  0.00  0.00    +0.000 NA
ATOM      3  O   UNL     1       4.507   5.928  17.187  0.00  0.00    +0.000 OA
ATOM      4  C   UNL     1       4.087   5.167  18.235  0.00  0.00    +0.000 A 
ATOM      5  N   UNL     1       3.223   5.778  19.013  0.00  0.00    +0.000 NA
ENDROOT
BRANCH   1   9
ATOM      6  C   UNL     1       0.347  10.003  19.752  0.00  0.00    +0.000 A 
ATOM      7  C   UNL     1       0.828   9.033  20.631  0.00  0.00    +0.000 A 
ATOM      8  C   UNL     1       1.715   8.049  20.187  0.00  0.00    +0.000 A 
ATOM      9  C   UNL     1       2.121   8.008  18.848  0.00  0.00    +0.000 A 
ATOM     10  C   UNL     1       1.614   8.971  17.963  0.00  0.00    +0.000 A 
ATOM     11  C   UNL     1       0.731   9.962  18.413  0.00  0.00    +0.000 A 
BRANCH   6  13
ATOM     12  C   UNL     1      -1.486  11.457  19.418  0.00  0.00    +0.000 C 
ATOM     13  O   UNL     1      -0.517  10.907  20.304  0.00  0.00    +0.000 OA
ENDBRANCH   6  13
ENDBRANCH   1   9
BRANCH   4  14
ATOM     14  C   UNL     1       4.621   3.770  18.302  0.00  0.00    +0.000 C 
BRANCH  14  15
ATOM     15  N   UNL     1       6.009   3.750  18.802  0.00  0.00    +0.000 NA
ATOM     16  H   UNL     1       6.638   3.651  18.003  0.00  0.00    +0.000 HD
ATOM     17  H   UNL     1       6.150   2.913  19.367  0.00  0.00    +0.000 HD
ENDBRANCH  14  15
BRANCH  14  18
ATOM     18  C   UNL     1       3.754   2.889  19.220  0.00  0.00    +0.000 C 
BRANCH  18  19
ATOM     19  C   UNL     1       2.738   2.044  18.445  0.00  0.00    +0.000 C 
BRANCH  19  20
ATOM     20  S   UNL     1       1.051   2.608  18.846  0.00  0.00    +0.000 S 
ATOM     21  C   UNL     1       1.278   2.949  20.607  0.00  0.00    +0.000 C 
ENDBRANCH  19  20
ENDBRANCH  18  19
ENDBRANCH  14  18
ENDBRANCH   4  14
TORSDOF 7
ENDMDL
MODEL 4
REMARK VINA RESULT:      -6.0      4.607      5.676
REMARK  Name = 
REMARK  9 active torsions:
REMARK  status: ('A' for Active; 'I' for Inactive)
REMARK    1  A    between atoms: C_1  and  O_2
REMARK    2  A    between atoms: O_2  and  C_3
REMARK    3  A    between atoms: C_6  and  C_7
REMARK    4  A    between atoms: C_10  and  C_11
REMARK    5  A    between atoms: C_11  and  N_12
REMARK    6  A    between atoms: C_11  and  C_13
REMARK    7  A    between atoms: C_13  and  C_14
REMARK    8  A    between atoms: C_14  and  S_15
REMARK    9  A    between atoms: S_15  and  C_16
REMARK                            x       y       z     vdW  Elec       q    Type
REMARK                         _______ _______ _______ _____ _____    ______ ____
ROOT
ATOM      1  C   UNL     1       2.543   6.461  19.658  0.00  0.00    +0.000 A 
ATOM      2  N   UNL     1       2.181   5.476  20.497  0.00  0.00    +0.000 NA
ATOM      3  O   UNL     1       3.063   4.441  20.202  0.00  0.00    +0.000 OA
ATOM      4  C   UNL     1       3.875   4.901  19.211  0.00  0.00    +0.000 A 
ATOM      5  N   UNL     1       3.588   6.123  18.823  0.00  0.00    +0.000 NA
ENDROOT
BRANCH   1   9
ATOM      6  C   UNL     1       0.687  10.317  19.639  0.00  0.00    +0.000 A 
ATOM      7  C   UNL     1       1.290   9.818  18.484  0.00  0.00    +0.000 A 
ATOM      8  C   UNL     1       1.899   8.560  18.488  0.00  0.00    +0.000 A 
ATOM      9  C   UNL     1       1.930   7.788  19.655  0.00  0.00    +0.000 A 
ATOM     10  C   UNL     1       1.345   8.306  20.820  0.00  0.00    +0.000 A 
ATOM     11  C   UNL     1       0.727   9.564  20.811  0.00  0.00    +0.000 A 
BRANCH   6  13
ATOM     12  C   UNL     1      -0.888  11.680  18.523  0.00  0.00    +0.000 C 
ATOM     13  O   UNL     1       0.131  11.559  19.510  0.00  0.00    +0.000 OA
ENDBRANCH   6  13
ENDBRANCH   1   9
BRANCH   4  14
ATOM     14  C   UNL     1       4.973   3.984  18.768  0.00  0.00    +0.000 C 
BRANCH  14  15
ATOM     15  N   UNL     1       4.954   2.720  19.528  0.00  0.00    +0.000 NA
ATOM     16  H   UNL     1       4.355   2.056  19.034  0.00  0.00    +0.000 HD
ATOM     17  H   UNL     1       4.503   2.877  20.429  0.00  0.00    +0.000 HD
ENDBRANCH  14  15
BRANCH  14  18
ATOM     18  C   UNL     1       4.853   3.660  17.268  0.00  0.00    +0.000 C 
BRANCH  18  19
ATOM     19  C   UNL     1       5.897   4.391  16.417  0.00  0.00    +0.000 C 
BRANCH  19  20
ATOM     20  S   UNL     1       7.356   4.770  17.443  0.00  0.00    +0.000 S 
ATOM     21  C   UNL     1       7.272   6.576  17.400  0.00  0.00    +0.000 C 
ENDBRANCH  19  20
ENDBRANCH  18  19
ENDBRANCH  14  18
ENDBRANCH   4  14
TORSDOF 7
ENDMDL
MODEL 5
REMARK VINA RESULT:      -5.9      5.246      6.042
REMARK  Name = 
REMARK  9 active torsions:
REMARK  status: ('A' for Active; 'I' for Inactive)
REMARK    1  A    between atoms: C_1  and  O_2
REMARK    2  A    between atoms: O_2  and  C_3
REMARK    3  A    between atoms: C_6  and  C_7
REMARK    4  A    between atoms: C_10  and  C_11
REMARK    5  A    between atoms: C_11  and  N_12
REMARK    6  A    between atoms: C_11  and  C_13
REMARK    7  A    between atoms: C_13  and  C_14
REMARK    8  A    between atoms: C_14  and  S_15
REMARK    9  A    between atoms: S_15  and  C_16
REMARK                            x       y       z     vdW  Elec       q    Type
REMARK                         _______ _______ _______ _____ _____    ______ ____
ROOT
ATOM      1  C   UNL     1       2.497   7.405  18.804  0.00  0.00    +0.000 A 
ATOM      2  N   UNL     1       2.016   8.578  18.358  0.00  0.00    +0.000 NA
ATOM      3  O   UNL     1       1.366   9.117  19.464  0.00  0.00    +0.000 OA
ATOM      4  C   UNL     1       1.517   8.217  20.474  0.00  0.00    +0.000 A 
ATOM      5  N   UNL     1       2.182   7.140  20.121  0.00  0.00    +0.000 NA
ENDROOT
BRANCH   1   9
ATOM      6  C   UNL     1       4.872   4.793  16.385  0.00  0.00    +0.000 A 
ATOM      7  C   UNL     1       3.887   4.276  17.226  0.00  0.00    +0.000 A 
ATOM      8  C   UNL     1       3.111   5.126  18.019  0.00  0.00    +0.000 A 
ATOM      9  C   UNL     1       3.322   6.509  17.997  0.00  0.00    +0.000 A 
ATOM     10  C   UNL     1       4.332   7.022  17.168  0.00  0.00    +0.000 A 
ATOM     11  C   UNL     1       5.103   6.168  16.368  0.00  0.00    +0.000 A 
BRANCH   6  13
ATOM     12  C   UNL     1       6.692   4.351  14.944  0.00  0.00    +0.000 C 
ATOM     13  O   UNL     1       5.566   3.862  15.665  0.00  0.00    +0.000 OA
ENDBRANCH   6  13
ENDBRANCH   1   9
BRANCH   4  14
ATOM     14  C   UNL     1       0.963   8.610  21.808  0.00  0.00    +0.000 C 
BRANCH  14  15
ATOM     15  N   UNL     1       1.984   9.280  22.637  0.00  0.00    +0.000 NA
ATOM     16  H   UNL     1       2.325   8.612  23.330  0.00  0.00    +0.000 HD
ATOM     17  H   UNL     1       1.544  10.028  23.172  0.00  0.00    +0.000 HD
ENDBRANCH  14  15
BRANCH  14  18
ATOM     18  C   UNL     1      -0.242   9.556  21.651  0.00  0.00    +0.000 C 
BRANCH  18  19
ATOM     19  C   UNL     1      -0.734  10.118  22.989  0.00  0.00    +0.000 C 
BRANCH  19  20
ATOM     20  S   UNL     1      -1.209  11.865  22.772  0.00  0.00    +0.000 S 
ATOM     21  C   UNL     1      -0.086  12.299  21.422  0.00  0.00    +0.000 C 
ENDBRANCH  19  20
ENDBRANCH  18  19
ENDBRANCH  14  18
ENDBRANCH   4  14
TORSDOF 7
ENDMDL
MODEL 6
REMARK VINA RESULT:      -5.9      4.213      6.891
REMARK  Name = 
REMARK  9 active torsions:
REMARK  status: ('A' for Active; 'I' for Inactive)
REMARK    1  A    between atoms: C_1  and  O_2
REMARK    2  A    between atoms: O_2  and  C_3
REMARK    3  A    between atoms: C_6  and  C_7
REMARK    4  A    between atoms: C_10  and  C_11
REMARK    5  A    between atoms: C_11  and  N_12
REMARK    6  A    between atoms: C_11  and  C_13
REMARK    7  A    between atoms: C_13  and  C_14
REMARK    8  A    between atoms: C_14  and  S_15
REMARK    9  A    between atoms: S_15  and  C_16
REMARK                            x       y       z     vdW  Elec       q    Type
REMARK                         _______ _______ _______ _____ _____    ______ ____
ROOT
ATOM      1  C   UNL     1       5.459   4.439  16.828  0.00  0.00    +0.000 A 
ATOM      2  N   UNL     1       6.756   4.505  17.175  0.00  0.00    +0.000 NA
ATOM      3  O   UNL     1       7.418   4.713  15.970  0.00  0.00    +0.000 OA
ATOM      4  C   UNL     1       6.456   4.752  15.006  0.00  0.00    +0.000 A 
ATOM      5  N   UNL     1       5.242   4.567  15.471  0.00  0.00    +0.000 NA
ENDROOT
BRANCH   1   9
ATOM      6  C   UNL     1       2.293   4.072  19.683  0.00  0.00    +0.000 A 
ATOM      7  C   UNL     1       3.421   3.255  19.769  0.00  0.00    +0.000 A 
ATOM      8  C   UNL     1       4.455   3.371  18.837  0.00  0.00    +0.000 A 
ATOM      9  C   UNL     1       4.370   4.296  17.790  0.00  0.00    +0.000 A 
ATOM     10  C   UNL     1       3.222   5.097  17.693  0.00  0.00    +0.000 A 
ATOM     11  C   UNL     1       2.190   4.985  18.635  0.00  0.00    +0.000 A 
BRANCH   6  13
ATOM     12  C   UNL     1       1.659   2.850  21.604  0.00  0.00    +0.000 C 
ATOM     13  O   UNL     1       1.350   3.860  20.649  0.00  0.00    +0.000 OA
ENDBRANCH   6  13
ENDBRANCH   1   9
BRANCH   4  14
ATOM     14  C   UNL     1       6.919   5.045  13.612  0.00  0.00    +0.000 C 
BRANCH  14  15
ATOM     15  N   UNL     1       8.275   5.625  13.609  0.00  0.00    +0.000 NA
ATOM     16  H   UNL     1       8.940   4.889  13.366  0.00  0.00    +0.000 HD
ATOM     17  H   UNL     1       8.520   5.912  14.557  0.00  0.00    +0.000 HD
ENDBRANCH  14  15
BRANCH  14  18
ATOM     18  C   UNL     1       6.926   3.769  12.751  0.00  0.00    +0.000 C 
BRANCH  18  19
ATOM     19  C   UNL     1       5.540   3.418  12.198  0.00  0.00    +0.000 C 
BRANCH  19  20
ATOM     20  S   UNL     1       5.629   1.829  11.309  0.00  0.00    +0.000 S 
ATOM     21  C   UNL     1       7.409   1.780  10.993  0.00  0.00    +0.000 C 
ENDBRANCH  19  20
ENDBRANCH  18  19
ENDBRANCH  14  18
ENDBRANCH   4  14
TORSDOF 7
ENDMDL
MODEL 7
REMARK VINA RESULT:      -5.9      5.735      6.560
REMARK  Name = 
REMARK  9 active torsions:
REMARK  status: ('A' for Active; 'I' for Inactive)
REMARK    1  A    between atoms: C_1  and  O_2
REMARK    2  A    between atoms: O_2  and  C_3
REMARK    3  A    between atoms: C_6  and  C_7
REMARK    4  A    between atoms: C_10  and  C_11
REMARK    5  A    between atoms: C_11  and  N_12
REMARK    6  A    between atoms: C_11  and  C_13
REMARK    7  A    between atoms: C_13  and  C_14
REMARK    8  A    between atoms: C_14  and  S_15
REMARK    9  A    between atoms: S_15  and  C_16
REMARK                            x       y       z     vdW  Elec       q    Type
REMARK                         _______ _______ _______ _____ _____    ______ ____
ROOT
ATOM      1  C   UNL     1       2.217   7.854  18.712  0.00  0.00    +0.000 A 
ATOM      2  N   UNL     1       1.944   7.892  20.028  0.00  0.00    +0.000 NA
ATOM      3  O   UNL     1       1.119   9.004  20.168  0.00  0.00    +0.000 OA
ATOM      4  C   UNL     1       0.973   9.532  18.922  0.00  0.00    +0.000 A 
ATOM      5  N   UNL     1       1.640   8.882  17.995  0.00  0.00    +0.000 NA
ENDROOT
BRANCH   1   9
ATOM      6  C   UNL     1       4.495   4.777  16.801  0.00  0.00    +0.000 A 
ATOM      7  C   UNL     1       3.356   4.457  17.540  0.00  0.00    +0.000 A 
ATOM      8  C   UNL     1       2.612   5.459  18.167  0.00  0.00    +0.000 A 
ATOM      9  C   UNL     1       3.006   6.799  18.080  0.00  0.00    +0.000 A 
ATOM     10  C   UNL     1       4.167   7.112  17.357  0.00  0.00    +0.000 A 
ATOM     11  C   UNL     1       4.907   6.106  16.721  0.00  0.00    +0.000 A 
BRANCH   6  13
ATOM     12  C   UNL     1       6.266   4.025  15.428  0.00  0.00    +0.000 C 
ATOM     13  O   UNL     1       5.140   3.709  16.240  0.00  0.00    +0.000 OA
ENDBRANCH   6  13
ENDBRANCH   1   9
BRANCH   4  14
ATOM     14  C   UNL     1       0.054  10.708  18.798  0.00  0.00    +0.000 C 
BRANCH  14  15
ATOM     15  N   UNL     1       0.737  11.859  18.178  0.00  0.00    +0.000 NA
ATOM     16  H   UNL     1       0.789  12.612  18.867  0.00  0.00    +0.000 HD
ATOM     17  H   UNL     1       0.160  12.223  17.420  0.00  0.00    +0.000 HD
ENDBRANCH  14  15
BRANCH  14  18
ATOM     18  C   UNL     1      -1.185  10.357  17.955  0.00  0.00    +0.000 C 
BRANCH  18  19
ATOM     19  C   UNL     1      -2.035  11.584  17.608  0.00  0.00    +0.000 C 
BRANCH  19  20
ATOM     20  S   UNL     1      -3.588  11.041  16.822  0.00  0.00    +0.000 S 
ATOM     21  C   UNL     1      -2.935  10.558  15.207  0.00  0.00    +0.000 C 
ENDBRANCH  19  20
ENDBRANCH  18  19
ENDBRANCH  14  18
ENDBRANCH   4  14
TORSDOF 7
ENDMDL
MODEL 8
REMARK VINA RESULT:      -5.9      2.900      3.379
REMARK  Name = 
REMARK  9 active torsions:
REMARK  status: ('A' for Active; 'I' for Inactive)
REMARK    1  A    between atoms: C_1  and  O_2
REMARK    2  A    between atoms: O_2  and  C_3
REMARK    3  A    between atoms: C_6  and  C_7
REMARK    4  A    between atoms: C_10  and  C_11
REMARK    5  A    between atoms: C_11  and  N_12
REMARK    6  A    between atoms: C_11  and  C_13
REMARK    7  A    between atoms: C_13  and  C_14
REMARK    8  A    between atoms: C_14  and  S_15
REMARK    9  A    between atoms: S_15  and  C_16
REMARK                            x       y       z     vdW  Elec       q    Type
REMARK                         _______ _______ _______ _____ _____    ______ ____
ROOT
ATOM      1  C   UNL     1       4.996   4.585  18.175  0.00  0.00    +0.000 A 
ATOM      2  N   UNL     1       5.345   3.730  19.152  0.00  0.00    +0.000 NA
ATOM      3  O   UNL     1       4.456   4.015  20.183  0.00  0.00    +0.000 OA
ATOM      4  C   UNL     1       3.653   5.017  19.731  0.00  0.00    +0.000 A 
ATOM      5  N   UNL     1       3.952   5.421  18.517  0.00  0.00    +0.000 NA
ENDROOT
BRANCH   1   9
ATOM      6  C   UNL     1       6.807   4.706  14.300  0.00  0.00    +0.000 A 
ATOM      7  C   UNL     1       5.496   4.256  14.453  0.00  0.00    +0.000 A 
ATOM      8  C   UNL     1       4.903   4.213  15.718  0.00  0.00    +0.000 A 
ATOM      9  C   UNL     1       5.620   4.604  16.854  0.00  0.00    +0.000 A 
ATOM     10  C   UNL     1       6.947   5.031  16.697  0.00  0.00    +0.000 A 
ATOM     11  C   UNL     1       7.537   5.081  15.427  0.00  0.00    +0.000 A 
BRANCH   6  13
ATOM     12  C   UNL     1       6.701   3.720  12.155  0.00  0.00    +0.000 C 
ATOM     13  O   UNL     1       7.277   4.697  13.016  0.00  0.00    +0.000 OA
ENDBRANCH   6  13
ENDBRANCH   1   9
BRANCH   4  14
ATOM     14  C   UNL     1       2.550   5.453  20.644  0.00  0.00    +0.000 C 
BRANCH  14  15
ATOM     15  N   UNL     1       2.057   6.797  20.286  0.00  0.00    +0.000 NA
ATOM     16  H   UNL     1       2.781   7.478  20.521  0.00  0.00    +0.000 HD
ATOM     17  H   UNL     1       1.260   7.031  20.879  0.00  0.00    +0.000 HD
ENDBRANCH  14  15
BRANCH  14  18
ATOM     18  C   UNL     1       1.369   4.466  20.597  0.00  0.00    +0.000 C 
BRANCH  18  19
ATOM     19  C   UNL     1       1.082   3.951  19.183  0.00  0.00    +0.000 C 
BRANCH  19  20
ATOM     20  S   UNL     1       1.316   2.143  19.140  0.00  0.00    +0.000 S 
ATOM     21  C   UNL     1       2.460   2.039  17.743  0.00  0.00    +0.000 C 
ENDBRANCH  19  20
ENDBRANCH  18  19
ENDBRANCH  14  18
ENDBRANCH   4  14
TORSDOF 7
ENDMDL
MODEL 9
REMARK VINA RESULT:      -5.9      4.551      5.819
REMARK  Name = 
REMARK  9 active torsions:
REMARK  status: ('A' for Active; 'I' for Inactive)
REMARK    1  A    between atoms: C_1  and  O_2
REMARK    2  A    between atoms: O_2  and  C_3
REMARK    3  A    between atoms: C_6  and  C_7
REMARK    4  A    between atoms: C_10  and  C_11
REMARK    5  A    between atoms: C_11  and  N_12
REMARK    6  A    between atoms: C_11  and  C_13
REMARK    7  A    between atoms: C_13  and  C_14
REMARK    8  A    between atoms: C_14  and  S_15
REMARK    9  A    between atoms: S_15  and  C_16
REMARK                            x       y       z     vdW  Elec       q    Type
REMARK                         _______ _______ _______ _____ _____    ______ ____
ROOT
ATOM      1  C   UNL     1       2.691   6.484  19.300  0.00  0.00    +0.000 A 
ATOM      2  N   UNL     1       2.420   5.571  20.250  0.00  0.00    +0.000 NA
ATOM      3  O   UNL     1       3.285   4.521  19.963  0.00  0.00    +0.000 OA
ATOM      4  C   UNL     1       3.998   4.899  18.866  0.00  0.00    +0.000 A 
ATOM      5  N   UNL     1       3.661   6.081  18.405  0.00  0.00    +0.000 NA
ENDROOT
BRANCH   1   9
ATOM      6  C   UNL     1       0.912  10.373  19.142  0.00  0.00    +0.000 A 
ATOM      7  C   UNL     1       0.833   9.607  20.305  0.00  0.00    +0.000 A 
ATOM      8  C   UNL     1       1.411   8.336  20.359  0.00  0.00    +0.000 A 
ATOM      9  C   UNL     1       2.063   7.802  19.241  0.00  0.00    +0.000 A 
ATOM     10  C   UNL     1       2.117   8.567  18.066  0.00  0.00    +0.000 A 
ATOM     11  C   UNL     1       1.544   9.845  18.017  0.00  0.00    +0.000 A 
BRANCH   6  13
ATOM     12  C   UNL     1       0.303  12.212  20.495  0.00  0.00    +0.000 C 
ATOM     13  O   UNL     1       0.305  11.596  19.212  0.00  0.00    +0.000 OA
ENDBRANCH   6  13
ENDBRANCH   1   9
BRANCH   4  14
ATOM     14  C   UNL     1       5.063   3.954  18.404  0.00  0.00    +0.000 C 
BRANCH  14  15
ATOM     15  N   UNL     1       4.489   2.660  17.989  0.00  0.00    +0.000 NA
ATOM     16  H   UNL     1       3.606   2.525  18.485  0.00  0.00    +0.000 HD
ATOM     17  H   UNL     1       5.098   1.905  18.305  0.00  0.00    +0.000 HD
ENDBRANCH  14  15
BRANCH  14  18
ATOM     18  C   UNL     1       5.854   4.545  17.223  0.00  0.00    +0.000 C 
BRANCH  18  19
ATOM     19  C   UNL     1       7.356   4.648  17.505  0.00  0.00    +0.000 C 
BRANCH  19  20
ATOM     20  S   UNL     1       7.653   5.979  18.716  0.00  0.00    +0.000 S 
ATOM     21  C   UNL     1       7.560   7.401  17.603  0.00  0.00    +0.000 C 
ENDBRANCH  19  20
ENDBRANCH  18  19
ENDBRANCH  14  18
ENDBRANCH   4  14
TORSDOF 7
ENDMDL
