MODEL 1
REMARK VINA RESULT:      -9.9      0.000      0.000
REMARK  Name = 
REMARK  5 active torsions:
REMARK  status: ('A' for Active; 'I' for Inactive)
REMARK    1  A    between atoms: C_1  and  C_2
REMARK    2  A    between atoms: C_5  and  C_6
REMARK    3  A    between atoms: C_7  and  C_8
REMARK    4  A    between atoms: N_16  and  C_17
REMARK    5  A    between atoms: C_17  and  C_18
REMARK                            x       y       z     vdW  Elec       q    Type
REMARK                         _______ _______ _______ _____ _____    ______ ____
ROOT
ATOM      1  C   UNL     1       4.807   4.344  17.328  0.00  0.00    +0.000 A 
ATOM      2  C   UNL     1       4.378   3.034  17.121  0.00  0.00    +0.000 A 
ATOM      3  C   UNL     1       3.330   2.499  17.881  0.00  0.00    +0.000 A 
ATOM      4  C   UNL     1       2.656   3.245  18.834  0.00  0.00    +0.000 A 
ATOM      5  N   UNL     1       1.645   2.678  19.498  0.00  0.00    +0.000 NA
ATOM      6  C   UNL     1       0.982   3.457  20.359  0.00  0.00    +0.000 A 
ATOM      7  N   UNL     1       1.225   4.747  20.608  0.00  0.00    +0.000 NA
ATOM      8  C   UNL     1       2.251   5.307  19.948  0.00  0.00    +0.000 A 
ATOM      9  N   UNL     1       2.499   6.679  20.119  0.00  0.00    +0.000 N 
ATOM     10  C   UNL     1       3.043   4.576  19.037  0.00  0.00    +0.000 A 
ATOM     11  C   UNL     1       4.137   5.099  18.297  0.00  0.00    +0.000 A 
ATOM     12  H   UNL     1       3.423   6.827  20.510  0.00  0.00    +0.000 HD
ENDROOT
BRANCH   1  19
ATOM     13  C   UNL     1       5.440   4.160  14.066  0.00  0.00    +0.000 C 
ATOM     14  C   UNL     1       6.162   4.880  15.144  0.00  0.00    +0.000 A 
ATOM     15  N   UNL     1       7.262   5.576  14.835  0.00  0.00    +0.000 NA
ATOM     16  O   UNL     1       7.742   6.072  16.023  0.00  0.00    +0.000 OA
ATOM     17  C   UNL     1       6.937   5.684  17.048  0.00  0.00    +0.000 A 
ATOM     18  C   UNL     1       7.364   6.151  18.382  0.00  0.00    +0.000 C 
ATOM     19  C   UNL     1       5.889   4.930  16.546  0.00  0.00    +0.000 A 
ENDBRANCH   1  19
BRANCH   9  20
ATOM     20  C   UNL     1       1.470   7.436  20.824  0.00  0.00    +0.000 C 
BRANCH  20  21
ATOM     21  C   UNL     1       1.287   8.775  20.136  0.00  0.00    +0.000 A 
ATOM     22  C   UNL     1       1.675   8.968  18.791  0.00  0.00    +0.000 A 
ATOM     23  C   UNL     1       1.552  10.223  18.179  0.00  0.00    +0.000 A 
ATOM     24  C   UNL     1       1.051  11.262  18.933  0.00  0.00    +0.000 A 
ATOM     25  C   UNL     1       0.675  11.087  20.242  0.00  0.00    +0.000 A 
ATOM     26  C   UNL     1       0.781   9.866  20.870  0.00  0.00    +0.000 A 
ATOM     27  O   UNL     1       0.217  12.234  20.812  0.00  0.00    +0.000 OA
ATOM     28  C   UNL     1       0.386  13.162  19.721  0.00  0.00    +0.000 C 
ATOM     29  O   UNL     1       0.880  12.544  18.512  0.00  0.00    +0.000 OA
ENDBRANCH  20  21
ENDBRANCH   9  20
TORSDOF 3
ENDMDL
MODEL 2
REMARK VINA RESULT:      -9.6      0.384      1.539
REMARK  Name = 
REMARK  5 active torsions:
REMARK  status: ('A' for Active; 'I' for Inactive)
REMARK    1  A    between atoms: C_1  and  C_2
REMARK    2  A    between atoms: C_5  and  C_6
REMARK    3  A    between atoms: C_7  and  C_8
REMARK    4  A    between atoms: N_16  and  C_17
REMARK    5  A    between atoms: C_17  and  C_18
REMARK                            x       y       z     vdW  Elec       q    Type
REMARK                         _______ _______ _______ _____ _____    ______ ____
ROOT
ATOM      1  C   UNL     1       4.781   4.411  17.352  0.00  0.00    +0.000 A 
ATOM      2  C   UNL     1       4.354   3.104  17.121  0.00  0.00    +0.000 A 
ATOM      3  C   UNL     1       3.305   2.554  17.869  0.00  0.00    +0.000 A 
ATOM      4  C   UNL     1       2.625   3.284  18.831  0.00  0.00    +0.000 A 
ATOM      5  N   UNL     1       1.613   2.703  19.482  0.00  0.00    +0.000 NA
ATOM      6  C   UNL     1       0.945   3.467  20.353  0.00  0.00    +0.000 A 
ATOM      7  N   UNL     1       1.185   4.753  20.624  0.00  0.00    +0.000 NA
ATOM      8  C   UNL     1       2.212   5.326  19.977  0.00  0.00    +0.000 A 
ATOM      9  N   UNL     1       2.457   6.696  20.172  0.00  0.00    +0.000 N 
ATOM     10  C   UNL     1       3.009   4.612  19.058  0.00  0.00    +0.000 A 
ATOM     11  C   UNL     1       4.105   5.149  18.330  0.00  0.00    +0.000 A 
ATOM     12  H   UNL     1       3.380   6.839  20.568  0.00  0.00    +0.000 HD
ENDROOT
BRANCH   1  19
ATOM     13  C   UNL     1       7.256   6.407  18.333  0.00  0.00    +0.000 C 
ATOM     14  C   UNL     1       6.947   5.850  16.994  0.00  0.00    +0.000 A 
ATOM     15  N   UNL     1       7.736   6.169  15.962  0.00  0.00    +0.000 NA
ATOM     16  O   UNL     1       7.176   5.570  14.858  0.00  0.00    +0.000 OA
ATOM     17  C   UNL     1       6.057   4.888  15.219  0.00  0.00    +0.000 A 
ATOM     18  C   UNL     1       5.361   4.209  14.107  0.00  0.00    +0.000 C 
ATOM     19  C   UNL     1       5.865   5.012  16.584  0.00  0.00    +0.000 A 
ENDBRANCH   1  19
BRANCH   9  20
ATOM     20  C   UNL     1       1.424   7.439  20.885  0.00  0.00    +0.000 C 
BRANCH  20  21
ATOM     21  C   UNL     1       1.241   8.789  20.218  0.00  0.00    +0.000 A 
ATOM     22  C   UNL     1       1.597   8.993  18.866  0.00  0.00    +0.000 A 
ATOM     23  C   UNL     1       1.475  10.258  18.273  0.00  0.00    +0.000 A 
ATOM     24  C   UNL     1       1.007  11.293  19.052  0.00  0.00    +0.000 A 
ATOM     25  C   UNL     1       0.663  11.107  20.368  0.00  0.00    +0.000 A 
ATOM     26  C   UNL     1       0.769   9.877  20.978  0.00  0.00    +0.000 A 
ATOM     27  O   UNL     1       0.234  12.253  20.963  0.00  0.00    +0.000 OA
ATOM     28  C   UNL     1       0.387  13.192  19.880  0.00  0.00    +0.000 C 
ATOM     29  O   UNL     1       0.842  12.583  18.651  0.00  0.00    +0.000 OA
ENDBRANCH  20  21
ENDBRANCH   9  20
TORSDOF 3
ENDMDL
MODEL 3
REMARK VINA RESULT:      -9.1      0.754      1.356
REMARK  Name = 
REMARK  5 active torsions:
REMARK  status: ('A' for Active; 'I' for Inactive)
REMARK    1  A    between atoms: C_1  and  C_2
REMARK    2  A    between atoms: C_5  and  C_6
REMARK    3  A    between atoms: C_7  and  C_8
REMARK    4  A    between atoms: N_16  and  C_17
REMARK    5  A    between atoms: C_17  and  C_18
REMARK                            x       y       z     vdW  Elec       q    Type
REMARK                         _______ _______ _______ _____ _____    ______ ____
ROOT
ATOM      1  C   UNL     1       4.829   4.179  17.551  0.00  0.00    +0.000 A 
ATOM      2  C   UNL     1       4.498   2.849  17.290  0.00  0.00    +0.000 A 
ATOM      3  C   UNL     1       3.467   2.219  17.998  0.00  0.00    +0.000 A 
ATOM      4  C   UNL     1       2.712   2.886  18.949  0.00  0.00    +0.000 A 
ATOM      5  N   UNL     1       1.723   2.230  19.562  0.00  0.00    +0.000 NA
ATOM      6  C   UNL     1       0.981   2.933  20.422  0.00  0.00    +0.000 A 
ATOM      7  N   UNL     1       1.125   4.228  20.718  0.00  0.00    +0.000 NA
ATOM      8  C   UNL     1       2.130   4.879  20.110  0.00  0.00    +0.000 A 
ATOM      9  N   UNL     1       2.275   6.259  20.330  0.00  0.00    +0.000 N 
ATOM     10  C   UNL     1       2.999   4.234  19.205  0.00  0.00    +0.000 A 
ATOM     11  C   UNL     1       4.077   4.854  18.518  0.00  0.00    +0.000 A 
ATOM     12  H   UNL     1       3.175   6.457  20.756  0.00  0.00    +0.000 HD
ENDROOT
BRANCH   1  19
ATOM     13  C   UNL     1       5.465   4.293  14.286  0.00  0.00    +0.000 C 
ATOM     14  C   UNL     1       6.165   4.941  15.423  0.00  0.00    +0.000 A 
ATOM     15  N   UNL     1       7.242   5.694  15.176  0.00  0.00    +0.000 NA
ATOM     16  O   UNL     1       7.708   6.102  16.404  0.00  0.00    +0.000 OA
ATOM     17  C   UNL     1       6.915   5.603  17.390  0.00  0.00    +0.000 A 
ATOM     18  C   UNL     1       7.328   5.968  18.760  0.00  0.00    +0.000 C 
ATOM     19  C   UNL     1       5.892   4.862  16.824  0.00  0.00    +0.000 A 
ENDBRANCH   1  19
BRANCH   9  20
ATOM     20  C   UNL     1       1.175   6.919  21.022  0.00  0.00    +0.000 C 
BRANCH  20  21
ATOM     21  C   UNL     1       1.200   8.398  20.685  0.00  0.00    +0.000 A 
ATOM     22  C   UNL     1       0.681   9.361  21.580  0.00  0.00    +0.000 A 
ATOM     23  C   UNL     1       0.658  10.721  21.239  0.00  0.00    +0.000 A 
ATOM     24  C   UNL     1       1.146  11.085  20.003  0.00  0.00    +0.000 A 
ATOM     25  C   UNL     1       1.648  10.157  19.124  0.00  0.00    +0.000 A 
ATOM     26  C   UNL     1       1.687   8.815  19.432  0.00  0.00    +0.000 A 
ATOM     27  O   UNL     1       2.070  10.716  17.958  0.00  0.00    +0.000 OA
ATOM     28  C   UNL     1       1.739  12.100  18.189  0.00  0.00    +0.000 C 
ATOM     29  O   UNL     1       1.186  12.348  19.500  0.00  0.00    +0.000 OA
ENDBRANCH  20  21
ENDBRANCH   9  20
TORSDOF 3
ENDMDL
MODEL 4
REMARK VINA RESULT:      -8.9      0.875      2.069
REMARK  Name = 
REMARK  5 active torsions:
REMARK  status: ('A' for Active; 'I' for Inactive)
REMARK    1  A    between atoms: C_1  and  C_2
REMARK    2  A    between atoms: C_5  and  C_6
REMARK    3  A    between atoms: C_7  and  C_8
REMARK    4  A    between atoms: N_16  and  C_17
REMARK    5  A    between atoms: C_17  and  C_18
REMARK                            x       y       z     vdW  Elec       q    Type
REMARK                         _______ _______ _______ _____ _____    ______ ____
ROOT
ATOM      1  C   UNL     1       4.889   4.281  17.705  0.00  0.00    +0.000 A 
ATOM      2  C   UNL     1       4.608   2.948  17.406  0.00  0.00    +0.000 A 
ATOM      3  C   UNL     1       3.586   2.268  18.079  0.00  0.00    +0.000 A 
ATOM      4  C   UNL     1       2.790   2.887  19.030  0.00  0.00    +0.000 A 
ATOM      5  N   UNL     1       1.812   2.183  19.607  0.00  0.00    +0.000 NA
ATOM      6  C   UNL     1       1.030   2.841  20.468  0.00  0.00    +0.000 A 
ATOM      7  N   UNL     1       1.126   4.132  20.798  0.00  0.00    +0.000 NA
ATOM      8  C   UNL     1       2.119   4.830  20.225  0.00  0.00    +0.000 A 
ATOM      9  N   UNL     1       2.215   6.208  20.481  0.00  0.00    +0.000 N 
ATOM     10  C   UNL     1       3.027   4.236  19.323  0.00  0.00    +0.000 A 
ATOM     11  C   UNL     1       4.096   4.908  18.673  0.00  0.00    +0.000 A 
ATOM     12  H   UNL     1       3.099   6.426  20.929  0.00  0.00    +0.000 HD
ENDROOT
BRANCH   1  19
ATOM     13  C   UNL     1       7.418   6.063  18.932  0.00  0.00    +0.000 C 
ATOM     14  C   UNL     1       7.047   5.766  17.527  0.00  0.00    +0.000 A 
ATOM     15  N   UNL     1       7.793   6.274  16.539  0.00  0.00    +0.000 NA
ATOM     16  O   UNL     1       7.181   5.891  15.369  0.00  0.00    +0.000 OA
ATOM     17  C   UNL     1       6.074   5.151  15.644  0.00  0.00    +0.000 A 
ATOM     18  C   UNL     1       5.326   4.691  14.457  0.00  0.00    +0.000 C 
ATOM     19  C   UNL     1       5.943   5.017  17.016  0.00  0.00    +0.000 A 
ENDBRANCH   1  19
BRANCH   9  20
ATOM     20  C   UNL     1       1.080   6.815  21.166  0.00  0.00    +0.000 C 
BRANCH  20  21
ATOM     21  C   UNL     1       1.082   8.308  20.894  0.00  0.00    +0.000 A 
ATOM     22  C   UNL     1       0.618   9.229  21.860  0.00  0.00    +0.000 A 
ATOM     23  C   UNL     1       0.572  10.602  21.581  0.00  0.00    +0.000 A 
ATOM     24  C   UNL     1       0.983  11.021  20.334  0.00  0.00    +0.000 A 
ATOM     25  C   UNL     1       1.432  10.134  19.386  0.00  0.00    +0.000 A 
ATOM     26  C   UNL     1       1.491   8.780  19.632  0.00  0.00    +0.000 A 
ATOM     27  O   UNL     1       1.781  10.745  18.222  0.00  0.00    +0.000 OA
ATOM     28  C   UNL     1       1.463  12.116  18.533  0.00  0.00    +0.000 C 
ATOM     29  O   UNL     1       0.991  12.305  19.885  0.00  0.00    +0.000 OA
ENDBRANCH  20  21
ENDBRANCH   9  20
TORSDOF 3
ENDMDL
MODEL 5
REMARK VINA RESULT:      -8.6      1.205      1.724
REMARK  Name = 
REMARK  5 active torsions:
REMARK  status: ('A' for Active; 'I' for Inactive)
REMARK    1  A    between atoms: C_1  and  C_2
REMARK    2  A    between atoms: C_5  and  C_6
REMARK    3  A    between atoms: C_7  and  C_8
REMARK    4  A    between atoms: N_16  and  C_17
REMARK    5  A    between atoms: C_17  and  C_18
REMARK                            x       y       z     vdW  Elec       q    Type
REMARK                         _______ _______ _______ _____ _____    ______ ____
ROOT
ATOM      1  C   UNL     1       5.027   4.919  18.321  0.00  0.00    +0.000 A 
ATOM      2  C   UNL     1       4.839   3.596  17.920  0.00  0.00    +0.000 A 
ATOM      3  C   UNL     1       3.755   2.852  18.403  0.00  0.00    +0.000 A 
ATOM      4  C   UNL     1       2.810   3.398  19.257  0.00  0.00    +0.000 A 
ATOM      5  N   UNL     1       1.784   2.637  19.650  0.00  0.00    +0.000 NA
ATOM      6  C   UNL     1       0.863   3.226  20.419  0.00  0.00    +0.000 A 
ATOM      7  N   UNL     1       0.865   4.501  20.821  0.00  0.00    +0.000 NA
ATOM      8  C   UNL     1       1.905   5.255  20.434  0.00  0.00    +0.000 A 
ATOM      9  N   UNL     1       1.914   6.620  20.767  0.00  0.00    +0.000 N 
ATOM     10  C   UNL     1       2.954   4.736  19.646  0.00  0.00    +0.000 A 
ATOM     11  C   UNL     1       4.081   5.471  19.192  0.00  0.00    +0.000 A 
ATOM     12  H   UNL     1       2.716   6.838  21.349  0.00  0.00    +0.000 HD
ENDROOT
BRANCH   1  19
ATOM     13  C   UNL     1       5.424   6.485  15.411  0.00  0.00    +0.000 C 
ATOM     14  C   UNL     1       6.318   6.416  16.593  0.00  0.00    +0.000 A 
ATOM     15  N   UNL     1       7.496   7.047  16.552  0.00  0.00    +0.000 NA
ATOM     16  O   UNL     1       8.122   6.758  17.741  0.00  0.00    +0.000 OA
ATOM     17  C   UNL     1       7.327   5.959  18.502  0.00  0.00    +0.000 A 
ATOM     18  C   UNL     1       7.904   5.572  19.805  0.00  0.00    +0.000 C 
ATOM     19  C   UNL     1       6.142   5.719  17.828  0.00  0.00    +0.000 A 
ENDBRANCH   1  19
BRANCH   9  20
ATOM     20  C   UNL     1       0.671   7.158  21.308  0.00  0.00    +0.000 C 
BRANCH  20  21
ATOM     21  C   UNL     1       0.643   8.658  21.078  0.00  0.00    +0.000 A 
ATOM     22  C   UNL     1       0.087   9.535  22.036  0.00  0.00    +0.000 A 
ATOM     23  C   UNL     1       0.015  10.914  21.793  0.00  0.00    +0.000 A 
ATOM     24  C   UNL     1       0.494  11.382  20.589  0.00  0.00    +0.000 A 
ATOM     25  C   UNL     1       1.032  10.538  19.649  0.00  0.00    +0.000 A 
ATOM     26  C   UNL     1       1.119   9.180  19.860  0.00  0.00    +0.000 A 
ATOM     27  O   UNL     1       1.437  11.194  18.528  0.00  0.00    +0.000 OA
ATOM     28  C   UNL     1       1.055  12.545  18.855  0.00  0.00    +0.000 C 
ATOM     29  O   UNL     1       0.490  12.679  20.177  0.00  0.00    +0.000 OA
ENDBRANCH  20  21
ENDBRANCH   9  20
TORSDOF 3
ENDMDL
MODEL 6
REMARK VINA RESULT:      -8.6      1.342      2.047
REMARK  Name = 
REMARK  5 active torsions:
REMARK  status: ('A' for Active; 'I' for Inactive)
REMARK    1  A    between atoms: C_1  and  C_2
REMARK    2  A    between atoms: C_5  and  C_6
REMARK    3  A    between atoms: C_7  and  C_8
REMARK    4  A    between atoms: N_16  and  C_17
REMARK    5  A    between atoms: C_17  and  C_18
REMARK                            x       y       z     vdW  Elec       q    Type
REMARK                         _______ _______ _______ _____ _____    ______ ____
ROOT
ATOM      1  C   UNL     1       4.974   4.974  18.278  0.00  0.00    +0.000 A 
ATOM      2  C   UNL     1       4.778   3.667  17.832  0.00  0.00    +0.000 A 
ATOM      3  C   UNL     1       3.695   2.911  18.297  0.00  0.00    +0.000 A 
ATOM      4  C   UNL     1       2.758   3.428  19.177  0.00  0.00    +0.000 A 
ATOM      5  N   UNL     1       1.733   2.658  19.551  0.00  0.00    +0.000 NA
ATOM      6  C   UNL     1       0.820   3.223  20.348  0.00  0.00    +0.000 A 
ATOM      7  N   UNL     1       0.830   4.482  20.795  0.00  0.00    +0.000 NA
ATOM      8  C   UNL     1       1.870   5.246  20.427  0.00  0.00    +0.000 A 
ATOM      9  N   UNL     1       1.886   6.598  20.808  0.00  0.00    +0.000 N 
ATOM     10  C   UNL     1       2.910   4.751  19.613  0.00  0.00    +0.000 A 
ATOM     11  C   UNL     1       4.037   5.498  19.176  0.00  0.00    +0.000 A 
ATOM     12  H   UNL     1       2.693   6.793  21.391  0.00  0.00    +0.000 HD
ENDROOT
BRANCH   1  19
ATOM     13  C   UNL     1       7.878   5.690  19.738  0.00  0.00    +0.000 C 
ATOM     14  C   UNL     1       7.349   6.085  18.409  0.00  0.00    +0.000 A 
ATOM     15  N   UNL     1       8.096   6.866  17.621  0.00  0.00    +0.000 NA
ATOM     16  O   UNL     1       7.334   7.115  16.504  0.00  0.00    +0.000 OA
ATOM     17  C   UNL     1       6.134   6.485  16.611  0.00  0.00    +0.000 A 
ATOM     18  C   UNL     1       5.222   6.690  15.467  0.00  0.00    +0.000 C 
ATOM     19  C   UNL     1       6.088   5.787  17.806  0.00  0.00    +0.000 A 
ENDBRANCH   1  19
BRANCH   9  20
ATOM     20  C   UNL     1       0.650   7.121  21.377  0.00  0.00    +0.000 C 
BRANCH  20  21
ATOM     21  C   UNL     1       0.568   8.609  21.092  0.00  0.00    +0.000 A 
ATOM     22  C   UNL     1       1.036   9.148  19.873  0.00  0.00    +0.000 A 
ATOM     23  C   UNL     1       1.006  10.530  19.639  0.00  0.00    +0.000 A 
ATOM     24  C   UNL     1       0.516  11.343  20.638  0.00  0.00    +0.000 A 
ATOM     25  C   UNL     1       0.063  10.830  21.828  0.00  0.00    +0.000 A 
ATOM     26  C   UNL     1       0.077   9.477  22.086  0.00  0.00    +0.000 A 
ATOM     27  O   UNL     1      -0.370  11.796  22.682  0.00  0.00    +0.000 OA
ATOM     28  C   UNL     1      -0.099  12.981  21.907  0.00  0.00    +0.000 C 
ATOM     29  O   UNL     1       0.429  12.700  20.592  0.00  0.00    +0.000 OA
ENDBRANCH  20  21
ENDBRANCH   9  20
TORSDOF 3
ENDMDL
MODEL 7
REMARK VINA RESULT:      -8.2      1.578      2.294
REMARK  Name = 
REMARK  5 active torsions:
REMARK  status: ('A' for Active; 'I' for Inactive)
REMARK    1  A    between atoms: C_1  and  C_2
REMARK    2  A    between atoms: C_5  and  C_6
REMARK    3  A    between atoms: C_7  and  C_8
REMARK    4  A    between atoms: N_16  and  C_17
REMARK    5  A    between atoms: C_17  and  C_18
REMARK                            x       y       z     vdW  Elec       q    Type
REMARK                         _______ _______ _______ _____ _____    ______ ____
ROOT
ATOM      1  C   UNL     1       4.986   5.590  17.811  0.00  0.00    +0.000 A 
ATOM      2  C   UNL     1       4.782   4.465  18.610  0.00  0.00    +0.000 A 
ATOM      3  C   UNL     1       3.791   4.465  19.600  0.00  0.00    +0.000 A 
ATOM      4  C   UNL     1       2.953   5.550  19.804  0.00  0.00    +0.000 A 
ATOM      5  N   UNL     1       2.008   5.465  20.745  0.00  0.00    +0.000 NA
ATOM      6  C   UNL     1       1.183   6.510  20.859  0.00  0.00    +0.000 A 
ATOM      7  N   UNL     1       1.204   7.621  20.118  0.00  0.00    +0.000 NA
ATOM      8  C   UNL     1       2.164   7.706  19.184  0.00  0.00    +0.000 A 
ATOM      9  N   UNL     1       2.181   8.821  18.328  0.00  0.00    +0.000 N 
ATOM     10  C   UNL     1       3.112   6.679  18.990  0.00  0.00    +0.000 A 
ATOM     11  C   UNL     1       4.150   6.693  18.020  0.00  0.00    +0.000 A 
ATOM     12  H   UNL     1       3.047   9.338  18.437  0.00  0.00    +0.000 HD
ENDROOT
BRANCH   1  19
ATOM     13  C   UNL     1       5.255   3.783  15.029  0.00  0.00    +0.000 C 
ATOM     14  C   UNL     1       6.122   4.865  15.558  0.00  0.00    +0.000 A 
ATOM     15  N   UNL     1       7.214   5.215  14.870  0.00  0.00    +0.000 NA
ATOM     16  O   UNL     1       7.843   6.178  15.622  0.00  0.00    +0.000 OA
ATOM     17  C   UNL     1       7.135   6.415  16.758  0.00  0.00    +0.000 A 
ATOM     18  C   UNL     1       7.725   7.431  17.654  0.00  0.00    +0.000 C 
ATOM     19  C   UNL     1       6.005   5.616  16.768  0.00  0.00    +0.000 A 
ENDBRANCH   1  19
BRANCH   9  20
ATOM     20  C   UNL     1       1.008   9.685  18.374  0.00  0.00    +0.000 C 
BRANCH  20  21
ATOM     21  C   UNL     1       1.436  11.073  18.809  0.00  0.00    +0.000 A 
ATOM     22  C   UNL     1       2.305  11.854  18.015  0.00  0.00    +0.000 A 
ATOM     23  C   UNL     1       2.739  13.115  18.449  0.00  0.00    +0.000 A 
ATOM     24  C   UNL     1       2.300  13.561  19.677  0.00  0.00    +0.000 A 
ATOM     25  C   UNL     1       1.459  12.808  20.459  0.00  0.00    +0.000 A 
ATOM     26  C   UNL     1       1.013  11.568  20.058  0.00  0.00    +0.000 A 
ATOM     27  O   UNL     1       1.151  13.420  21.634  0.00  0.00    +0.000 OA
ATOM     28  C   UNL     1       1.927  14.629  21.519  0.00  0.00    +0.000 C 
ATOM     29  O   UNL     1       2.630  14.743  20.262  0.00  0.00    +0.000 OA
ENDBRANCH  20  21
ENDBRANCH   9  20
TORSDOF 3
ENDMDL
MODEL 8
REMARK VINA RESULT:      -8.0      2.077      7.700
REMARK  Name = 
REMARK  5 active torsions:
REMARK  status: ('A' for Active; 'I' for Inactive)
REMARK    1  A    between atoms: C_1  and  C_2
REMARK    2  A    between atoms: C_5  and  C_6
REMARK    3  A    between atoms: C_7  and  C_8
REMARK    4  A    between atoms: N_16  and  C_17
REMARK    5  A    between atoms: C_17  and  C_18
REMARK                            x       y       z     vdW  Elec       q    Type
REMARK                         _______ _______ _______ _____ _____    ______ ____
ROOT
ATOM      1  C   UNL     1       1.890   7.059  20.183  0.00  0.00    +0.000 A 
ATOM      2  C   UNL     1       1.270   6.180  21.071  0.00  0.00    +0.000 A 
ATOM      3  C   UNL     1       1.677   4.842  21.149  0.00  0.00    +0.000 A 
ATOM      4  C   UNL     1       2.724   4.345  20.388  0.00  0.00    +0.000 A 
ATOM      5  N   UNL     1       3.078   3.066  20.540  0.00  0.00    +0.000 NA
ATOM      6  C   UNL     1       4.134   2.650  19.834  0.00  0.00    +0.000 A 
ATOM      7  N   UNL     1       4.874   3.391  19.004  0.00  0.00    +0.000 NA
ATOM      8  C   UNL     1       4.504   4.672  18.846  0.00  0.00    +0.000 A 
ATOM      9  N   UNL     1       5.295   5.511  18.044  0.00  0.00    +0.000 N 
ATOM     10  C   UNL     1       3.387   5.216  19.515  0.00  0.00    +0.000 A 
ATOM     11  C   UNL     1       2.940   6.560  19.405  0.00  0.00    +0.000 A 
ATOM     12  H   UNL     1       4.756   5.863  17.259  0.00  0.00    +0.000 HD
ENDROOT
BRANCH   1  19
ATOM     13  C   UNL     1       1.701   9.058  17.529  0.00  0.00    +0.000 C 
ATOM     14  C   UNL     1       1.383   9.323  18.953  0.00  0.00    +0.000 A 
ATOM     15  N   UNL     1       0.962  10.543  19.307  0.00  0.00    +0.000 NA
ATOM     16  O   UNL     1       0.812  10.509  20.673  0.00  0.00    +0.000 OA
ATOM     17  C   UNL     1       1.135   9.276  21.146  0.00  0.00    +0.000 A 
ATOM     18  C   UNL     1       1.020   9.125  22.610  0.00  0.00    +0.000 C 
ATOM     19  C   UNL     1       1.492   8.459  20.086  0.00  0.00    +0.000 A 
ENDBRANCH   1  19
BRANCH   9  20
ATOM     20  C   UNL     1       6.589   4.978  17.635  0.00  0.00    +0.000 C 
BRANCH  20  21
ATOM     21  C   UNL     1       6.552   4.684  16.147  0.00  0.00    +0.000 A 
ATOM     22  C   UNL     1       5.762   3.634  15.628  0.00  0.00    +0.000 A 
ATOM     23  C   UNL     1       5.775   3.333  14.258  0.00  0.00    +0.000 A 
ATOM     24  C   UNL     1       6.589   4.087  13.440  0.00  0.00    +0.000 A 
ATOM     25  C   UNL     1       7.364   5.106  13.935  0.00  0.00    +0.000 A 
ATOM     26  C   UNL     1       7.370   5.427  15.275  0.00  0.00    +0.000 A 
ATOM     27  O   UNL     1       8.100   5.719  12.970  0.00  0.00    +0.000 OA
ATOM     28  C   UNL     1       7.729   4.941  11.814  0.00  0.00    +0.000 C 
ATOM     29  O   UNL     1       6.740   3.927  12.098  0.00  0.00    +0.000 OA
ENDBRANCH  20  21
ENDBRANCH   9  20
TORSDOF 3
ENDMDL
MODEL 9
REMARK VINA RESULT:      -8.0      1.652      2.598
REMARK  Name = 
REMARK  5 active torsions:
REMARK  status: ('A' for Active; 'I' for Inactive)
REMARK    1  A    between atoms: C_1  and  C_2
REMARK    2  A    between atoms: C_5  and  C_6
REMARK    3  A    between atoms: C_7  and  C_8
REMARK    4  A    between atoms: N_16  and  C_17
REMARK    5  A    between atoms: C_17  and  C_18
REMARK                            x       y       z     vdW  Elec       q    Type
REMARK                         _______ _______ _______ _____ _____    ______ ____
ROOT
ATOM      1  C   UNL     1       4.992   5.605  17.817  0.00  0.00    +0.000 A 
ATOM      2  C   UNL     1       4.784   4.487  18.625  0.00  0.00    +0.000 A 
ATOM      3  C   UNL     1       3.788   4.496  19.610  0.00  0.00    +0.000 A 
ATOM      4  C   UNL     1       2.949   5.583  19.799  0.00  0.00    +0.000 A 
ATOM      5  N   UNL     1       1.999   5.507  20.736  0.00  0.00    +0.000 NA
ATOM      6  C   UNL     1       1.173   6.553  20.837  0.00  0.00    +0.000 A 
ATOM      7  N   UNL     1       1.198   7.657  20.085  0.00  0.00    +0.000 NA
ATOM      8  C   UNL     1       2.163   7.733  19.155  0.00  0.00    +0.000 A 
ATOM      9  N   UNL     1       2.185   8.839  18.289  0.00  0.00    +0.000 N 
ATOM     10  C   UNL     1       3.112   6.705  18.976  0.00  0.00    +0.000 A 
ATOM     11  C   UNL     1       4.155   6.709  18.011  0.00  0.00    +0.000 A 
ATOM     12  H   UNL     1       3.050   9.358  18.398  0.00  0.00    +0.000 HD
ENDROOT
BRANCH   1  19
ATOM     13  C   UNL     1       5.272   3.777  15.050  0.00  0.00    +0.000 C 
ATOM     14  C   UNL     1       6.139   4.861  15.576  0.00  0.00    +0.000 A 
ATOM     15  N   UNL     1       7.235   5.203  14.890  0.00  0.00    +0.000 NA
ATOM     16  O   UNL     1       7.862   6.171  15.639  0.00  0.00    +0.000 OA
ATOM     17  C   UNL     1       7.149   6.418  16.769  0.00  0.00    +0.000 A 
ATOM     18  C   UNL     1       7.736   7.438  17.662  0.00  0.00    +0.000 C 
ATOM     19  C   UNL     1       6.017   5.621  16.779  0.00  0.00    +0.000 A 
ENDBRANCH   1  19
BRANCH   9  20
ATOM     20  C   UNL     1       1.011   9.704  18.320  0.00  0.00    +0.000 C 
BRANCH  20  21
ATOM     21  C   UNL     1       1.403  11.044  18.912  0.00  0.00    +0.000 A 
ATOM     22  C   UNL     1       0.901  11.467  20.164  0.00  0.00    +0.000 A 
ATOM     23  C   UNL     1       1.224  12.730  20.679  0.00  0.00    +0.000 A 
ATOM     24  C   UNL     1       2.037  13.547  19.923  0.00  0.00    +0.000 A 
ATOM     25  C   UNL     1       2.526  13.148  18.704  0.00  0.00    +0.000 A 
ATOM     26  C   UNL     1       2.229  11.912  18.173  0.00  0.00    +0.000 A 
ATOM     27  O   UNL     1       3.299  14.099  18.114  0.00  0.00    +0.000 OA
ATOM     28  C   UNL     1       3.206  15.160  19.086  0.00  0.00    +0.000 C 
ATOM     29  O   UNL     1       2.438  14.803  20.255  0.00  0.00    +0.000 OA
ENDBRANCH  20  21
ENDBRANCH   9  20
TORSDOF 3
ENDMDL
