MODEL 1
REMARK VINA RESULT:      -7.2      0.000      0.000
REMARK  Name = 
REMARK  6 active torsions:
REMARK  status: ('A' for Active; 'I' for Inactive)
REMARK    1  A    between atoms: C_1  and  C_2
REMARK    2  A    between atoms: C_7  and  C_8
REMARK    3  A    between atoms: C_8  and  C_10
REMARK    4  A    between atoms: C_16  and  N_17
REMARK    5  A    between atoms: C_25  and  C_26
REMARK    6  A    between atoms: C_25  and  C_27
REMARK                            x       y       z     vdW  Elec       q    Type
REMARK                         _______ _______ _______ _____ _____    ______ ____
ROOT
ATOM      1  C   UNL     1       5.663   4.664  15.666  0.00  0.00    +0.000 A 
ATOM      2  C   UNL     1       6.314   5.786  16.857  0.00  0.00    +0.000 A 
ATOM      3  C   UNL     1       5.846   5.608  18.820  0.00  0.00    +0.000 A 
ATOM      4  C   UNL     1       4.750   4.268  19.277  0.00  0.00    +0.000 A 
ATOM      5  C   UNL     1       4.134   3.391  17.873  0.00  0.00    +0.000 A 
ATOM      6  C   UNL     1       4.681   3.410  16.202  0.00  0.00    +0.000 A 
ATOM      7  C   UNL     1       3.445   4.618  17.521  0.00  0.00    +0.000 C 
ATOM      8  C   UNL     1       2.495   5.150  18.306  0.00  0.00    +0.000 C 
ATOM      9  C   UNL     1       2.393   4.580  19.703  0.00  0.00    +0.000 C 
ATOM     10  C   UNL     1       1.644   5.470  20.711  0.00  0.00    +0.000 C 
ATOM     11  C   UNL     1       1.499   3.319  19.527  0.00  0.00    +0.000 C 
ATOM     12  O   UNL     1       3.758   4.416  20.274  0.00  0.00    +0.000 OA
ENDROOT
BRANCH   7  13
ATOM     13  N   UNL     1       4.692   5.198  17.465  0.00  0.00    +0.000 N 
ATOM     14  C   UNL     1       6.295   4.164  18.042  0.00  0.00    +0.000 A 
ATOM     15  C   UNL     1       7.657   4.947  18.399  0.00  0.00    +0.000 A 
ATOM     16  C   UNL     1       7.762   6.763  18.220  0.00  0.00    +0.000 A 
ATOM     17  C   UNL     1       6.608   7.656  17.802  0.00  0.00    +0.000 A 
ATOM     18  C   UNL     1       4.841   7.025  17.376  0.00  0.00    +0.000 A 
ATOM     19  O   UNL     1       3.931   7.778  17.061  0.00  0.00    +0.000 OA
ENDBRANCH   7  13
BRANCH   1  20
ATOM     20  C   UNL     1       5.551   5.138  14.276  0.00  0.00    +0.000 C 
ATOM     21  O   UNL     1       5.167   6.282  14.072  0.00  0.00    +0.000 OA
BRANCH  20  28
ATOM     22  C   UNL     1       8.279   5.374  12.987  0.00  0.00    +0.000 C 
ATOM     23  C   UNL     1       7.253   4.356  12.570  0.00  0.00    +0.000 A 
ATOM     24  C   UNL     1       7.568   3.458  11.536  0.00  0.00    +0.000 A 
ATOM     25  C   UNL     1       6.677   2.451  11.154  0.00  0.00    +0.000 A 
ATOM     26  C   UNL     1       5.454   2.316  11.799  0.00  0.00    +0.000 A 
ATOM     27  C   UNL     1       5.100   3.223  12.788  0.00  0.00    +0.000 A 
ATOM     28  C   UNL     1       5.991   4.241  13.180  0.00  0.00    +0.000 A 
ENDBRANCH  20  28
ENDBRANCH   1  20
TORSDOF 3
ENDMDL
MODEL 2
REMARK VINA RESULT:      -7.0      8.629     10.853
REMARK  Name = 
REMARK  6 active torsions:
REMARK  status: ('A' for Active; 'I' for Inactive)
REMARK    1  A    between atoms: C_1  and  C_2
REMARK    2  A    between atoms: C_7  and  C_8
REMARK    3  A    between atoms: C_8  and  C_10
REMARK    4  A    between atoms: C_16  and  N_17
REMARK    5  A    between atoms: C_25  and  C_26
REMARK    6  A    between atoms: C_25  and  C_27
REMARK                            x       y       z     vdW  Elec       q    Type
REMARK                         _______ _______ _______ _____ _____    ______ ____
ROOT
ATOM      1  C   UNL     1       1.453  12.307  20.245  0.00  0.00    +0.000 A 
ATOM      2  C   UNL     1       0.447  11.428  21.392  0.00  0.00    +0.000 A 
ATOM      3  C   UNL     1      -0.923  10.079  20.757  0.00  0.00    +0.000 A 
ATOM      4  C   UNL     1      -1.058   9.828  18.989  0.00  0.00    +0.000 A 
ATOM      5  C   UNL     1      -0.040  10.939  18.070  0.00  0.00    +0.000 A 
ATOM      6  C   UNL     1       1.284  11.965  18.608  0.00  0.00    +0.000 A 
ATOM      7  C   UNL     1      -0.890  11.999  18.578  0.00  0.00    +0.000 C 
ATOM      8  C   UNL     1      -2.197  12.065  18.280  0.00  0.00    +0.000 C 
ATOM      9  C   UNL     1      -2.797  10.831  17.644  0.00  0.00    +0.000 C 
ATOM     10  C   UNL     1      -4.331  10.743  17.724  0.00  0.00    +0.000 C 
ATOM     11  C   UNL     1      -2.474  10.996  16.131  0.00  0.00    +0.000 C 
ATOM     12  O   UNL     1      -2.305   9.618  18.353  0.00  0.00    +0.000 OA
ENDROOT
BRANCH   7  13
ATOM     13  N   UNL     1      -0.493  11.594  19.832  0.00  0.00    +0.000 N 
ATOM     14  C   UNL     1       0.646   9.973  20.039  0.00  0.00    +0.000 A 
ATOM     15  C   UNL     1       0.743   9.250  21.475  0.00  0.00    +0.000 A 
ATOM     16  C   UNL     1      -0.131   9.938  22.926  0.00  0.00    +0.000 A 
ATOM     17  C   UNL     1      -1.034  11.157  22.888  0.00  0.00    +0.000 A 
ATOM     18  C   UNL     1      -1.402  12.193  21.310  0.00  0.00    +0.000 A 
ATOM     19  O   UNL     1      -2.152  13.159  21.315  0.00  0.00    +0.000 OA
ENDBRANCH   7  13
BRANCH   1  20
ATOM     20  C   UNL     1       1.983  13.615  20.667  0.00  0.00    +0.000 C 
ATOM     21  O   UNL     1       2.752  13.660  21.619  0.00  0.00    +0.000 OA
BRANCH  20  28
ATOM     22  C   UNL     1       3.896  14.837  18.666  0.00  0.00    +0.000 C 
ATOM     23  C   UNL     1       2.527  15.394  18.947  0.00  0.00    +0.000 A 
ATOM     24  C   UNL     1       2.100  16.534  18.247  0.00  0.00    +0.000 A 
ATOM     25  C   UNL     1       0.814  17.053  18.422  0.00  0.00    +0.000 A 
ATOM     26  C   UNL     1      -0.074  16.443  19.297  0.00  0.00    +0.000 A 
ATOM     27  C   UNL     1       0.343  15.346  20.039  0.00  0.00    +0.000 A 
ATOM     28  C   UNL     1       1.636  14.816  19.869  0.00  0.00    +0.000 A 
ENDBRANCH  20  28
ENDBRANCH   1  20
TORSDOF 3
ENDMDL
MODEL 3
REMARK VINA RESULT:      -6.9      8.730     10.990
REMARK  Name = 
REMARK  6 active torsions:
REMARK  status: ('A' for Active; 'I' for Inactive)
REMARK    1  A    between atoms: C_1  and  C_2
REMARK    2  A    between atoms: C_7  and  C_8
REMARK    3  A    between atoms: C_8  and  C_10
REMARK    4  A    between atoms: C_16  and  N_17
REMARK    5  A    between atoms: C_25  and  C_26
REMARK    6  A    between atoms: C_25  and  C_27
REMARK                            x       y       z     vdW  Elec       q    Type
REMARK                         _______ _______ _______ _____ _____    ______ ____
ROOT
ATOM      1  C   UNL     1       1.298  12.528  20.338  0.00  0.00    +0.000 A 
ATOM      2  C   UNL     1       0.358  11.545  21.456  0.00  0.00    +0.000 A 
ATOM      3  C   UNL     1      -0.905  10.115  20.778  0.00  0.00    +0.000 A 
ATOM      4  C   UNL     1      -1.017   9.903  19.004  0.00  0.00    +0.000 A 
ATOM      5  C   UNL     1      -0.082  11.112  18.119  0.00  0.00    +0.000 A 
ATOM      6  C   UNL     1       1.159  12.219  18.691  0.00  0.00    +0.000 A 
ATOM      7  C   UNL     1      -1.011  12.091  18.652  0.00  0.00    +0.000 C 
ATOM      8  C   UNL     1      -2.319  12.068  18.350  0.00  0.00    +0.000 C 
ATOM      9  C   UNL     1      -2.822  10.810  17.678  0.00  0.00    +0.000 C 
ATOM     10  C   UNL     1      -4.346  10.605  17.749  0.00  0.00    +0.000 C 
ATOM     11  C   UNL     1      -2.509  11.040  16.172  0.00  0.00    +0.000 C 
ATOM     12  O   UNL     1      -2.243   9.618  18.357  0.00  0.00    +0.000 OA
ENDROOT
BRANCH   7  13
ATOM     13  N   UNL     1      -0.588  11.683  19.897  0.00  0.00    +0.000 N 
ATOM     14  C   UNL     1       0.676  10.152  20.064  0.00  0.00    +0.000 A 
ATOM     15  C   UNL     1       0.824   9.397  21.480  0.00  0.00    +0.000 A 
ATOM     16  C   UNL     1      -0.107   9.972  22.945  0.00  0.00    +0.000 A 
ATOM     17  C   UNL     1      -1.104  11.116  22.936  0.00  0.00    +0.000 A 
ATOM     18  C   UNL     1      -1.547  12.165  21.385  0.00  0.00    +0.000 A 
ATOM     19  O   UNL     1      -2.371  13.067  21.414  0.00  0.00    +0.000 OA
ENDBRANCH   7  13
BRANCH   1  20
ATOM     20  C   UNL     1       1.728  13.859  20.798  0.00  0.00    +0.000 C 
ATOM     21  O   UNL     1       1.987  14.019  21.984  0.00  0.00    +0.000 OA
BRANCH  20  28
ATOM     22  C   UNL     1      -0.545  15.631  19.874  0.00  0.00    +0.000 C 
ATOM     23  C   UNL     1       0.860  15.750  19.351  0.00  0.00    +0.000 A 
ATOM     24  C   UNL     1       1.147  16.734  18.391  0.00  0.00    +0.000 A 
ATOM     25  C   UNL     1       2.449  16.931  17.921  0.00  0.00    +0.000 A 
ATOM     26  C   UNL     1       3.492  16.152  18.402  0.00  0.00    +0.000 A 
ATOM     27  C   UNL     1       3.224  15.139  19.312  0.00  0.00    +0.000 A 
ATOM     28  C   UNL     1       1.917  14.933  19.792  0.00  0.00    +0.000 A 
ENDBRANCH  20  28
ENDBRANCH   1  20
TORSDOF 3
ENDMDL
MODEL 4
REMARK VINA RESULT:      -6.8      2.400      6.824
REMARK  Name = 
REMARK  6 active torsions:
REMARK  status: ('A' for Active; 'I' for Inactive)
REMARK    1  A    between atoms: C_1  and  C_2
REMARK    2  A    between atoms: C_7  and  C_8
REMARK    3  A    between atoms: C_8  and  C_10
REMARK    4  A    between atoms: C_16  and  N_17
REMARK    5  A    between atoms: C_25  and  C_26
REMARK    6  A    between atoms: C_25  and  C_27
REMARK                            x       y       z     vdW  Elec       q    Type
REMARK                         _______ _______ _______ _____ _____    ______ ____
ROOT
ATOM      1  C   UNL     1       3.098   5.443  19.915  0.00  0.00    +0.000 A 
ATOM      2  C   UNL     1       2.752   3.785  19.436  0.00  0.00    +0.000 A 
ATOM      3  C   UNL     1       4.010   2.768  18.218  0.00  0.00    +0.000 A 
ATOM      4  C   UNL     1       5.477   3.630  17.660  0.00  0.00    +0.000 A 
ATOM      5  C   UNL     1       5.500   5.321  18.169  0.00  0.00    +0.000 A 
ATOM      6  C   UNL     1       4.525   6.149  19.376  0.00  0.00    +0.000 A 
ATOM      7  C   UNL     1       4.348   5.504  17.307  0.00  0.00    +0.000 C 
ATOM      8  C   UNL     1       4.418   5.322  15.979  0.00  0.00    +0.000 C 
ATOM      9  C   UNL     1       5.663   4.632  15.469  0.00  0.00    +0.000 C 
ATOM     10  C   UNL     1       5.537   4.034  14.057  0.00  0.00    +0.000 C 
ATOM     11  C   UNL     1       6.700   5.784  15.336  0.00  0.00    +0.000 C 
ATOM     12  O   UNL     1       5.987   3.475  16.349  0.00  0.00    +0.000 OA
ENDROOT
BRANCH   7  13
ATOM     13  N   UNL     1       3.721   4.567  18.095  0.00  0.00    +0.000 N 
ATOM     14  C   UNL     1       4.774   3.523  19.427  0.00  0.00    +0.000 A 
ATOM     15  C   UNL     1       4.167   2.154  20.020  0.00  0.00    +0.000 A 
ATOM     16  C   UNL     1       2.500   1.584  19.531  0.00  0.00    +0.000 A 
ATOM     17  C   UNL     1       1.613   2.286  18.519  0.00  0.00    +0.000 A 
ATOM     18  C   UNL     1       2.086   3.903  17.591  0.00  0.00    +0.000 A 
ATOM     19  O   UNL     1       1.351   4.429  16.768  0.00  0.00    +0.000 OA
ENDBRANCH   7  13
BRANCH   1  20
ATOM     20  C   UNL     1       1.956   6.296  20.289  0.00  0.00    +0.000 C 
ATOM     21  O   UNL     1       1.208   5.921  21.182  0.00  0.00    +0.000 OA
BRANCH  20  28
ATOM     22  C   UNL     1       1.143   8.782  21.810  0.00  0.00    +0.000 C 
ATOM     23  C   UNL     1       1.418   8.772  20.331  0.00  0.00    +0.000 A 
ATOM     24  C   UNL     1       1.302   9.971  19.610  0.00  0.00    +0.000 A 
ATOM     25  C   UNL     1       1.610  10.030  18.248  0.00  0.00    +0.000 A 
ATOM     26  C   UNL     1       2.043   8.894  17.577  0.00  0.00    +0.000 A 
ATOM     27  C   UNL     1       2.115   7.686  18.258  0.00  0.00    +0.000 A 
ATOM     28  C   UNL     1       1.808   7.617  19.630  0.00  0.00    +0.000 A 
ENDBRANCH  20  28
ENDBRANCH   1  20
TORSDOF 3
ENDMDL
MODEL 5
REMARK VINA RESULT:      -6.8      8.604     11.760
REMARK  Name = 
REMARK  6 active torsions:
REMARK  status: ('A' for Active; 'I' for Inactive)
REMARK    1  A    between atoms: C_1  and  C_2
REMARK    2  A    between atoms: C_7  and  C_8
REMARK    3  A    between atoms: C_8  and  C_10
REMARK    4  A    between atoms: C_16  and  N_17
REMARK    5  A    between atoms: C_25  and  C_26
REMARK    6  A    between atoms: C_25  and  C_27
REMARK                            x       y       z     vdW  Elec       q    Type
REMARK                         _______ _______ _______ _____ _____    ______ ____
ROOT
ATOM      1  C   UNL     1       1.122  13.604  19.086  0.00  0.00    +0.000 A 
ATOM      2  C   UNL     1       0.717  15.041  20.019  0.00  0.00    +0.000 A 
ATOM      3  C   UNL     1       1.837  16.723  19.881  0.00  0.00    +0.000 A 
ATOM      4  C   UNL     1       3.243  16.675  18.774  0.00  0.00    +0.000 A 
ATOM      5  C   UNL     1       3.502  15.072  18.080  0.00  0.00    +0.000 A 
ATOM      6  C   UNL     1       2.434  13.675  18.038  0.00  0.00    +0.000 A 
ATOM      7  C   UNL     1       3.803  14.634  19.429  0.00  0.00    +0.000 C 
ATOM      8  C   UNL     1       4.849  15.118  20.118  0.00  0.00    +0.000 C 
ATOM      9  C   UNL     1       5.512  16.348  19.538  0.00  0.00    +0.000 C 
ATOM     10  C   UNL     1       6.382  17.140  20.530  0.00  0.00    +0.000 C 
ATOM     11  C   UNL     1       6.506  15.775  18.488  0.00  0.00    +0.000 C 
ATOM     12  O   UNL     1       4.469  17.310  19.088  0.00  0.00    +0.000 OA
ENDROOT
BRANCH   7  13
ATOM     13  N   UNL     1       2.526  15.037  19.749  0.00  0.00    +0.000 N 
ATOM     14  C   UNL     1       1.413  15.981  18.393  0.00  0.00    +0.000 A 
ATOM     15  C   UNL     1       0.131  16.831  18.872  0.00  0.00    +0.000 A 
ATOM     16  C   UNL     1      -0.346  16.885  20.636  0.00  0.00    +0.000 A 
ATOM     17  C   UNL     1       0.429  16.218  21.758  0.00  0.00    +0.000 A 
ATOM     18  C   UNL     1       2.037  15.190  21.512  0.00  0.00    +0.000 A 
ATOM     19  O   UNL     1       2.644  14.684  22.444  0.00  0.00    +0.000 OA
ENDBRANCH   7  13
BRANCH   1  20
ATOM     20  C   UNL     1       0.677  12.303  19.613  0.00  0.00    +0.000 C 
ATOM     21  O   UNL     1       1.223  11.854  20.613  0.00  0.00    +0.000 OA
BRANCH  20  28
ATOM     22  C   UNL     1       0.964   9.684  18.124  0.00  0.00    +0.000 C 
ATOM     23  C   UNL     1      -0.342  10.418  18.262  0.00  0.00    +0.000 A 
ATOM     24  C   UNL     1      -1.496   9.866  17.681  0.00  0.00    +0.000 A 
ATOM     25  C   UNL     1      -2.746  10.472  17.835  0.00  0.00    +0.000 A 
ATOM     26  C   UNL     1      -2.872  11.640  18.575  0.00  0.00    +0.000 A 
ATOM     27  C   UNL     1      -1.737  12.231  19.115  0.00  0.00    +0.000 A 
ATOM     28  C   UNL     1      -0.474  11.628  18.966  0.00  0.00    +0.000 A 
ENDBRANCH  20  28
ENDBRANCH   1  20
TORSDOF 3
ENDMDL
MODEL 6
REMARK VINA RESULT:      -6.8      9.109     12.350
REMARK  Name = 
REMARK  6 active torsions:
REMARK  status: ('A' for Active; 'I' for Inactive)
REMARK    1  A    between atoms: C_1  and  C_2
REMARK    2  A    between atoms: C_7  and  C_8
REMARK    3  A    between atoms: C_8  and  C_10
REMARK    4  A    between atoms: C_16  and  N_17
REMARK    5  A    between atoms: C_25  and  C_26
REMARK    6  A    between atoms: C_25  and  C_27
REMARK                            x       y       z     vdW  Elec       q    Type
REMARK                         _______ _______ _______ _____ _____    ______ ____
ROOT
ATOM      1  C   UNL     1       7.038  16.466  18.722  0.00  0.00    +0.000 A 
ATOM      2  C   UNL     1       8.570  17.120  19.291  0.00  0.00    +0.000 A 
ATOM      3  C   UNL     1      10.304  16.116  19.001  0.00  0.00    +0.000 A 
ATOM      4  C   UNL     1      10.203  14.547  18.146  0.00  0.00    +0.000 A 
ATOM      5  C   UNL     1       8.536  14.064  17.818  0.00  0.00    +0.000 A 
ATOM      6  C   UNL     1       7.054  15.007  17.887  0.00  0.00    +0.000 A 
ATOM      7  C   UNL     1       8.378  13.959  19.256  0.00  0.00    +0.000 C 
ATOM      8  C   UNL     1       9.080  13.078  19.986  0.00  0.00    +0.000 C 
ATOM      9  C   UNL     1      10.247  12.418  19.287  0.00  0.00    +0.000 C 
ATOM     10  C   UNL     1      11.287  11.782  20.226  0.00  0.00    +0.000 C 
ATOM     11  C   UNL     1       9.600  11.226  18.525  0.00  0.00    +0.000 C 
ATOM     12  O   UNL     1      11.003  13.438  18.510  0.00  0.00    +0.000 OA
ENDROOT
BRANCH   7  13
ATOM     13  N   UNL     1       8.701  15.296  19.300  0.00  0.00    +0.000 N 
ATOM     14  C   UNL     1       9.289  16.230  17.641  0.00  0.00    +0.000 A 
ATOM     15  C   UNL     1      10.076  17.631  17.757  0.00  0.00    +0.000 A 
ATOM     16  C   UNL     1      10.378  18.399  19.389  0.00  0.00    +0.000 A 
ATOM     17  C   UNL     1       9.988  17.777  20.717  0.00  0.00    +0.000 A 
ATOM     18  C   UNL     1       9.098  16.082  20.910  0.00  0.00    +0.000 A 
ATOM     19  O   UNL     1       8.818  15.606  21.999  0.00  0.00    +0.000 OA
ENDBRANCH   7  13
BRANCH   1  20
ATOM     20  C   UNL     1       5.814  16.897  19.417  0.00  0.00    +0.000 C 
ATOM     21  O   UNL     1       5.574  18.094  19.502  0.00  0.00    +0.000 OA
BRANCH  20  28
ATOM     22  C   UNL     1       3.400  16.009  17.821  0.00  0.00    +0.000 C 
ATOM     23  C   UNL     1       3.743  15.456  19.178  0.00  0.00    +0.000 A 
ATOM     24  C   UNL     1       2.914  14.471  19.740  0.00  0.00    +0.000 A 
ATOM     25  C   UNL     1       3.223  13.877  20.967  0.00  0.00    +0.000 A 
ATOM     26  C   UNL     1       4.368  14.250  21.657  0.00  0.00    +0.000 A 
ATOM     27  C   UNL     1       5.175  15.258  21.146  0.00  0.00    +0.000 A 
ATOM     28  C   UNL     1       4.873  15.862  19.911  0.00  0.00    +0.000 A 
ENDBRANCH  20  28
ENDBRANCH   1  20
TORSDOF 3
ENDMDL
MODEL 7
REMARK VINA RESULT:      -6.7      9.201     12.877
REMARK  Name = 
REMARK  6 active torsions:
REMARK  status: ('A' for Active; 'I' for Inactive)
REMARK    1  A    between atoms: C_1  and  C_2
REMARK    2  A    between atoms: C_7  and  C_8
REMARK    3  A    between atoms: C_8  and  C_10
REMARK    4  A    between atoms: C_16  and  N_17
REMARK    5  A    between atoms: C_25  and  C_26
REMARK    6  A    between atoms: C_25  and  C_27
REMARK                            x       y       z     vdW  Elec       q    Type
REMARK                         _______ _______ _______ _____ _____    ______ ____
ROOT
ATOM      1  C   UNL     1       9.454  13.157  21.423  0.00  0.00    +0.000 A 
ATOM      2  C   UNL     1       9.600  12.639  19.746  0.00  0.00    +0.000 A 
ATOM      3  C   UNL     1      10.671  13.721  18.411  0.00  0.00    +0.000 A 
ATOM      4  C   UNL     1      11.451  15.215  19.014  0.00  0.00    +0.000 A 
ATOM      5  C   UNL     1      11.022  15.572  20.689  0.00  0.00    +0.000 A 
ATOM      6  C   UNL     1      10.264  14.549  21.902  0.00  0.00    +0.000 A 
ATOM      7  C   UNL     1       9.669  15.772  20.206  0.00  0.00    +0.000 C 
ATOM      8  C   UNL     1       9.362  16.744  19.333  0.00  0.00    +0.000 C 
ATOM      9  C   UNL     1      10.532  17.421  18.655  0.00  0.00    +0.000 C 
ATOM     10  C   UNL     1      10.179  18.184  17.367  0.00  0.00    +0.000 C 
ATOM     11  C   UNL     1      10.972  18.513  19.672  0.00  0.00    +0.000 C 
ATOM     12  O   UNL     1      11.524  16.393  18.234  0.00  0.00    +0.000 OA
ENDROOT
BRANCH   7  13
ATOM     13  N   UNL     1       9.722  14.464  19.783  0.00  0.00    +0.000 N 
ATOM     14  C   UNL     1      11.421  13.436  19.942  0.00  0.00    +0.000 A 
ATOM     15  C   UNL     1      11.623  12.097  19.070  0.00  0.00    +0.000 A 
ATOM     16  C   UNL     1      10.285  11.479  17.987  0.00  0.00    +0.000 A 
ATOM     17  C   UNL     1       8.956  12.181  17.776  0.00  0.00    +0.000 A 
ATOM     18  C   UNL     1       8.447  13.831  18.624  0.00  0.00    +0.000 A 
ATOM     19  O   UNL     1       7.373  14.376  18.414  0.00  0.00    +0.000 OA
ENDBRANCH   7  13
BRANCH   1  20
ATOM     20  C   UNL     1       8.270  12.704  22.173  0.00  0.00    +0.000 C 
ATOM     21  O   UNL     1       8.118  11.506  22.369  0.00  0.00    +0.000 OA
BRANCH  20  28
ATOM     22  C   UNL     1       8.299  13.461  25.103  0.00  0.00    +0.000 C 
ATOM     23  C   UNL     1       7.355  14.069  24.103  0.00  0.00    +0.000 A 
ATOM     24  C   UNL     1       6.441  15.044  24.535  0.00  0.00    +0.000 A 
ATOM     25  C   UNL     1       5.587  15.688  23.635  0.00  0.00    +0.000 A 
ATOM     26  C   UNL     1       5.630  15.375  22.283  0.00  0.00    +0.000 A 
ATOM     27  C   UNL     1       6.489  14.378  21.840  0.00  0.00    +0.000 A 
ATOM     28  C   UNL     1       7.353  13.724  22.739  0.00  0.00    +0.000 A 
ENDBRANCH  20  28
ENDBRANCH   1  20
TORSDOF 3
ENDMDL
MODEL 8
REMARK VINA RESULT:      -6.7      8.926     11.986
REMARK  Name = 
REMARK  6 active torsions:
REMARK  status: ('A' for Active; 'I' for Inactive)
REMARK    1  A    between atoms: C_1  and  C_2
REMARK    2  A    between atoms: C_7  and  C_8
REMARK    3  A    between atoms: C_8  and  C_10
REMARK    4  A    between atoms: C_16  and  N_17
REMARK    5  A    between atoms: C_25  and  C_26
REMARK    6  A    between atoms: C_25  and  C_27
REMARK                            x       y       z     vdW  Elec       q    Type
REMARK                         _______ _______ _______ _____ _____    ______ ____
ROOT
ATOM      1  C   UNL     1       0.879  12.898  20.887  0.00  0.00    +0.000 A 
ATOM      2  C   UNL     1       0.110  11.620  21.822  0.00  0.00    +0.000 A 
ATOM      3  C   UNL     1      -0.831  10.080  20.905  0.00  0.00    +0.000 A 
ATOM      4  C   UNL     1      -0.842  10.083  19.115  0.00  0.00    +0.000 A 
ATOM      5  C   UNL     1      -0.129  11.550  18.438  0.00  0.00    +0.000 A 
ATOM      6  C   UNL     1       0.856  12.785  19.210  0.00  0.00    +0.000 A 
ATOM      7  C   UNL     1      -1.246  12.260  19.032  0.00  0.00    +0.000 C 
ATOM      8  C   UNL     1      -2.514  12.032  18.655  0.00  0.00    +0.000 C 
ATOM      9  C   UNL     1      -2.743  10.800  17.808  0.00  0.00    +0.000 C 
ATOM     10  C   UNL     1      -4.200  10.307  17.766  0.00  0.00    +0.000 C 
ATOM     11  C   UNL     1      -2.431  11.279  16.361  0.00  0.00    +0.000 C 
ATOM     12  O   UNL     1      -1.967   9.660  18.369  0.00  0.00    +0.000 OA
ENDROOT
BRANCH   7  13
ATOM     13  N   UNL     1      -0.793  11.780  20.240  0.00  0.00    +0.000 N 
ATOM     14  C   UNL     1       0.722  10.488  20.290  0.00  0.00    +0.000 A 
ATOM     15  C   UNL     1       0.963   9.600  21.613  0.00  0.00    +0.000 A 
ATOM     16  C   UNL     1      -0.101   9.812  23.085  0.00  0.00    +0.000 A 
ATOM     17  C   UNL     1      -1.289  10.753  23.159  0.00  0.00    +0.000 A 
ATOM     18  C   UNL     1      -1.869  11.894  21.723  0.00  0.00    +0.000 A 
ATOM     19  O   UNL     1      -2.844  12.625  21.815  0.00  0.00    +0.000 OA
ENDBRANCH   7  13
BRANCH   1  20
ATOM     20  C   UNL     1       1.029  14.215  21.529  0.00  0.00    +0.000 C 
ATOM     21  O   UNL     1       2.082  14.480  22.095  0.00  0.00    +0.000 OA
BRANCH  20  28
ATOM     22  C   UNL     1      -0.901  14.822  23.780  0.00  0.00    +0.000 C 
ATOM     23  C   UNL     1      -0.975  15.479  22.429  0.00  0.00    +0.000 A 
ATOM     24  C   UNL     1      -1.980  16.430  22.190  0.00  0.00    +0.000 A 
ATOM     25  C   UNL     1      -2.053  17.118  20.976  0.00  0.00    +0.000 A 
ATOM     26  C   UNL     1      -1.122  16.874  19.975  0.00  0.00    +0.000 A 
ATOM     27  C   UNL     1      -0.151  15.902  20.170  0.00  0.00    +0.000 A 
ATOM     28  C   UNL     1      -0.068  15.204  21.390  0.00  0.00    +0.000 A 
ENDBRANCH  20  28
ENDBRANCH   1  20
TORSDOF 3
ENDMDL
MODEL 9
REMARK VINA RESULT:      -6.7      9.383     11.392
REMARK  Name = 
REMARK  6 active torsions:
REMARK  status: ('A' for Active; 'I' for Inactive)
REMARK    1  A    between atoms: C_1  and  C_2
REMARK    2  A    between atoms: C_7  and  C_8
REMARK    3  A    between atoms: C_8  and  C_10
REMARK    4  A    between atoms: C_16  and  N_17
REMARK    5  A    between atoms: C_25  and  C_26
REMARK    6  A    between atoms: C_25  and  C_27
REMARK                            x       y       z     vdW  Elec       q    Type
REMARK                         _______ _______ _______ _____ _____    ______ ____
ROOT
ATOM      1  C   UNL     1      -1.422  12.077  19.432  0.00  0.00    +0.000 A 
ATOM      2  C   UNL     1      -1.531  12.064  21.189  0.00  0.00    +0.000 A 
ATOM      3  C   UNL     1      -0.610  13.484  22.300  0.00  0.00    +0.000 A 
ATOM      4  C   UNL     1       0.311  14.740  21.416  0.00  0.00    +0.000 A 
ATOM      5  C   UNL     1       0.376  14.430  19.678  0.00  0.00    +0.000 A 
ATOM      6  C   UNL     1      -0.574  13.326  18.693  0.00  0.00    +0.000 A 
ATOM      7  C   UNL     1       1.157  13.253  20.007  0.00  0.00    +0.000 C 
ATOM      8  C   UNL     1       2.357  13.340  20.603  0.00  0.00    +0.000 C 
ATOM      9  C   UNL     1       2.715  14.692  21.180  0.00  0.00    +0.000 C 
ATOM     10  C   UNL     1       3.845  14.669  22.224  0.00  0.00    +0.000 C 
ATOM     11  C   UNL     1       3.293  15.474  19.966  0.00  0.00    +0.000 C 
ATOM     12  O   UNL     1       1.538  15.253  21.899  0.00  0.00    +0.000 OA
ENDROOT
BRANCH   7  13
ATOM     13  N   UNL     1       0.062  12.838  20.730  0.00  0.00    +0.000 N 
ATOM     14  C   UNL     1      -1.484  14.068  20.987  0.00  0.00    +0.000 A 
ATOM     15  C   UNL     1      -2.542  13.776  22.167  0.00  0.00    +0.000 A 
ATOM     16  C   UNL     1      -2.372  12.297  23.227  0.00  0.00    +0.000 A 
ATOM     17  C   UNL     1      -1.233  11.298  23.133  0.00  0.00    +0.000 A 
ATOM     18  C   UNL     1       0.217  11.411  21.874  0.00  0.00    +0.000 A 
ATOM     19  O   UNL     1       1.127  10.596  21.842  0.00  0.00    +0.000 OA
ENDBRANCH   7  13
BRANCH   1  20
ATOM     20  C   UNL     1      -1.591  10.793  18.731  0.00  0.00    +0.000 C 
ATOM     21  O   UNL     1      -1.027   9.800  19.173  0.00  0.00    +0.000 OA
BRANCH  20  28
ATOM     22  C   UNL     1      -4.373  11.982  18.799  0.00  0.00    +0.000 C 
ATOM     23  C   UNL     1      -3.807  11.272  17.600  0.00  0.00    +0.000 A 
ATOM     24  C   UNL     1      -4.597  11.155  16.444  0.00  0.00    +0.000 A 
ATOM     25  C   UNL     1      -4.096  10.564  15.281  0.00  0.00    +0.000 A 
ATOM     26  C   UNL     1      -2.795  10.080  15.245  0.00  0.00    +0.000 A 
ATOM     27  C   UNL     1      -2.014  10.138  16.391  0.00  0.00    +0.000 A 
ATOM     28  C   UNL     1      -2.509  10.732  17.567  0.00  0.00    +0.000 A 
ENDBRANCH  20  28
ENDBRANCH   1  20
TORSDOF 3
ENDMDL
