MODEL 1
REMARK VINA RESULT:      -8.3      0.000      0.000
REMARK  Name = 
REMARK  8 active torsions:
REMARK  status: ('A' for Active; 'I' for Inactive)
REMARK    1  A    between atoms: C_1  and  N_2
REMARK    2  A    between atoms: C_6  and  C_7
REMARK    3  A    between atoms: C_7  and  C_8
REMARK    4  A    between atoms: C_11  and  S_12
REMARK    5  A    between atoms: S_12  and  C_13
REMARK    6  A    between atoms: C_13  and  C_14
REMARK    7  A    between atoms: N_16  and  C_17
REMARK    8  A    between atoms: N_24  and  C_25
REMARK                            x       y       z     vdW  Elec       q    Type
REMARK                         _______ _______ _______ _____ _____    ______ ____
ROOT
ATOM      1  C   UNL     1       2.003   6.213  20.407  0.00  0.00    +0.000 A 
ATOM      2  N   UNL     1       1.390   7.171  21.090  0.00  0.00    +0.000 NA
ATOM      3  N   UNL     1       1.367   8.303  20.337  0.00  0.00    +0.000 NA
ATOM      4  C   UNL     1       1.957   8.036  19.196  0.00  0.00    +0.000 A 
ATOM      5  N   UNL     1       2.443   6.735  19.185  0.00  0.00    +0.000 N 
ENDROOT
BRANCH   5   6
ATOM      6  C   UNL     1       3.332   6.117  18.258  0.00  0.00    +0.000 A 
ATOM      7  C   UNL     1       4.677   6.512  18.194  0.00  0.00    +0.000 A 
ATOM      8  C   UNL     1       5.588   5.783  17.427  0.00  0.00    +0.000 A 
ATOM      9  C   UNL     1       5.161   4.661  16.731  0.00  0.00    +0.000 A 
ATOM     10  F   UNL     1       6.050   3.923  16.054  0.00  0.00    +0.000 F 
ATOM     11  C   UNL     1       3.826   4.287  16.740  0.00  0.00    +0.000 A 
ATOM     12  C   UNL     1       2.906   5.031  17.482  0.00  0.00    +0.000 A 
ENDBRANCH   5   6
BRANCH   1  13
ATOM     13  C   UNL     1       2.370   4.893  21.011  0.00  0.00    +0.000 C 
BRANCH  13  19
ATOM     14  C   UNL     1       4.240   2.465  20.116  0.00  0.00    +0.000 C 
ATOM     15  N   UNL     1       2.830   2.628  19.833  0.00  0.00    +0.000 N 
ATOM     16  C   UNL     1       2.118   1.729  19.073  0.00  0.00    +0.000 A 
ATOM     17  C   UNL     1       0.798   2.104  19.078  0.00  0.00    +0.000 A 
ATOM     18  C   UNL     1       0.712   3.292  19.831  0.00  0.00    +0.000 A 
ATOM     19  C   UNL     1       1.987   3.632  20.272  0.00  0.00    +0.000 A 
ENDBRANCH  13  19
ENDBRANCH   1  13
BRANCH   4  20
ATOM     20  S   UNL     1       1.983   9.152  17.871  0.00  0.00    +0.000 S 
BRANCH  20  21
ATOM     21  C   UNL     1       1.740  10.724  18.753  0.00  0.00    +0.000 C 
BRANCH  21  22
ATOM     22  C   UNL     1       0.376  11.313  18.434  0.00  0.00    +0.000 C 
ATOM     23  O   UNL     1       0.153  12.510  18.612  0.00  0.00    +0.000 OA
ATOM     24  N   UNL     1      -0.556  10.380  18.006  0.00  0.00    +0.000 N 
ATOM     25  H   UNL     1      -0.339   9.399  18.176  0.00  0.00    +0.000 HD
BRANCH  24  26
ATOM     26  C   UNL     1      -1.868  10.673  17.569  0.00  0.00    +0.000 A 
ATOM     27  C   UNL     1      -2.821  11.293  18.385  0.00  0.00    +0.000 A 
ATOM     28  C   UNL     1      -4.120  11.518  17.925  0.00  0.00    +0.000 A 
ATOM     29  C   UNL     1      -4.479  11.125  16.638  0.00  0.00    +0.000 A 
ATOM     30  C   UNL     1      -3.525  10.541  15.809  0.00  0.00    +0.000 A 
ATOM     31 CL   UNL     1      -3.968  10.052  14.219  0.00  0.00    +0.000 Cl
ATOM     32  C   UNL     1      -2.218  10.330  16.260  0.00  0.00    +0.000 A 
ENDBRANCH  24  26
ENDBRANCH  21  22
ENDBRANCH  20  21
ENDBRANCH   4  20
TORSDOF 7
ENDMDL
MODEL 2
REMARK VINA RESULT:      -8.1      5.563      7.983
REMARK  Name = 
REMARK  8 active torsions:
REMARK  status: ('A' for Active; 'I' for Inactive)
REMARK    1  A    between atoms: C_1  and  N_2
REMARK    2  A    between atoms: C_6  and  C_7
REMARK    3  A    between atoms: C_7  and  C_8
REMARK    4  A    between atoms: C_11  and  S_12
REMARK    5  A    between atoms: S_12  and  C_13
REMARK    6  A    between atoms: C_13  and  C_14
REMARK    7  A    between atoms: N_16  and  C_17
REMARK    8  A    between atoms: N_24  and  C_25
REMARK                            x       y       z     vdW  Elec       q    Type
REMARK                         _______ _______ _______ _____ _____    ______ ____
ROOT
ATOM      1  C   UNL     1       5.211   4.227  16.663  0.00  0.00    +0.000 A 
ATOM      2  N   UNL     1       6.343   3.937  16.036  0.00  0.00    +0.000 NA
ATOM      3  N   UNL     1       7.332   4.735  16.522  0.00  0.00    +0.000 NA
ATOM      4  C   UNL     1       6.807   5.504  17.446  0.00  0.00    +0.000 A 
ATOM      5  N   UNL     1       5.440   5.280  17.556  0.00  0.00    +0.000 N 
ENDROOT
BRANCH   5   6
ATOM      6  C   UNL     1       4.459   6.042  18.255  0.00  0.00    +0.000 A 
ATOM      7  C   UNL     1       3.821   7.123  17.627  0.00  0.00    +0.000 A 
ATOM      8  C   UNL     1       2.731   7.746  18.239  0.00  0.00    +0.000 A 
ATOM      9  C   UNL     1       2.277   7.291  19.468  0.00  0.00    +0.000 A 
ATOM     10  F   UNL     1       1.189   7.845  20.018  0.00  0.00    +0.000 F 
ATOM     11  C   UNL     1       2.928   6.260  20.127  0.00  0.00    +0.000 A 
ATOM     12  C   UNL     1       4.036   5.653  19.533  0.00  0.00    +0.000 A 
ENDBRANCH   5   6
BRANCH   1  13
ATOM     13  C   UNL     1       3.885   3.671  16.242  0.00  0.00    +0.000 C 
BRANCH  13  19
ATOM     14  C   UNL     1       3.931   1.370  18.455  0.00  0.00    +0.000 C 
ATOM     15  N   UNL     1       2.870   2.324  18.212  0.00  0.00    +0.000 N 
ATOM     16  C   UNL     1       1.688   2.312  18.917  0.00  0.00    +0.000 A 
ATOM     17  C   UNL     1       0.939   3.395  18.529  0.00  0.00    +0.000 A 
ATOM     18  C   UNL     1       1.671   4.062  17.527  0.00  0.00    +0.000 A 
ATOM     19  C   UNL     1       2.860   3.371  17.310  0.00  0.00    +0.000 A 
ENDBRANCH  13  19
ENDBRANCH   1  13
BRANCH   4  20
ATOM     20  S   UNL     1       7.760   6.545  18.452  0.00  0.00    +0.000 S 
BRANCH  20  21
ATOM     21  C   UNL     1       7.589   8.120  17.557  0.00  0.00    +0.000 C 
BRANCH  21  22
ATOM     22  C   UNL     1       8.443   9.199  18.204  0.00  0.00    +0.000 C 
ATOM     23  O   UNL     1       9.050   8.973  19.250  0.00  0.00    +0.000 OA
ATOM     24  N   UNL     1       8.403  10.419  17.547  0.00  0.00    +0.000 N 
ATOM     25  H   UNL     1       7.651  10.558  16.875  0.00  0.00    +0.000 HD
BRANCH  24  26
ATOM     26  C   UNL     1       9.165  11.560  17.891  0.00  0.00    +0.000 A 
ATOM     27  C   UNL     1      10.561  11.541  17.988  0.00  0.00    +0.000 A 
ATOM     28  C   UNL     1      11.267  12.681  18.380  0.00  0.00    +0.000 A 
ATOM     29  C   UNL     1      10.580  13.855  18.677  0.00  0.00    +0.000 A 
ATOM     30  C   UNL     1       9.194  13.889  18.546  0.00  0.00    +0.000 A 
ATOM     31 CL   UNL     1       8.344  15.340  18.916  0.00  0.00    +0.000 Cl
ATOM     32  C   UNL     1       8.486  12.756  18.138  0.00  0.00    +0.000 A 
ENDBRANCH  24  26
ENDBRANCH  21  22
ENDBRANCH  20  21
ENDBRANCH   4  20
TORSDOF 7
ENDMDL
MODEL 3
REMARK VINA RESULT:      -8.1      1.027      1.342
REMARK  Name = 
REMARK  8 active torsions:
REMARK  status: ('A' for Active; 'I' for Inactive)
REMARK    1  A    between atoms: C_1  and  N_2
REMARK    2  A    between atoms: C_6  and  C_7
REMARK    3  A    between atoms: C_7  and  C_8
REMARK    4  A    between atoms: C_11  and  S_12
REMARK    5  A    between atoms: S_12  and  C_13
REMARK    6  A    between atoms: C_13  and  C_14
REMARK    7  A    between atoms: N_16  and  C_17
REMARK    8  A    between atoms: N_24  and  C_25
REMARK                            x       y       z     vdW  Elec       q    Type
REMARK                         _______ _______ _______ _____ _____    ______ ____
ROOT
ATOM      1  C   UNL     1       1.905   6.078  20.506  0.00  0.00    +0.000 A 
ATOM      2  N   UNL     1       1.211   7.004  21.155  0.00  0.00    +0.000 NA
ATOM      3  N   UNL     1       1.272   8.170  20.456  0.00  0.00    +0.000 NA
ATOM      4  C   UNL     1       1.994   7.954  19.382  0.00  0.00    +0.000 A 
ATOM      5  N   UNL     1       2.484   6.654  19.370  0.00  0.00    +0.000 N 
ENDROOT
BRANCH   5   6
ATOM      6  C   UNL     1       3.479   6.077  18.527  0.00  0.00    +0.000 A 
ATOM      7  C   UNL     1       4.839   6.194  18.854  0.00  0.00    +0.000 A 
ATOM      8  C   UNL     1       5.797   5.473  18.139  0.00  0.00    +0.000 A 
ATOM      9  C   UNL     1       5.402   4.635  17.107  0.00  0.00    +0.000 A 
ATOM     10  F   UNL     1       6.315   3.891  16.470  0.00  0.00    +0.000 F 
ATOM     11  C   UNL     1       4.069   4.549  16.735  0.00  0.00    +0.000 A 
ATOM     12  C   UNL     1       3.110   5.291  17.428  0.00  0.00    +0.000 A 
ENDBRANCH   5   6
BRANCH   1  13
ATOM     13  C   UNL     1       2.205   4.732  21.090  0.00  0.00    +0.000 C 
BRANCH  13  19
ATOM     14  C   UNL     1       4.317   2.562  20.077  0.00  0.00    +0.000 C 
ATOM     15  N   UNL     1       2.908   2.623  19.753  0.00  0.00    +0.000 N 
ATOM     16  C   UNL     1       2.306   1.731  18.896  0.00  0.00    +0.000 A 
ATOM     17  C   UNL     1       0.957   1.986  18.878  0.00  0.00    +0.000 A 
ATOM     18  C   UNL     1       0.738   3.095  19.720  0.00  0.00    +0.000 A 
ATOM     19  C   UNL     1       1.963   3.508  20.237  0.00  0.00    +0.000 A 
ENDBRANCH  13  19
ENDBRANCH   1  13
BRANCH   4  20
ATOM     20  S   UNL     1       2.171   9.128  18.120  0.00  0.00    +0.000 S 
BRANCH  20  21
ATOM     21  C   UNL     1       1.723  10.648  19.013  0.00  0.00    +0.000 C 
BRANCH  21  22
ATOM     22  C   UNL     1       0.414  11.214  18.486  0.00  0.00    +0.000 C 
ATOM     23  O   UNL     1       0.284  12.423  18.302  0.00  0.00    +0.000 OA
ATOM     24  N   UNL     1      -0.581  10.265  18.312  0.00  0.00    +0.000 N 
ATOM     25  H   UNL     1      -0.446   9.364  18.767  0.00  0.00    +0.000 HD
BRANCH  24  26
ATOM     26  C   UNL     1      -1.860  10.510  17.760  0.00  0.00    +0.000 A 
ATOM     27  C   UNL     1      -2.225  10.096  16.474  0.00  0.00    +0.000 A 
ATOM     28  C   UNL     1      -3.484  10.405  15.953  0.00  0.00    +0.000 A 
ATOM     29  C   UNL     1      -4.393  11.132  16.718  0.00  0.00    +0.000 A 
ATOM     30  C   UNL     1      -4.047  11.515  18.012  0.00  0.00    +0.000 A 
ATOM     31 CL   UNL     1      -5.169  12.417  18.957  0.00  0.00    +0.000 Cl
ATOM     32  C   UNL     1      -2.795  11.192  18.543  0.00  0.00    +0.000 A 
ENDBRANCH  24  26
ENDBRANCH  21  22
ENDBRANCH  20  21
ENDBRANCH   4  20
TORSDOF 7
ENDMDL
MODEL 4
REMARK VINA RESULT:      -8.1      3.497      5.290
REMARK  Name = 
REMARK  8 active torsions:
REMARK  status: ('A' for Active; 'I' for Inactive)
REMARK    1  A    between atoms: C_1  and  N_2
REMARK    2  A    between atoms: C_6  and  C_7
REMARK    3  A    between atoms: C_7  and  C_8
REMARK    4  A    between atoms: C_11  and  S_12
REMARK    5  A    between atoms: S_12  and  C_13
REMARK    6  A    between atoms: C_13  and  C_14
REMARK    7  A    between atoms: N_16  and  C_17
REMARK    8  A    between atoms: N_24  and  C_25
REMARK                            x       y       z     vdW  Elec       q    Type
REMARK                         _______ _______ _______ _____ _____    ______ ____
ROOT
ATOM      1  C   UNL     1       3.802   5.829  17.713  0.00  0.00    +0.000 A 
ATOM      2  N   UNL     1       3.942   6.937  16.997  0.00  0.00    +0.000 NA
ATOM      3  N   UNL     1       3.181   7.919  17.553  0.00  0.00    +0.000 NA
ATOM      4  C   UNL     1       2.586   7.414  18.607  0.00  0.00    +0.000 A 
ATOM      5  N   UNL     1       2.886   6.065  18.745  0.00  0.00    +0.000 N 
ENDROOT
BRANCH   5   6
ATOM      6  C   UNL     1       2.285   5.094  19.598  0.00  0.00    +0.000 A 
ATOM      7  C   UNL     1       1.359   4.174  19.081  0.00  0.00    +0.000 A 
ATOM      8  C   UNL     1       0.916   3.108  19.868  0.00  0.00    +0.000 A 
ATOM      9  C   UNL     1       1.397   2.957  21.160  0.00  0.00    +0.000 A 
ATOM     10  F   UNL     1       1.025   1.895  21.885  0.00  0.00    +0.000 F 
ATOM     11  C   UNL     1       2.270   3.886  21.704  0.00  0.00    +0.000 A 
ATOM     12  C   UNL     1       2.694   4.970  20.932  0.00  0.00    +0.000 A 
ENDBRANCH   5   6
BRANCH   1  13
ATOM     13  C   UNL     1       4.349   4.505  17.276  0.00  0.00    +0.000 C 
BRANCH  13  19
ATOM     14  C   UNL     1       7.510   4.746  17.652  0.00  0.00    +0.000 C 
ATOM     15  N   UNL     1       6.786   4.664  16.402  0.00  0.00    +0.000 N 
ATOM     16  C   UNL     1       7.412   4.728  15.177  0.00  0.00    +0.000 A 
ATOM     17  C   UNL     1       6.473   4.518  14.198  0.00  0.00    +0.000 A 
ATOM     18  C   UNL     1       5.232   4.362  14.846  0.00  0.00    +0.000 A 
ATOM     19  C   UNL     1       5.427   4.487  16.218  0.00  0.00    +0.000 A 
ENDBRANCH  13  19
ENDBRANCH   1  13
BRANCH   4  20
ATOM     20  S   UNL     1       1.665   8.379  19.714  0.00  0.00    +0.000 S 
BRANCH  20  21
ATOM     21  C   UNL     1       0.903   9.568  18.567  0.00  0.00    +0.000 C 
BRANCH  21  22
ATOM     22  C   UNL     1       0.969  10.977  19.134  0.00  0.00    +0.000 C 
ATOM     23  O   UNL     1       1.054  11.160  20.348  0.00  0.00    +0.000 OA
ATOM     24  N   UNL     1       0.860  11.975  18.178  0.00  0.00    +0.000 N 
ATOM     25  H   UNL     1       0.508  11.702  17.262  0.00  0.00    +0.000 HD
BRANCH  24  26
ATOM     26  C   UNL     1       0.972  13.362  18.427  0.00  0.00    +0.000 A 
ATOM     27  C   UNL     1      -0.123  14.165  18.765  0.00  0.00    +0.000 A 
ATOM     28  C   UNL     1       0.029  15.541  18.953  0.00  0.00    +0.000 A 
ATOM     29  C   UNL     1       1.283  16.128  18.806  0.00  0.00    +0.000 A 
ATOM     30  C   UNL     1       2.383  15.328  18.505  0.00  0.00    +0.000 A 
ATOM     31 CL   UNL     1       3.933  16.053  18.321  0.00  0.00    +0.000 Cl
ATOM     32  C   UNL     1       2.238  13.948  18.334  0.00  0.00    +0.000 A 
ENDBRANCH  24  26
ENDBRANCH  21  22
ENDBRANCH  20  21
ENDBRANCH   4  20
TORSDOF 7
ENDMDL
MODEL 5
REMARK VINA RESULT:      -8.0      2.261      4.064
REMARK  Name = 
REMARK  8 active torsions:
REMARK  status: ('A' for Active; 'I' for Inactive)
REMARK    1  A    between atoms: C_1  and  N_2
REMARK    2  A    between atoms: C_6  and  C_7
REMARK    3  A    between atoms: C_7  and  C_8
REMARK    4  A    between atoms: C_11  and  S_12
REMARK    5  A    between atoms: S_12  and  C_13
REMARK    6  A    between atoms: C_13  and  C_14
REMARK    7  A    between atoms: N_16  and  C_17
REMARK    8  A    between atoms: N_24  and  C_25
REMARK                            x       y       z     vdW  Elec       q    Type
REMARK                         _______ _______ _______ _____ _____    ______ ____
ROOT
ATOM      1  C   UNL     1       3.488   6.632  17.710  0.00  0.00    +0.000 A 
ATOM      2  N   UNL     1       3.479   7.780  17.046  0.00  0.00    +0.000 NA
ATOM      3  N   UNL     1       2.597   8.627  17.644  0.00  0.00    +0.000 NA
ATOM      4  C   UNL     1       2.077   8.000  18.673  0.00  0.00    +0.000 A 
ATOM      5  N   UNL     1       2.553   6.698  18.749  0.00  0.00    +0.000 N 
ENDROOT
BRANCH   5   6
ATOM      6  C   UNL     1       2.088   5.618  19.556  0.00  0.00    +0.000 A 
ATOM      7  C   UNL     1       1.258   4.629  19.005  0.00  0.00    +0.000 A 
ATOM      8  C   UNL     1       0.958   3.477  19.736  0.00  0.00    +0.000 A 
ATOM      9  C   UNL     1       1.489   3.309  21.007  0.00  0.00    +0.000 A 
ATOM     10  F   UNL     1       1.257   2.173  21.676  0.00  0.00    +0.000 F 
ATOM     11  C   UNL     1       2.266   4.300  21.587  0.00  0.00    +0.000 A 
ATOM     12  C   UNL     1       2.544   5.467  20.872  0.00  0.00    +0.000 A 
ENDBRANCH   5   6
BRANCH   1  13
ATOM     13  C   UNL     1       4.203   5.413  17.214  0.00  0.00    +0.000 C 
BRANCH  13  19
ATOM     14  C   UNL     1       6.529   4.127  15.445  0.00  0.00    +0.000 C 
ATOM     15  N   UNL     1       6.639   4.621  16.800  0.00  0.00    +0.000 N 
ATOM     16  C   UNL     1       7.806   4.546  17.524  0.00  0.00    +0.000 A 
ATOM     17  C   UNL     1       7.618   5.189  18.723  0.00  0.00    +0.000 A 
ATOM     18  C   UNL     1       6.280   5.632  18.745  0.00  0.00    +0.000 A 
ATOM     19  C   UNL     1       5.665   5.246  17.557  0.00  0.00    +0.000 A 
ENDBRANCH  13  19
ENDBRANCH   1  13
BRANCH   4  20
ATOM     20  S   UNL     1       1.041   8.784  19.821  0.00  0.00    +0.000 S 
BRANCH  20  21
ATOM     21  C   UNL     1       1.332  10.528  19.396  0.00  0.00    +0.000 C 
BRANCH  21  22
ATOM     22  C   UNL     1       0.104  11.129  18.729  0.00  0.00    +0.000 C 
ATOM     23  O   UNL     1       0.010  12.346  18.573  0.00  0.00    +0.000 OA
ATOM     24  N   UNL     1      -0.870  10.200  18.399  0.00  0.00    +0.000 N 
ATOM     25  H   UNL     1      -0.801   9.282  18.835  0.00  0.00    +0.000 HD
BRANCH  24  26
ATOM     26  C   UNL     1      -2.067  10.481  17.701  0.00  0.00    +0.000 A 
ATOM     27  C   UNL     1      -2.269  10.122  16.363  0.00  0.00    +0.000 A 
ATOM     28  C   UNL     1      -3.450  10.465  15.701  0.00  0.00    +0.000 A 
ATOM     29  C   UNL     1      -4.444  11.172  16.373  0.00  0.00    +0.000 A 
ATOM     30  C   UNL     1      -4.262  11.500  17.715  0.00  0.00    +0.000 A 
ATOM     31 CL   UNL     1      -5.489  12.376  18.546  0.00  0.00    +0.000 Cl
ATOM     32  C   UNL     1      -3.089  11.142  18.386  0.00  0.00    +0.000 A 
ENDBRANCH  24  26
ENDBRANCH  21  22
ENDBRANCH  20  21
ENDBRANCH   4  20
TORSDOF 7
ENDMDL
MODEL 6
REMARK VINA RESULT:      -8.0      2.306      3.839
REMARK  Name = 
REMARK  8 active torsions:
REMARK  status: ('A' for Active; 'I' for Inactive)
REMARK    1  A    between atoms: C_1  and  N_2
REMARK    2  A    between atoms: C_6  and  C_7
REMARK    3  A    between atoms: C_7  and  C_8
REMARK    4  A    between atoms: C_11  and  S_12
REMARK    5  A    between atoms: S_12  and  C_13
REMARK    6  A    between atoms: C_13  and  C_14
REMARK    7  A    between atoms: N_16  and  C_17
REMARK    8  A    between atoms: N_24  and  C_25
REMARK                            x       y       z     vdW  Elec       q    Type
REMARK                         _______ _______ _______ _____ _____    ______ ____
ROOT
ATOM      1  C   UNL     1       3.660   7.250  17.375  0.00  0.00    +0.000 A 
ATOM      2  N   UNL     1       3.186   8.475  17.552  0.00  0.00    +0.000 NA
ATOM      3  N   UNL     1       2.421   8.493  18.677  0.00  0.00    +0.000 NA
ATOM      4  C   UNL     1       2.434   7.285  19.188  0.00  0.00    +0.000 A 
ATOM      5  N   UNL     1       3.158   6.417  18.381  0.00  0.00    +0.000 N 
ENDROOT
BRANCH   5   6
ATOM      6  C   UNL     1       3.235   4.994  18.436  0.00  0.00    +0.000 A 
ATOM      7  C   UNL     1       2.390   4.208  17.636  0.00  0.00    +0.000 A 
ATOM      8  C   UNL     1       2.592   2.829  17.547  0.00  0.00    +0.000 A 
ATOM      9  C   UNL     1       3.634   2.237  18.246  0.00  0.00    +0.000 A 
ATOM     10  F   UNL     1       3.868   0.927  18.102  0.00  0.00    +0.000 F 
ATOM     11  C   UNL     1       4.444   2.990  19.082  0.00  0.00    +0.000 A 
ATOM     12  C   UNL     1       4.228   4.365  19.198  0.00  0.00    +0.000 A 
ENDBRANCH   5   6
BRANCH   1  13
ATOM     13  C   UNL     1       4.384   6.831  16.132  0.00  0.00    +0.000 C 
BRANCH  13  19
ATOM     14  C   UNL     1       7.089   6.732  17.825  0.00  0.00    +0.000 C 
ATOM     15  N   UNL     1       6.593   5.721  16.916  0.00  0.00    +0.000 N 
ATOM     16  C   UNL     1       7.292   4.568  16.637  0.00  0.00    +0.000 A 
ATOM     17  C   UNL     1       6.516   3.774  15.830  0.00  0.00    +0.000 A 
ATOM     18  C   UNL     1       5.325   4.483  15.578  0.00  0.00    +0.000 A 
ATOM     19  C   UNL     1       5.392   5.711  16.230  0.00  0.00    +0.000 A 
ENDBRANCH  13  19
ENDBRANCH   1  13
BRANCH   4  20
ATOM     20  S   UNL     1       1.734   6.912  20.729  0.00  0.00    +0.000 S 
BRANCH  20  21
ATOM     21  C   UNL     1       1.464   8.586  21.387  0.00  0.00    +0.000 C 
BRANCH  21  22
ATOM     22  C   UNL     1       0.087   9.099  20.997  0.00  0.00    +0.000 C 
ATOM     23  O   UNL     1      -0.914   8.736  21.614  0.00  0.00    +0.000 OA
ATOM     24  N   UNL     1       0.087   9.925  19.884  0.00  0.00    +0.000 N 
ATOM     25  H   UNL     1       0.921   9.914  19.300  0.00  0.00    +0.000 HD
BRANCH  24  26
ATOM     26  C   UNL     1      -1.043  10.598  19.363  0.00  0.00    +0.000 A 
ATOM     27  C   UNL     1      -1.670  11.657  20.028  0.00  0.00    +0.000 A 
ATOM     28  C   UNL     1      -2.814  12.259  19.496  0.00  0.00    +0.000 A 
ATOM     29  C   UNL     1      -3.340  11.805  18.290  0.00  0.00    +0.000 A 
ATOM     30  C   UNL     1      -2.698  10.775  17.607  0.00  0.00    +0.000 A 
ATOM     31 CL   UNL     1      -3.351  10.212  16.116  0.00  0.00    +0.000 Cl
ATOM     32  C   UNL     1      -1.544  10.183  18.126  0.00  0.00    +0.000 A 
ENDBRANCH  24  26
ENDBRANCH  21  22
ENDBRANCH  20  21
ENDBRANCH   4  20
TORSDOF 7
ENDMDL
MODEL 7
REMARK VINA RESULT:      -7.9      2.705      4.313
REMARK  Name = 
REMARK  8 active torsions:
REMARK  status: ('A' for Active; 'I' for Inactive)
REMARK    1  A    between atoms: C_1  and  N_2
REMARK    2  A    between atoms: C_6  and  C_7
REMARK    3  A    between atoms: C_7  and  C_8
REMARK    4  A    between atoms: C_11  and  S_12
REMARK    5  A    between atoms: S_12  and  C_13
REMARK    6  A    between atoms: C_13  and  C_14
REMARK    7  A    between atoms: N_16  and  C_17
REMARK    8  A    between atoms: N_24  and  C_25
REMARK                            x       y       z     vdW  Elec       q    Type
REMARK                         _______ _______ _______ _____ _____    ______ ____
ROOT
ATOM      1  C   UNL     1       3.646   7.152  17.702  0.00  0.00    +0.000 A 
ATOM      2  N   UNL     1       3.110   8.363  17.773  0.00  0.00    +0.000 NA
ATOM      3  N   UNL     1       2.162   8.368  18.749  0.00  0.00    +0.000 NA
ATOM      4  C   UNL     1       2.125   7.167  19.276  0.00  0.00    +0.000 A 
ATOM      5  N   UNL     1       3.005   6.315  18.622  0.00  0.00    +0.000 N 
ENDROOT
BRANCH   5   6
ATOM      6  C   UNL     1       3.116   4.896  18.714  0.00  0.00    +0.000 A 
ATOM      7  C   UNL     1       2.343   4.069  17.883  0.00  0.00    +0.000 A 
ATOM      8  C   UNL     1       2.588   2.695  17.839  0.00  0.00    +0.000 A 
ATOM      9  C   UNL     1       3.600   2.148  18.613  0.00  0.00    +0.000 A 
ATOM     10  F   UNL     1       3.877   0.842  18.515  0.00  0.00    +0.000 F 
ATOM     11  C   UNL     1       4.336   2.942  19.480  0.00  0.00    +0.000 A 
ATOM     12  C   UNL     1       4.076   4.312  19.551  0.00  0.00    +0.000 A 
ENDBRANCH   5   6
BRANCH   1  13
ATOM     13  C   UNL     1       4.586   6.743  16.610  0.00  0.00    +0.000 C 
BRANCH  13  19
ATOM     14  C   UNL     1       5.636   3.870  15.696  0.00  0.00    +0.000 C 
ATOM     15  N   UNL     1       6.269   4.769  16.637  0.00  0.00    +0.000 N 
ATOM     16  C   UNL     1       7.428   4.447  17.305  0.00  0.00    +0.000 A 
ATOM     17  C   UNL     1       7.827   5.539  18.036  0.00  0.00    +0.000 A 
ATOM     18  C   UNL     1       6.857   6.542  17.838  0.00  0.00    +0.000 A 
ATOM     19  C   UNL     1       5.871   6.045  16.991  0.00  0.00    +0.000 A 
ENDBRANCH  13  19
ENDBRANCH   1  13
BRANCH   4  20
ATOM     20  S   UNL     1       1.182   6.789  20.680  0.00  0.00    +0.000 S 
BRANCH  20  21
ATOM     21  C   UNL     1       1.522   8.247  21.714  0.00  0.00    +0.000 C 
BRANCH  21  22
ATOM     22  C   UNL     1       0.344   9.207  21.690  0.00  0.00    +0.000 C 
ATOM     23  O   UNL     1      -0.627   9.025  22.423  0.00  0.00    +0.000 OA
ATOM     24  N   UNL     1       0.459  10.218  20.747  0.00  0.00    +0.000 N 
ATOM     25  H   UNL     1       1.159  10.092  20.018  0.00  0.00    +0.000 HD
BRANCH  24  26
ATOM     26  C   UNL     1      -0.453  11.284  20.575  0.00  0.00    +0.000 A 
ATOM     27  C   UNL     1      -0.344  12.498  21.263  0.00  0.00    +0.000 A 
ATOM     28  C   UNL     1      -1.298  13.504  21.096  0.00  0.00    +0.000 A 
ATOM     29  C   UNL     1      -2.373  13.306  20.233  0.00  0.00    +0.000 A 
ATOM     30  C   UNL     1      -2.466  12.114  19.518  0.00  0.00    +0.000 A 
ATOM     31 CL   UNL     1      -3.796  11.866  18.453  0.00  0.00    +0.000 Cl
ATOM     32  C   UNL     1      -1.504  11.112  19.669  0.00  0.00    +0.000 A 
ENDBRANCH  24  26
ENDBRANCH  21  22
ENDBRANCH  20  21
ENDBRANCH   4  20
TORSDOF 7
ENDMDL
MODEL 8
REMARK VINA RESULT:      -7.9      4.300      8.833
REMARK  Name = 
REMARK  8 active torsions:
REMARK  status: ('A' for Active; 'I' for Inactive)
REMARK    1  A    between atoms: C_1  and  N_2
REMARK    2  A    between atoms: C_6  and  C_7
REMARK    3  A    between atoms: C_7  and  C_8
REMARK    4  A    between atoms: C_11  and  S_12
REMARK    5  A    between atoms: S_12  and  C_13
REMARK    6  A    between atoms: C_13  and  C_14
REMARK    7  A    between atoms: N_16  and  C_17
REMARK    8  A    between atoms: N_24  and  C_25
REMARK                            x       y       z     vdW  Elec       q    Type
REMARK                         _______ _______ _______ _____ _____    ______ ____
ROOT
ATOM      1  C   UNL     1       1.034  12.665  19.847  0.00  0.00    +0.000 A 
ATOM      2  N   UNL     1       1.518  13.204  20.957  0.00  0.00    +0.000 NA
ATOM      3  N   UNL     1       0.800  12.746  22.018  0.00  0.00    +0.000 NA
ATOM      4  C   UNL     1      -0.115  11.927  21.557  0.00  0.00    +0.000 A 
ATOM      5  N   UNL     1      -0.068  11.866  20.171  0.00  0.00    +0.000 N 
ENDROOT
BRANCH   5   6
ATOM      6  C   UNL     1      -1.008  11.292  19.265  0.00  0.00    +0.000 A 
ATOM      7  C   UNL     1      -2.264  11.889  19.074  0.00  0.00    +0.000 A 
ATOM      8  C   UNL     1      -3.107  11.441  18.054  0.00  0.00    +0.000 A 
ATOM      9  C   UNL     1      -2.697  10.407  17.226  0.00  0.00    +0.000 A 
ATOM     10  F   UNL     1      -3.477  10.028  16.205  0.00  0.00    +0.000 F 
ATOM     11  C   UNL     1      -1.484   9.770  17.434  0.00  0.00    +0.000 A 
ATOM     12  C   UNL     1      -0.650  10.194  18.471  0.00  0.00    +0.000 A 
ENDBRANCH   5   6
BRANCH   1  13
ATOM     13  C   UNL     1       1.466  13.097  18.479  0.00  0.00    +0.000 C 
BRANCH  13  19
ATOM     14  C   UNL     1       0.273  16.028  18.904  0.00  0.00    +0.000 C 
ATOM     15  N   UNL     1       1.606  15.687  18.454  0.00  0.00    +0.000 N 
ATOM     16  C   UNL     1       2.534  16.639  18.102  0.00  0.00    +0.000 A 
ATOM     17  C   UNL     1       3.721  16.008  17.823  0.00  0.00    +0.000 A 
ATOM     18  C   UNL     1       3.494  14.625  17.971  0.00  0.00    +0.000 A 
ATOM     19  C   UNL     1       2.165  14.429  18.333  0.00  0.00    +0.000 A 
ENDBRANCH  13  19
ENDBRANCH   1  13
BRANCH   4  20
ATOM     20  S   UNL     1      -1.130  10.978  22.593  0.00  0.00    +0.000 S 
BRANCH  20  21
ATOM     21  C   UNL     1       0.014   9.638  23.045  0.00  0.00    +0.000 C 
BRANCH  21  22
ATOM     22  C   UNL     1       0.136   8.632  21.911  0.00  0.00    +0.000 C 
ATOM     23  O   UNL     1      -0.855   8.034  21.496  0.00  0.00    +0.000 OA
ATOM     24  N   UNL     1       1.436   8.432  21.473  0.00  0.00    +0.000 N 
ATOM     25  H   UNL     1       2.185   8.761  22.080  0.00  0.00    +0.000 HD
BRANCH  24  26
ATOM     26  C   UNL     1       1.816   7.616  20.382  0.00  0.00    +0.000 A 
ATOM     27  C   UNL     1       2.122   8.130  19.118  0.00  0.00    +0.000 A 
ATOM     28  C   UNL     1       2.444   7.279  18.057  0.00  0.00    +0.000 A 
ATOM     29  C   UNL     1       2.466   5.901  18.255  0.00  0.00    +0.000 A 
ATOM     30  C   UNL     1       2.198   5.387  19.521  0.00  0.00    +0.000 A 
ATOM     31 CL   UNL     1       2.222   3.682  19.766  0.00  0.00    +0.000 Cl
ATOM     32  C   UNL     1       1.892   6.236  20.589  0.00  0.00    +0.000 A 
ENDBRANCH  24  26
ENDBRANCH  21  22
ENDBRANCH  20  21
ENDBRANCH   4  20
TORSDOF 7
ENDMDL
MODEL 9
REMARK VINA RESULT:      -7.8      4.318      9.366
REMARK  Name = 
REMARK  8 active torsions:
REMARK  status: ('A' for Active; 'I' for Inactive)
REMARK    1  A    between atoms: C_1  and  N_2
REMARK    2  A    between atoms: C_6  and  C_7
REMARK    3  A    between atoms: C_7  and  C_8
REMARK    4  A    between atoms: C_11  and  S_12
REMARK    5  A    between atoms: S_12  and  C_13
REMARK    6  A    between atoms: C_13  and  C_14
REMARK    7  A    between atoms: N_16  and  C_17
REMARK    8  A    between atoms: N_24  and  C_25
REMARK                            x       y       z     vdW  Elec       q    Type
REMARK                         _______ _______ _______ _____ _____    ______ ____
ROOT
ATOM      1  C   UNL     1       0.528  12.540  19.465  0.00  0.00    +0.000 A 
ATOM      2  N   UNL     1       1.309  12.604  20.535  0.00  0.00    +0.000 NA
ATOM      3  N   UNL     1       1.098  11.498  21.299  0.00  0.00    +0.000 NA
ATOM      4  C   UNL     1       0.197  10.760  20.695  0.00  0.00    +0.000 A 
ATOM      5  N   UNL     1      -0.260  11.386  19.543  0.00  0.00    +0.000 N 
ENDROOT
BRANCH   5   6
ATOM      6  C   UNL     1      -1.380  11.054  18.725  0.00  0.00    +0.000 A 
ATOM      7  C   UNL     1      -2.600  11.730  18.886  0.00  0.00    +0.000 A 
ATOM      8  C   UNL     1      -3.633  11.541  17.965  0.00  0.00    +0.000 A 
ATOM      9  C   UNL     1      -3.450  10.687  16.888  0.00  0.00    +0.000 A 
ATOM     10  F   UNL     1      -4.416  10.563  15.970  0.00  0.00    +0.000 F 
ATOM     11  C   UNL     1      -2.272   9.970  16.744  0.00  0.00    +0.000 A 
ATOM     12  C   UNL     1      -1.246  10.133  17.678  0.00  0.00    +0.000 A 
ENDBRANCH   5   6
BRANCH   1  13
ATOM     13  C   UNL     1       0.366  13.682  18.509  0.00  0.00    +0.000 C 
BRANCH  13  19
ATOM     14  C   UNL     1       2.727  15.827  18.627  0.00  0.00    +0.000 C 
ATOM     15  N   UNL     1       1.393  15.971  19.167  0.00  0.00    +0.000 N 
ATOM     16  C   UNL     1       0.991  17.088  19.864  0.00  0.00    +0.000 A 
ATOM     17  C   UNL     1      -0.346  16.966  20.149  0.00  0.00    +0.000 A 
ATOM     18  C   UNL     1      -0.761  15.717  19.646  0.00  0.00    +0.000 A 
ATOM     19  C   UNL     1       0.335  15.086  19.064  0.00  0.00    +0.000 A 
ENDBRANCH  13  19
ENDBRANCH   1  13
BRANCH   4  20
ATOM     20  S   UNL     1      -0.229   9.171  21.238  0.00  0.00    +0.000 S 
BRANCH  20  21
ATOM     21  C   UNL     1       1.421   8.434  21.445  0.00  0.00    +0.000 C 
BRANCH  21  22
ATOM     22  C   UNL     1       1.861   7.738  20.167  0.00  0.00    +0.000 C 
ATOM     23  O   UNL     1       1.843   8.335  19.091  0.00  0.00    +0.000 OA
ATOM     24  N   UNL     1       2.200   6.405  20.339  0.00  0.00    +0.000 N 
ATOM     25  H   UNL     1       1.899   5.959  21.204  0.00  0.00    +0.000 HD
BRANCH  24  26
ATOM     26  C   UNL     1       2.717   5.555  19.334  0.00  0.00    +0.000 A 
ATOM     27  C   UNL     1       1.905   4.748  18.529  0.00  0.00    +0.000 A 
ATOM     28  C   UNL     1       2.465   3.887  17.582  0.00  0.00    +0.000 A 
ATOM     29  C   UNL     1       3.848   3.828  17.429  0.00  0.00    +0.000 A 
ATOM     30  C   UNL     1       4.658   4.656  18.202  0.00  0.00    +0.000 A 
ATOM     31 CL   UNL     1       6.368   4.582  18.016  0.00  0.00    +0.000 Cl
ATOM     32  C   UNL     1       4.100   5.532  19.138  0.00  0.00    +0.000 A 
ENDBRANCH  24  26
ENDBRANCH  21  22
ENDBRANCH  20  21
ENDBRANCH   4  20
TORSDOF 7
ENDMDL
