MODEL 1
REMARK VINA RESULT:      -8.4      0.000      0.000
REMARK  Name = 
REMARK  3 active torsions:
REMARK  status: ('A' for Active; 'I' for Inactive)
REMARK    1  A    between atoms: C_1  and  C_2
REMARK    2  A    between atoms: C_6  and  C_7
REMARK    3  A    between atoms: N_9  and  N_10
REMARK                            x       y       z     vdW  Elec       q    Type
REMARK                         _______ _______ _______ _____ _____    ______ ____
ROOT
ATOM      1  N   UNL     1       5.210   4.441  17.447  0.00  0.00    +0.000 NA
ATOM      2  C   UNL     1       4.109   4.042  18.014  0.00  0.00    +0.000 C 
ATOM      3  C   UNL     1       2.898   3.406  17.337  0.00  0.00    +0.000 C 
ATOM      4  C   UNL     1       2.684   2.033  17.989  0.00  0.00    +0.000 C 
ATOM      5  C   UNL     1       2.438   2.188  19.500  0.00  0.00    +0.000 C 
ATOM      6  C   UNL     1       1.214   3.091  19.723  0.00  0.00    +0.000 C 
ATOM      7  C   UNL     1       1.463   4.481  19.115  0.00  0.00    +0.000 C 
ATOM      8  C   UNL     1       1.704   4.334  17.602  0.00  0.00    +0.000 C 
ATOM      9  C   UNL     1       2.713   5.112  19.762  0.00  0.00    +0.000 C 
ATOM     10  C   UNL     1       3.940   4.217  19.529  0.00  0.00    +0.000 C 
ATOM     11  C   UNL     1       3.682   2.833  20.143  0.00  0.00    +0.000 C 
ENDROOT
BRANCH   1  14
ATOM     12  C   UNL     1       6.602   4.449  15.485  0.00  0.00    +0.000 C 
ATOM     13  O   UNL     1       7.630   4.734  16.089  0.00  0.00    +0.000 OA
ATOM     14  N   UNL     1       5.365   4.288  16.096  0.00  0.00    +0.000 N 
ATOM     15  H   UNL     1       4.573   4.034  15.538  0.00  0.00    +0.000 HD
BRANCH  12  21
ATOM     16  C   UNL     1       8.535   5.801  12.997  0.00  0.00    +0.000 C 
ATOM     17  C   UNL     1       7.428   4.821  13.039  0.00  0.00    +0.000 A 
ATOM     18  O   UNL     1       7.085   4.332  11.809  0.00  0.00    +0.000 OA
ATOM     19  C   UNL     1       6.072   3.454  11.982  0.00  0.00    +0.000 A 
ATOM     20  C   UNL     1       5.751   3.366  13.312  0.00  0.00    +0.000 A 
ATOM     21  C   UNL     1       6.627   4.255  14.026  0.00  0.00    +0.000 A 
ENDBRANCH  12  21
ENDBRANCH   1  14
TORSDOF 2
ENDMDL
MODEL 2
REMARK VINA RESULT:      -8.1      2.995      3.930
REMARK  Name = 
REMARK  3 active torsions:
REMARK  status: ('A' for Active; 'I' for Inactive)
REMARK    1  A    between atoms: C_1  and  C_2
REMARK    2  A    between atoms: C_6  and  C_7
REMARK    3  A    between atoms: N_9  and  N_10
REMARK                            x       y       z     vdW  Elec       q    Type
REMARK                         _______ _______ _______ _____ _____    ______ ____
ROOT
ATOM      1  N   UNL     1       5.134   3.751  19.374  0.00  0.00    +0.000 NA
ATOM      2  C   UNL     1       3.846   3.598  19.470  0.00  0.00    +0.000 C 
ATOM      3  C   UNL     1       2.762   4.534  18.942  0.00  0.00    +0.000 C 
ATOM      4  C   UNL     1       1.892   3.720  17.974  0.00  0.00    +0.000 C 
ATOM      5  C   UNL     1       1.261   2.519  18.700  0.00  0.00    +0.000 C 
ATOM      6  C   UNL     1       0.424   3.027  19.886  0.00  0.00    +0.000 C 
ATOM      7  C   UNL     1       1.317   3.792  20.875  0.00  0.00    +0.000 C 
ATOM      8  C   UNL     1       1.947   5.000  20.157  0.00  0.00    +0.000 C 
ATOM      9  C   UNL     1       2.443   2.866  21.379  0.00  0.00    +0.000 C 
ATOM     10  C   UNL     1       3.289   2.368  20.197  0.00  0.00    +0.000 C 
ATOM     11  C   UNL     1       2.387   1.602  19.216  0.00  0.00    +0.000 C 
ENDROOT
BRANCH   1  14
ATOM     12  C   UNL     1       6.784   5.490  19.173  0.00  0.00    +0.000 C 
ATOM     13  O   UNL     1       7.427   5.136  20.156  0.00  0.00    +0.000 OA
ATOM     14  N   UNL     1       5.635   4.847  18.728  0.00  0.00    +0.000 N 
ATOM     15  H   UNL     1       5.177   5.182  17.903  0.00  0.00    +0.000 HD
BRANCH  12  21
ATOM     16  C   UNL     1       5.683   6.821  16.211  0.00  0.00    +0.000 C 
ATOM     17  C   UNL     1       6.745   7.173  17.180  0.00  0.00    +0.000 A 
ATOM     18  O   UNL     1       7.459   8.283  16.828  0.00  0.00    +0.000 OA
ATOM     19  C   UNL     1       8.388   8.497  17.787  0.00  0.00    +0.000 A 
ATOM     20  C   UNL     1       8.285   7.537  18.760  0.00  0.00    +0.000 A 
ATOM     21  C   UNL     1       7.214   6.656  18.384  0.00  0.00    +0.000 A 
ENDBRANCH  12  21
ENDBRANCH   1  14
TORSDOF 2
ENDMDL
MODEL 3
REMARK VINA RESULT:      -7.9      4.926      7.970
REMARK  Name = 
REMARK  3 active torsions:
REMARK  status: ('A' for Active; 'I' for Inactive)
REMARK    1  A    between atoms: C_1  and  C_2
REMARK    2  A    between atoms: C_6  and  C_7
REMARK    3  A    between atoms: N_9  and  N_10
REMARK                            x       y       z     vdW  Elec       q    Type
REMARK                         _______ _______ _______ _____ _____    ______ ____
ROOT
ATOM      1  N   UNL     1       2.566   6.754  19.619  0.00  0.00    +0.000 NA
ATOM      2  C   UNL     1       2.392   5.465  19.655  0.00  0.00    +0.000 C 
ATOM      3  C   UNL     1       1.548   4.673  20.650  0.00  0.00    +0.000 C 
ATOM      4  C   UNL     1       0.501   3.897  19.839  0.00  0.00    +0.000 C 
ATOM      5  C   UNL     1       1.190   2.950  18.840  0.00  0.00    +0.000 C 
ATOM      6  C   UNL     1       2.106   1.983  19.609  0.00  0.00    +0.000 C 
ATOM      7  C   UNL     1       3.185   2.770  20.372  0.00  0.00    +0.000 C 
ATOM      8  C   UNL     1       2.502   3.716  21.378  0.00  0.00    +0.000 C 
ATOM      9  C   UNL     1       4.013   3.609  19.379  0.00  0.00    +0.000 C 
ATOM     10  C   UNL     1       3.101   4.584  18.618  0.00  0.00    +0.000 C 
ATOM     11  C   UNL     1       2.030   3.788  17.857  0.00  0.00    +0.000 C 
ENDROOT
BRANCH   1  14
ATOM     12  C   UNL     1       1.297   8.721  20.176  0.00  0.00    +0.000 C 
ATOM     13  O   UNL     1       1.246   9.140  19.024  0.00  0.00    +0.000 OA
ATOM     14  N   UNL     1       1.936   7.543  20.543  0.00  0.00    +0.000 N 
ATOM     15  H   UNL     1       1.917   7.255  21.502  0.00  0.00    +0.000 HD
BRANCH  12  21
ATOM     16  C   UNL     1       1.009  12.075  20.823  0.00  0.00    +0.000 C 
ATOM     17  C   UNL     1       0.559  10.841  21.504  0.00  0.00    +0.000 A 
ATOM     18  O   UNL     1      -0.132  11.076  22.659  0.00  0.00    +0.000 OA
ATOM     19  C   UNL     1      -0.486   9.879  23.179  0.00  0.00    +0.000 A 
ATOM     20  C   UNL     1      -0.030   8.867  22.374  0.00  0.00    +0.000 A 
ATOM     21  C   UNL     1       0.660   9.473  21.269  0.00  0.00    +0.000 A 
ENDBRANCH  12  21
ENDBRANCH   1  14
TORSDOF 2
ENDMDL
MODEL 4
REMARK VINA RESULT:      -7.7      2.873      4.409
REMARK  Name = 
REMARK  3 active torsions:
REMARK  status: ('A' for Active; 'I' for Inactive)
REMARK    1  A    between atoms: C_1  and  C_2
REMARK    2  A    between atoms: C_6  and  C_7
REMARK    3  A    between atoms: N_9  and  N_10
REMARK                            x       y       z     vdW  Elec       q    Type
REMARK                         _______ _______ _______ _____ _____    ______ ____
ROOT
ATOM      1  N   UNL     1       4.185   5.090  17.199  0.00  0.00    +0.000 NA
ATOM      2  C   UNL     1       3.460   4.359  17.995  0.00  0.00    +0.000 C 
ATOM      3  C   UNL     1       3.629   4.187  19.502  0.00  0.00    +0.000 C 
ATOM      4  C   UNL     1       2.314   4.629  20.159  0.00  0.00    +0.000 C 
ATOM      5  C   UNL     1       1.143   3.773  19.646  0.00  0.00    +0.000 C 
ATOM      6  C   UNL     1       1.428   2.292  19.947  0.00  0.00    +0.000 C 
ATOM      7  C   UNL     1       2.717   1.847  19.237  0.00  0.00    +0.000 C 
ATOM      8  C   UNL     1       3.895   2.695  19.751  0.00  0.00    +0.000 C 
ATOM      9  C   UNL     1       2.571   2.061  17.717  0.00  0.00    +0.000 C 
ATOM     10  C   UNL     1       2.299   3.542  17.413  0.00  0.00    +0.000 C 
ATOM     11  C   UNL     1       1.007   3.976  18.124  0.00  0.00    +0.000 C 
ENDROOT
BRANCH   1  14
ATOM     12  C   UNL     1       5.967   6.681  16.919  0.00  0.00    +0.000 C 
ATOM     13  O   UNL     1       5.762   6.855  15.722  0.00  0.00    +0.000 OA
ATOM     14  N   UNL     1       5.222   5.819  17.713  0.00  0.00    +0.000 N 
ATOM     15  H   UNL     1       5.435   5.746  18.689  0.00  0.00    +0.000 HD
BRANCH  12  21
ATOM     16  C   UNL     1       8.220   5.750  19.329  0.00  0.00    +0.000 C 
ATOM     17  C   UNL     1       7.955   6.996  18.578  0.00  0.00    +0.000 A 
ATOM     18  O   UNL     1       8.794   8.023  18.910  0.00  0.00    +0.000 OA
ATOM     19  C   UNL     1       8.452   9.094  18.160  0.00  0.00    +0.000 A 
ATOM     20  C   UNL     1       7.398   8.776  17.343  0.00  0.00    +0.000 A 
ATOM     21  C   UNL     1       7.053   7.404  17.599  0.00  0.00    +0.000 A 
ENDBRANCH  12  21
ENDBRANCH   1  14
TORSDOF 2
ENDMDL
MODEL 5
REMARK VINA RESULT:      -7.7      4.374      7.056
REMARK  Name = 
REMARK  3 active torsions:
REMARK  status: ('A' for Active; 'I' for Inactive)
REMARK    1  A    between atoms: C_1  and  C_2
REMARK    2  A    between atoms: C_6  and  C_7
REMARK    3  A    between atoms: N_9  and  N_10
REMARK                            x       y       z     vdW  Elec       q    Type
REMARK                         _______ _______ _______ _____ _____    ______ ____
ROOT
ATOM      1  N   UNL     1       3.279   6.821  18.536  0.00  0.00    +0.000 NA
ATOM      2  C   UNL     1       3.165   5.525  18.577  0.00  0.00    +0.000 C 
ATOM      3  C   UNL     1       2.006   4.717  19.154  0.00  0.00    +0.000 C 
ATOM      4  C   UNL     1       1.457   3.840  18.020  0.00  0.00    +0.000 C 
ATOM      5  C   UNL     1       2.555   2.903  17.486  0.00  0.00    +0.000 C 
ATOM      6  C   UNL     1       3.083   2.032  18.637  0.00  0.00    +0.000 C 
ATOM      7  C   UNL     1       3.682   2.921  19.741  0.00  0.00    +0.000 C 
ATOM      8  C   UNL     1       2.586   3.856  20.285  0.00  0.00    +0.000 C 
ATOM      9  C   UNL     1       4.824   3.775  19.155  0.00  0.00    +0.000 C 
ATOM     10  C   UNL     1       4.295   4.655  18.012  0.00  0.00    +0.000 C 
ATOM     11  C   UNL     1       3.703   3.758  16.913  0.00  0.00    +0.000 C 
ENDROOT
BRANCH   1  14
ATOM     12  C   UNL     1       1.862   8.760  18.395  0.00  0.00    +0.000 C 
ATOM     13  O   UNL     1       2.353   9.170  17.348  0.00  0.00    +0.000 OA
ATOM     14  N   UNL     1       2.274   7.600  19.040  0.00  0.00    +0.000 N 
ATOM     15  H   UNL     1       1.810   7.318  19.882  0.00  0.00    +0.000 HD
BRANCH  12  21
ATOM     16  C   UNL     1       1.074   9.319  21.684  0.00  0.00    +0.000 C 
ATOM     17  C   UNL     1       0.477   9.713  20.389  0.00  0.00    +0.000 A 
ATOM     18  O   UNL     1      -0.649  10.477  20.517  0.00  0.00    +0.000 OA
ATOM     19  C   UNL     1      -1.092  10.770  19.274  0.00  0.00    +0.000 A 
ATOM     20  C   UNL     1      -0.266  10.203  18.337  0.00  0.00    +0.000 A 
ATOM     21  C   UNL     1       0.771   9.504  19.045  0.00  0.00    +0.000 A 
ENDBRANCH  12  21
ENDBRANCH   1  14
TORSDOF 2
ENDMDL
MODEL 6
REMARK VINA RESULT:      -7.7      4.550      7.163
REMARK  Name = 
REMARK  3 active torsions:
REMARK  status: ('A' for Active; 'I' for Inactive)
REMARK    1  A    between atoms: C_1  and  C_2
REMARK    2  A    between atoms: C_6  and  C_7
REMARK    3  A    between atoms: N_9  and  N_10
REMARK                            x       y       z     vdW  Elec       q    Type
REMARK                         _______ _______ _______ _____ _____    ______ ____
ROOT
ATOM      1  N   UNL     1       3.185   7.004  18.453  0.00  0.00    +0.000 NA
ATOM      2  C   UNL     1       3.106   5.708  18.531  0.00  0.00    +0.000 C 
ATOM      3  C   UNL     1       2.015   4.888  19.215  0.00  0.00    +0.000 C 
ATOM      4  C   UNL     1       1.402   3.971  18.148  0.00  0.00    +0.000 C 
ATOM      5  C   UNL     1       2.478   3.047  17.551  0.00  0.00    +0.000 C 
ATOM      6  C   UNL     1       3.114   2.217  18.678  0.00  0.00    +0.000 C 
ATOM      7  C   UNL     1       3.774   3.145  19.711  0.00  0.00    +0.000 C 
ATOM      8  C   UNL     1       2.702   4.069  20.317  0.00  0.00    +0.000 C 
ATOM      9  C   UNL     1       4.847   4.010  19.019  0.00  0.00    +0.000 C 
ATOM     10  C   UNL     1       4.210   4.850  17.900  0.00  0.00    +0.000 C 
ATOM     11  C   UNL     1       3.557   3.913  16.872  0.00  0.00    +0.000 C 
ENDROOT
BRANCH   1  14
ATOM     12  C   UNL     1       1.753   8.937  18.403  0.00  0.00    +0.000 C 
ATOM     13  O   UNL     1       2.188   9.359  17.337  0.00  0.00    +0.000 OA
ATOM     14  N   UNL     1       2.204   7.773  19.015  0.00  0.00    +0.000 N 
ATOM     15  H   UNL     1       1.785   7.480  19.876  0.00  0.00    +0.000 HD
BRANCH  12  21
ATOM     16  C   UNL     1      -1.350  10.036  17.449  0.00  0.00    +0.000 C 
ATOM     17  C   UNL     1      -0.562  10.101  18.699  0.00  0.00    +0.000 A 
ATOM     18  O   UNL     1      -1.206  10.745  19.718  0.00  0.00    +0.000 OA
ATOM     19  C   UNL     1      -0.388  10.735  20.794  0.00  0.00    +0.000 A 
ATOM     20  C   UNL     1       0.783  10.092  20.486  0.00  0.00    +0.000 A 
ATOM     21  C   UNL     1       0.693   9.668  19.116  0.00  0.00    +0.000 A 
ENDBRANCH  12  21
ENDBRANCH   1  14
TORSDOF 2
ENDMDL
MODEL 7
REMARK VINA RESULT:      -7.6      5.108      7.125
REMARK  Name = 
REMARK  3 active torsions:
REMARK  status: ('A' for Active; 'I' for Inactive)
REMARK    1  A    between atoms: C_1  and  C_2
REMARK    2  A    between atoms: C_6  and  C_7
REMARK    3  A    between atoms: N_9  and  N_10
REMARK                            x       y       z     vdW  Elec       q    Type
REMARK                         _______ _______ _______ _____ _____    ______ ____
ROOT
ATOM      1  N   UNL     1       1.787   5.937  20.962  0.00  0.00    +0.000 NA
ATOM      2  C   UNL     1       2.095   4.984  20.131  0.00  0.00    +0.000 C 
ATOM      3  C   UNL     1       2.489   5.129  18.663  0.00  0.00    +0.000 C 
ATOM      4  C   UNL     1       3.884   4.507  18.506  0.00  0.00    +0.000 C 
ATOM      5  C   UNL     1       3.859   3.023  18.915  0.00  0.00    +0.000 C 
ATOM      6  C   UNL     1       2.832   2.276  18.049  0.00  0.00    +0.000 C 
ATOM      7  C   UNL     1       1.430   2.872  18.259  0.00  0.00    +0.000 C 
ATOM      8  C   UNL     1       1.445   4.355  17.845  0.00  0.00    +0.000 C 
ATOM      9  C   UNL     1       1.042   2.772  19.748  0.00  0.00    +0.000 C 
ATOM     10  C   UNL     1       2.061   3.529  20.614  0.00  0.00    +0.000 C 
ATOM     11  C   UNL     1       3.457   2.923  20.400  0.00  0.00    +0.000 C 
ENDROOT
BRANCH   1  14
ATOM     12  C   UNL     1       0.816   8.137  20.886  0.00  0.00    +0.000 C 
ATOM     13  O   UNL     1      -0.147   7.848  21.589  0.00  0.00    +0.000 OA
ATOM     14  N   UNL     1       1.814   7.237  20.534  0.00  0.00    +0.000 N 
ATOM     15  H   UNL     1       2.582   7.552  19.974  0.00  0.00    +0.000 HD
BRANCH  12  21
ATOM     16  C   UNL     1       1.556   9.351  17.766  0.00  0.00    +0.000 C 
ATOM     17  C   UNL     1       1.271   9.965  19.082  0.00  0.00    +0.000 A 
ATOM     18  O   UNL     1       1.306  11.331  19.065  0.00  0.00    +0.000 OA
ATOM     19  C   UNL     1       1.029  11.765  20.315  0.00  0.00    +0.000 A 
ATOM     20  C   UNL     1       0.815  10.696  21.146  0.00  0.00    +0.000 A 
ATOM     21  C   UNL     1       0.969   9.503  20.359  0.00  0.00    +0.000 A 
ENDBRANCH  12  21
ENDBRANCH   1  14
TORSDOF 2
ENDMDL
MODEL 8
REMARK VINA RESULT:      -7.5      4.205      7.160
REMARK  Name = 
REMARK  3 active torsions:
REMARK  status: ('A' for Active; 'I' for Inactive)
REMARK    1  A    between atoms: C_1  and  C_2
REMARK    2  A    between atoms: C_6  and  C_7
REMARK    3  A    between atoms: N_9  and  N_10
REMARK                            x       y       z     vdW  Elec       q    Type
REMARK                         _______ _______ _______ _____ _____    ______ ____
ROOT
ATOM      1  N   UNL     1       3.417   6.077  19.984  0.00  0.00    +0.000 NA
ATOM      2  C   UNL     1       3.051   4.967  19.412  0.00  0.00    +0.000 C 
ATOM      3  C   UNL     1       1.625   4.469  19.188  0.00  0.00    +0.000 C 
ATOM      4  C   UNL     1       1.449   4.267  17.676  0.00  0.00    +0.000 C 
ATOM      5  C   UNL     1       2.469   3.242  17.149  0.00  0.00    +0.000 C 
ATOM      6  C   UNL     1       2.284   1.912  17.899  0.00  0.00    +0.000 C 
ATOM      7  C   UNL     1       2.519   2.117  19.405  0.00  0.00    +0.000 C 
ATOM      8  C   UNL     1       1.497   3.137  19.940  0.00  0.00    +0.000 C 
ATOM      9  C   UNL     1       3.942   2.664  19.637  0.00  0.00    +0.000 C 
ATOM     10  C   UNL     1       4.124   3.999  18.898  0.00  0.00    +0.000 C 
ATOM     11  C   UNL     1       3.891   3.782  17.395  0.00  0.00    +0.000 C 
ENDROOT
BRANCH   1  14
ATOM     12  C   UNL     1       2.027   8.017  19.679  0.00  0.00    +0.000 C 
ATOM     13  O   UNL     1       2.451   8.272  18.556  0.00  0.00    +0.000 OA
ATOM     14  N   UNL     1       2.462   6.942  20.445  0.00  0.00    +0.000 N 
ATOM     15  H   UNL     1       2.053   6.786  21.345  0.00  0.00    +0.000 HD
BRANCH  12  21
ATOM     16  C   UNL     1      -0.273  10.193  18.365  0.00  0.00    +0.000 C 
ATOM     17  C   UNL     1       0.073   9.745  19.731  0.00  0.00    +0.000 A 
ATOM     18  O   UNL     1      -0.691  10.322  20.706  0.00  0.00    +0.000 OA
ATOM     19  C   UNL     1      -0.280   9.832  21.897  0.00  0.00    +0.000 A 
ATOM     20  C   UNL     1       0.746   8.942  21.708  0.00  0.00    +0.000 A 
ATOM     21  C   UNL     1       0.996   8.868  20.295  0.00  0.00    +0.000 A 
ENDBRANCH  12  21
ENDBRANCH   1  14
TORSDOF 2
ENDMDL
MODEL 9
REMARK VINA RESULT:      -7.5      1.600      2.521
REMARK  Name = 
REMARK  3 active torsions:
REMARK  status: ('A' for Active; 'I' for Inactive)
REMARK    1  A    between atoms: C_1  and  C_2
REMARK    2  A    between atoms: C_6  and  C_7
REMARK    3  A    between atoms: N_9  and  N_10
REMARK                            x       y       z     vdW  Elec       q    Type
REMARK                         _______ _______ _______ _____ _____    ______ ____
ROOT
ATOM      1  N   UNL     1       4.995   3.283  19.348  0.00  0.00    +0.000 NA
ATOM      2  C   UNL     1       3.758   3.625  19.565  0.00  0.00    +0.000 C 
ATOM      3  C   UNL     1       2.945   4.679  18.818  0.00  0.00    +0.000 C 
ATOM      4  C   UNL     1       1.715   3.971  18.233  0.00  0.00    +0.000 C 
ATOM      5  C   UNL     1       0.875   3.338  19.356  0.00  0.00    +0.000 C 
ATOM      6  C   UNL     1       0.450   4.433  20.349  0.00  0.00    +0.000 C 
ATOM      7  C   UNL     1       1.691   5.095  20.970  0.00  0.00    +0.000 C 
ATOM      8  C   UNL     1       2.533   5.736  19.852  0.00  0.00    +0.000 C 
ATOM      9  C   UNL     1       2.542   4.028  21.688  0.00  0.00    +0.000 C 
ATOM     10  C   UNL     1       2.978   2.940  20.694  0.00  0.00    +0.000 C 
ATOM     11  C   UNL     1       1.731   2.283  20.083  0.00  0.00    +0.000 C 
ENDROOT
BRANCH   1  14
ATOM     12  C   UNL     1       5.432   3.617  17.006  0.00  0.00    +0.000 C 
ATOM     13  O   UNL     1       4.575   2.825  16.628  0.00  0.00    +0.000 OA
ATOM     14  N   UNL     1       5.694   3.892  18.342  0.00  0.00    +0.000 N 
ATOM     15  H   UNL     1       6.396   4.568  18.574  0.00  0.00    +0.000 HD
BRANCH  12  21
ATOM     16  C   UNL     1       7.401   6.413  17.250  0.00  0.00    +0.000 C 
ATOM     17  C   UNL     1       7.049   5.480  16.157  0.00  0.00    +0.000 A 
ATOM     18  O   UNL     1       7.637   5.790  14.964  0.00  0.00    +0.000 OA
ATOM     19  C   UNL     1       7.240   4.870  14.057  0.00  0.00    +0.000 A 
ATOM     20  C   UNL     1       6.399   3.963  14.648  0.00  0.00    +0.000 A 
ATOM     21  C   UNL     1       6.257   4.343  16.027  0.00  0.00    +0.000 A 
ENDBRANCH  12  21
ENDBRANCH   1  14
TORSDOF 2
ENDMDL
