MODEL 1
REMARK VINA RESULT:      -7.7      0.000      0.000
REMARK  Name = 
REMARK  4 active torsions:
REMARK  status: ('A' for Active; 'I' for Inactive)
REMARK    1  A    between atoms: N_5  and  C_6
REMARK    2  A    between atoms: C_6  and  C_7
REMARK    3  A    between atoms: N_13  and  C_14
REMARK    4  A    between atoms: C_14  and  C_15
REMARK                            x       y       z     vdW  Elec       q    Type
REMARK                         _______ _______ _______ _____ _____    ______ ____
ROOT
ATOM      1  C   UNL     1       7.518   7.820  17.779  0.00  0.00    +0.000 A 
ATOM      2  C   UNL     1       7.770   6.707  18.555  0.00  0.00    +0.000 A 
ATOM      3  N   UNL     1       6.752   5.847  18.279  0.00  0.00    +0.000 N 
ATOM      4  C   UNL     1       5.916   6.438  17.371  0.00  0.00    +0.000 A 
ATOM      5  N   UNL     1       6.355   7.640  17.055  0.00  0.00    +0.000 NA
ATOM      6  C   UNL     1       4.668   5.751  16.900  0.00  0.00    +0.000 C 
ATOM      7  N   UNL     1       4.685   4.286  17.159  0.00  0.00    +0.000 NA
ATOM      8  C   UNL     1       5.118   4.023  18.546  0.00  0.00    +0.000 C 
ATOM      9  C   UNL     1       6.550   4.514  18.797  0.00  0.00    +0.000 C 
ENDROOT
BRANCH   1  10
ATOM     10  C   UNL     1       8.309   9.093  17.687  0.00  0.00    +0.000 C 
BRANCH  10  15
ATOM     11  C   UNL     1      11.330  12.814  19.549  0.00  0.00    +0.000 A 
ATOM     12  C   UNL     1      11.160  12.362  18.250  0.00  0.00    +0.000 A 
ATOM     13  C   UNL     1      10.316  11.277  18.008  0.00  0.00    +0.000 A 
ATOM     14  C   UNL     1       9.648  10.675  19.068  0.00  0.00    +0.000 A 
ATOM     15  N   UNL     1       8.862   9.559  18.942  0.00  0.00    +0.000 N 
ATOM     16  N   UNL     1       9.797  11.123  20.331  0.00  0.00    +0.000 NA
ATOM     17  C   UNL     1      10.630  12.166  20.548  0.00  0.00    +0.000 A 
ATOM     18  H   UNL     1       8.305   9.401  19.773  0.00  0.00    +0.000 HD
ENDBRANCH  10  15
ENDBRANCH   1  10
BRANCH   7  19
ATOM     19  C   UNL     1       3.349   3.700  16.929  0.00  0.00    +0.000 C 
BRANCH  19  20
ATOM     20  C   UNL     1       2.522   3.642  18.184  0.00  0.00    +0.000 A 
ATOM     21  C   UNL     1       1.942   4.686  18.876  0.00  0.00    +0.000 A 
ATOM     22  C   UNL     1       1.306   4.252  20.076  0.00  0.00    +0.000 A 
ATOM     23  C   UNL     1       1.392   2.888  20.240  0.00  0.00    +0.000 A 
ATOM     24  S   UNL     1       2.221   2.137  18.948  0.00  0.00    +0.000 S 
ENDBRANCH  19  20
ENDBRANCH   7  19
TORSDOF 4
ENDMDL
MODEL 2
REMARK VINA RESULT:      -7.6      5.535      7.294
REMARK  Name = 
REMARK  4 active torsions:
REMARK  status: ('A' for Active; 'I' for Inactive)
REMARK    1  A    between atoms: N_5  and  C_6
REMARK    2  A    between atoms: C_6  and  C_7
REMARK    3  A    between atoms: N_13  and  C_14
REMARK    4  A    between atoms: C_14  and  C_15
REMARK                            x       y       z     vdW  Elec       q    Type
REMARK                         _______ _______ _______ _____ _____    ______ ____
ROOT
ATOM      1  C   UNL     1       4.315   5.039  17.529  0.00  0.00    +0.000 A 
ATOM      2  C   UNL     1       3.612   4.884  18.708  0.00  0.00    +0.000 A 
ATOM      3  N   UNL     1       2.992   6.079  18.908  0.00  0.00    +0.000 N 
ATOM      4  C   UNL     1       3.325   6.920  17.881  0.00  0.00    +0.000 A 
ATOM      5  N   UNL     1       4.132   6.315  17.032  0.00  0.00    +0.000 NA
ATOM      6  C   UNL     1       2.828   8.335  17.842  0.00  0.00    +0.000 C 
ATOM      7  N   UNL     1       1.657   8.559  18.732  0.00  0.00    +0.000 NA
ATOM      8  C   UNL     1       1.911   7.968  20.061  0.00  0.00    +0.000 C 
ATOM      9  C   UNL     1       2.099   6.447  19.982  0.00  0.00    +0.000 C 
ENDROOT
BRANCH   1  10
ATOM     10  C   UNL     1       5.193   4.044  16.828  0.00  0.00    +0.000 C 
BRANCH  10  15
ATOM     11  C   UNL     1       7.332   4.529  12.178  0.00  0.00    +0.000 A 
ATOM     12  C   UNL     1       6.332   3.678  12.621  0.00  0.00    +0.000 A 
ATOM     13  C   UNL     1       5.967   3.695  13.967  0.00  0.00    +0.000 A 
ATOM     14  C   UNL     1       6.599   4.572  14.841  0.00  0.00    +0.000 A 
ATOM     15  N   UNL     1       6.366   4.608  16.192  0.00  0.00    +0.000 N 
ATOM     16  N   UNL     1       7.560   5.414  14.411  0.00  0.00    +0.000 NA
ATOM     17  C   UNL     1       7.910   5.374  13.105  0.00  0.00    +0.000 A 
ATOM     18  H   UNL     1       6.759   5.440  16.615  0.00  0.00    +0.000 HD
ENDBRANCH  10  15
ENDBRANCH   1  10
BRANCH   7  19
ATOM     19  C   UNL     1       1.372  10.002  18.868  0.00  0.00    +0.000 C 
BRANCH  19  20
ATOM     20  C   UNL     1      -0.053  10.340  18.528  0.00  0.00    +0.000 A 
ATOM     21  C   UNL     1      -0.884   9.728  17.610  0.00  0.00    +0.000 A 
ATOM     22  C   UNL     1      -2.144  10.385  17.499  0.00  0.00    +0.000 A 
ATOM     23  C   UNL     1      -2.246  11.453  18.361  0.00  0.00    +0.000 A 
ATOM     24  S   UNL     1      -0.836  11.652  19.307  0.00  0.00    +0.000 S 
ENDBRANCH  19  20
ENDBRANCH   7  19
TORSDOF 4
ENDMDL
MODEL 3
REMARK VINA RESULT:      -7.5      1.392      1.866
REMARK  Name = 
REMARK  4 active torsions:
REMARK  status: ('A' for Active; 'I' for Inactive)
REMARK    1  A    between atoms: N_5  and  C_6
REMARK    2  A    between atoms: C_6  and  C_7
REMARK    3  A    between atoms: N_13  and  C_14
REMARK    4  A    between atoms: C_14  and  C_15
REMARK                            x       y       z     vdW  Elec       q    Type
REMARK                         _______ _______ _______ _____ _____    ______ ____
ROOT
ATOM      1  C   UNL     1       7.533   6.956  17.989  0.00  0.00    +0.000 A 
ATOM      2  C   UNL     1       7.108   6.657  16.710  0.00  0.00    +0.000 A 
ATOM      3  N   UNL     1       6.218   5.638  16.864  0.00  0.00    +0.000 N 
ATOM      4  C   UNL     1       6.126   5.338  18.196  0.00  0.00    +0.000 A 
ATOM      5  N   UNL     1       6.919   6.120  18.901  0.00  0.00    +0.000 NA
ATOM      6  C   UNL     1       5.252   4.220  18.682  0.00  0.00    +0.000 C 
ATOM      7  N   UNL     1       4.229   3.812  17.681  0.00  0.00    +0.000 NA
ATOM      8  C   UNL     1       4.856   3.651  16.354  0.00  0.00    +0.000 C 
ATOM      9  C   UNL     1       5.448   4.970  15.841  0.00  0.00    +0.000 C 
ENDROOT
BRANCH   1  10
ATOM     10  C   UNL     1       8.528   7.993  18.424  0.00  0.00    +0.000 C 
BRANCH  10  15
ATOM     11  C   UNL     1      10.036  12.833  19.286  0.00  0.00    +0.000 A 
ATOM     12  C   UNL     1      10.293  11.673  20.000  0.00  0.00    +0.000 A 
ATOM     13  C   UNL     1       9.705  10.475  19.590  0.00  0.00    +0.000 A 
ATOM     14  C   UNL     1       8.885  10.458  18.469  0.00  0.00    +0.000 A 
ATOM     15  N   UNL     1       8.202   9.351  18.035  0.00  0.00    +0.000 N 
ATOM     16  N   UNL     1       8.647  11.581  17.762  0.00  0.00    +0.000 NA
ATOM     17  C   UNL     1       9.214  12.736  18.181  0.00  0.00    +0.000 A 
ATOM     18  H   UNL     1       7.834   9.482  17.101  0.00  0.00    +0.000 HD
ENDBRANCH  10  15
ENDBRANCH   1  10
BRANCH   7  19
ATOM     19  C   UNL     1       3.575   2.551  18.086  0.00  0.00    +0.000 C 
BRANCH  19  20
ATOM     20  C   UNL     1       2.570   2.752  19.186  0.00  0.00    +0.000 A 
ATOM     21  C   UNL     1       1.284   3.247  19.092  0.00  0.00    +0.000 A 
ATOM     22  C   UNL     1       0.661   3.377  20.367  0.00  0.00    +0.000 A 
ATOM     23  C   UNL     1       1.477   2.944  21.387  0.00  0.00    +0.000 A 
ATOM     24  S   UNL     1       2.980   2.371  20.807  0.00  0.00    +0.000 S 
ENDBRANCH  19  20
ENDBRANCH   7  19
TORSDOF 4
ENDMDL
MODEL 4
REMARK VINA RESULT:      -7.5      5.281      7.322
REMARK  Name = 
REMARK  4 active torsions:
REMARK  status: ('A' for Active; 'I' for Inactive)
REMARK    1  A    between atoms: N_5  and  C_6
REMARK    2  A    between atoms: C_6  and  C_7
REMARK    3  A    between atoms: N_13  and  C_14
REMARK    4  A    between atoms: C_14  and  C_15
REMARK                            x       y       z     vdW  Elec       q    Type
REMARK                         _______ _______ _______ _____ _____    ______ ____
ROOT
ATOM      1  C   UNL     1       3.637   4.969  19.080  0.00  0.00    +0.000 A 
ATOM      2  C   UNL     1       2.926   5.262  20.227  0.00  0.00    +0.000 A 
ATOM      3  N   UNL     1       2.362   6.478  19.991  0.00  0.00    +0.000 N 
ATOM      4  C   UNL     1       2.736   6.897  18.742  0.00  0.00    +0.000 A 
ATOM      5  N   UNL     1       3.515   6.002  18.169  0.00  0.00    +0.000 NA
ATOM      6  C   UNL     1       2.305   8.231  18.209  0.00  0.00    +0.000 C 
ATOM      7  N   UNL     1       1.144   8.799  18.946  0.00  0.00    +0.000 NA
ATOM      8  C   UNL     1       1.368   8.693  20.401  0.00  0.00    +0.000 C 
ATOM      9  C   UNL     1       1.484   7.232  20.855  0.00  0.00    +0.000 C 
ENDROOT
BRANCH   1  10
ATOM     10  C   UNL     1       4.470   3.756  18.781  0.00  0.00    +0.000 C 
BRANCH  10  15
ATOM     11  C   UNL     1       6.851   4.759  14.336  0.00  0.00    +0.000 A 
ATOM     12  C   UNL     1       5.600   4.215  14.580  0.00  0.00    +0.000 A 
ATOM     13  C   UNL     1       5.204   3.979  15.897  0.00  0.00    +0.000 A 
ATOM     14  C   UNL     1       6.059   4.304  16.943  0.00  0.00    +0.000 A 
ATOM     15  N   UNL     1       5.793   4.038  18.262  0.00  0.00    +0.000 N 
ATOM     16  N   UNL     1       7.270   4.849  16.710  0.00  0.00    +0.000 NA
ATOM     17  C   UNL     1       7.643   5.058  15.427  0.00  0.00    +0.000 A 
ATOM     18  H   UNL     1       6.429   4.531  18.877  0.00  0.00    +0.000 HD
ENDBRANCH  10  15
ENDBRANCH   1  10
BRANCH   7  19
ATOM     19  C   UNL     1       0.926  10.211  18.570  0.00  0.00    +0.000 C 
BRANCH  19  20
ATOM     20  C   UNL     1      -0.531  10.543  18.405  0.00  0.00    +0.000 A 
ATOM     21  C   UNL     1      -1.430  10.025  17.493  0.00  0.00    +0.000 A 
ATOM     22  C   UNL     1      -2.708  10.649  17.580  0.00  0.00    +0.000 A 
ATOM     23  C   UNL     1      -2.753  11.595  18.578  0.00  0.00    +0.000 A 
ATOM     24  S   UNL     1      -1.266  11.719  19.412  0.00  0.00    +0.000 S 
ENDBRANCH  19  20
ENDBRANCH   7  19
TORSDOF 4
ENDMDL
MODEL 5
REMARK VINA RESULT:      -7.2      5.209      7.536
REMARK  Name = 
REMARK  4 active torsions:
REMARK  status: ('A' for Active; 'I' for Inactive)
REMARK    1  A    between atoms: N_5  and  C_6
REMARK    2  A    between atoms: C_6  and  C_7
REMARK    3  A    between atoms: N_13  and  C_14
REMARK    4  A    between atoms: C_14  and  C_15
REMARK                            x       y       z     vdW  Elec       q    Type
REMARK                         _______ _______ _______ _____ _____    ______ ____
ROOT
ATOM      1  C   UNL     1       3.087   5.095  19.010  0.00  0.00    +0.000 A 
ATOM      2  C   UNL     1       2.512   5.459  20.211  0.00  0.00    +0.000 A 
ATOM      3  N   UNL     1       2.078   6.735  20.023  0.00  0.00    +0.000 N 
ATOM      4  C   UNL     1       2.396   7.119  18.748  0.00  0.00    +0.000 A 
ATOM      5  N   UNL     1       3.015   6.144  18.113  0.00  0.00    +0.000 NA
ATOM      6  C   UNL     1       2.086   8.501  18.252  0.00  0.00    +0.000 C 
ATOM      7  N   UNL     1       1.064   9.194  19.082  0.00  0.00    +0.000 NA
ATOM      8  C   UNL     1       1.391   9.049  20.514  0.00  0.00    +0.000 C 
ATOM      9  C   UNL     1       1.370   7.579  20.956  0.00  0.00    +0.000 C 
ENDROOT
BRANCH   1  10
ATOM     10  C   UNL     1       3.743   3.796  18.644  0.00  0.00    +0.000 C 
BRANCH  10  15
ATOM     11  C   UNL     1       6.865   4.776  14.677  0.00  0.00    +0.000 A 
ATOM     12  C   UNL     1       5.522   4.435  14.699  0.00  0.00    +0.000 A 
ATOM     13  C   UNL     1       4.909   4.151  15.920  0.00  0.00    +0.000 A 
ATOM     14  C   UNL     1       5.646   4.227  17.095  0.00  0.00    +0.000 A 
ATOM     15  N   UNL     1       5.155   3.892  18.331  0.00  0.00    +0.000 N 
ATOM     16  N   UNL     1       6.948   4.576  17.081  0.00  0.00    +0.000 NA
ATOM     17  C   UNL     1       7.530   4.833  15.887  0.00  0.00    +0.000 A 
ATOM     18  H   UNL     1       5.766   4.210  19.073  0.00  0.00    +0.000 HD
ENDBRANCH  10  15
ENDBRANCH   1  10
BRANCH   7  19
ATOM     19  C   UNL     1       0.985  10.626  18.726  0.00  0.00    +0.000 C 
BRANCH  19  20
ATOM     20  C   UNL     1      -0.422  11.154  18.776  0.00  0.00    +0.000 A 
ATOM     21  C   UNL     1      -0.921  12.192  19.538  0.00  0.00    +0.000 A 
ATOM     22  C   UNL     1      -2.330  12.346  19.385  0.00  0.00    +0.000 A 
ATOM     23  C   UNL     1      -2.852  11.444  18.486  0.00  0.00    +0.000 A 
ATOM     24  S   UNL     1      -1.648  10.429  17.821  0.00  0.00    +0.000 S 
ENDBRANCH  19  20
ENDBRANCH   7  19
TORSDOF 4
ENDMDL
MODEL 6
REMARK VINA RESULT:      -7.2      1.115      1.683
REMARK  Name = 
REMARK  4 active torsions:
REMARK  status: ('A' for Active; 'I' for Inactive)
REMARK    1  A    between atoms: N_5  and  C_6
REMARK    2  A    between atoms: C_6  and  C_7
REMARK    3  A    between atoms: N_13  and  C_14
REMARK    4  A    between atoms: C_14  and  C_15
REMARK                            x       y       z     vdW  Elec       q    Type
REMARK                         _______ _______ _______ _____ _____    ______ ____
ROOT
ATOM      1  C   UNL     1       7.804   7.987  17.921  0.00  0.00    +0.000 A 
ATOM      2  C   UNL     1       6.699   8.074  17.098  0.00  0.00    +0.000 A 
ATOM      3  N   UNL     1       6.021   6.910  17.294  0.00  0.00    +0.000 N 
ATOM      4  C   UNL     1       6.710   6.152  18.201  0.00  0.00    +0.000 A 
ATOM      5  N   UNL     1       7.801   6.780  18.594  0.00  0.00    +0.000 NA
ATOM      6  C   UNL     1       6.234   4.784  18.592  0.00  0.00    +0.000 C 
ATOM      7  N   UNL     1       4.803   4.555  18.259  0.00  0.00    +0.000 NA
ATOM      8  C   UNL     1       4.528   4.996  16.877  0.00  0.00    +0.000 C 
ATOM      9  C   UNL     1       4.769   6.501  16.701  0.00  0.00    +0.000 C 
ENDROOT
BRANCH   1  10
ATOM     10  C   UNL     1       8.912   8.983  18.106  0.00  0.00    +0.000 C 
BRANCH  10  15
ATOM     11  C   UNL     1      10.853  13.093  20.511  0.00  0.00    +0.000 A 
ATOM     12  C   UNL     1      11.151  12.557  19.268  0.00  0.00    +0.000 A 
ATOM     13  C   UNL     1      10.522  11.379  18.863  0.00  0.00    +0.000 A 
ATOM     14  C   UNL     1       9.598  10.768  19.702  0.00  0.00    +0.000 A 
ATOM     15  N   UNL     1       8.988   9.571  19.428  0.00  0.00    +0.000 N 
ATOM     16  N   UNL     1       9.292  11.296  20.904  0.00  0.00    +0.000 NA
ATOM     17  C   UNL     1       9.922  12.431  21.286  0.00  0.00    +0.000 A 
ATOM     18  H   UNL     1       8.206   9.400  20.049  0.00  0.00    +0.000 HD
ENDBRANCH  10  15
ENDBRANCH   1  10
BRANCH   7  19
ATOM     19  C   UNL     1       4.451   3.128  18.412  0.00  0.00    +0.000 C 
BRANCH  19  20
ATOM     20  C   UNL     1       3.025   2.931  18.844  0.00  0.00    +0.000 A 
ATOM     21  C   UNL     1       2.030   2.211  18.213  0.00  0.00    +0.000 A 
ATOM     22  C   UNL     1       0.775   2.326  18.878  0.00  0.00    +0.000 A 
ATOM     23  C   UNL     1       0.862   3.100  20.013  0.00  0.00    +0.000 A 
ATOM     24  S   UNL     1       2.451   3.670  20.281  0.00  0.00    +0.000 S 
ENDBRANCH  19  20
ENDBRANCH   7  19
TORSDOF 4
ENDMDL
MODEL 7
REMARK VINA RESULT:      -7.1      7.388      9.746
REMARK  Name = 
REMARK  4 active torsions:
REMARK  status: ('A' for Active; 'I' for Inactive)
REMARK    1  A    between atoms: N_5  and  C_6
REMARK    2  A    between atoms: C_6  and  C_7
REMARK    3  A    between atoms: N_13  and  C_14
REMARK    4  A    between atoms: C_14  and  C_15
REMARK                            x       y       z     vdW  Elec       q    Type
REMARK                         _______ _______ _______ _____ _____    ______ ____
ROOT
ATOM      1  C   UNL     1      -0.183  11.216  20.920  0.00  0.00    +0.000 A 
ATOM      2  C   UNL     1       0.126  11.237  19.575  0.00  0.00    +0.000 A 
ATOM      3  N   UNL     1       0.796  10.074  19.349  0.00  0.00    +0.000 N 
ATOM      4  C   UNL     1       0.888   9.388  20.530  0.00  0.00    +0.000 A 
ATOM      5  N   UNL     1       0.306  10.062  21.502  0.00  0.00    +0.000 NA
ATOM      6  C   UNL     1       1.615   8.078  20.613  0.00  0.00    +0.000 C 
ATOM      7  N   UNL     1       1.809   7.441  19.283  0.00  0.00    +0.000 NA
ATOM      8  C   UNL     1       2.317   8.435  18.316  0.00  0.00    +0.000 C 
ATOM      9  C   UNL     1       1.317   9.578  18.096  0.00  0.00    +0.000 C 
ENDROOT
BRANCH   1  10
ATOM     10  C   UNL     1      -0.911  12.252  21.727  0.00  0.00    +0.000 C 
BRANCH  10  15
ATOM     11  C   UNL     1      -5.469  12.899  24.017  0.00  0.00    +0.000 A 
ATOM     12  C   UNL     1      -4.258  12.469  24.535  0.00  0.00    +0.000 A 
ATOM     13  C   UNL     1      -3.166  12.312  23.680  0.00  0.00    +0.000 A 
ATOM     14  C   UNL     1      -3.302  12.603  22.328  0.00  0.00    +0.000 A 
ATOM     15  N   UNL     1      -2.313  12.406  21.399  0.00  0.00    +0.000 N 
ATOM     16  N   UNL     1      -4.473  13.039  21.823  0.00  0.00    +0.000 NA
ATOM     17  C   UNL     1      -5.525  13.171  22.664  0.00  0.00    +0.000 A 
ATOM     18  H   UNL     1      -2.529  12.866  20.523  0.00  0.00    +0.000 HD
ENDBRANCH  10  15
ENDBRANCH   1  10
BRANCH   7  19
ATOM     19  C   UNL     1       2.750   6.306  19.379  0.00  0.00    +0.000 C 
BRANCH  19  20
ATOM     20  C   UNL     1       2.045   4.979  19.429  0.00  0.00    +0.000 A 
ATOM     21  C   UNL     1       1.526   4.325  20.530  0.00  0.00    +0.000 A 
ATOM     22  C   UNL     1       1.007   3.039  20.200  0.00  0.00    +0.000 A 
ATOM     23  C   UNL     1       1.115   2.770  18.854  0.00  0.00    +0.000 A 
ATOM     24  S   UNL     1       1.824   4.067  17.995  0.00  0.00    +0.000 S 
ENDBRANCH  19  20
ENDBRANCH   7  19
TORSDOF 4
ENDMDL
MODEL 8
REMARK VINA RESULT:      -7.1      5.553      8.138
REMARK  Name = 
REMARK  4 active torsions:
REMARK  status: ('A' for Active; 'I' for Inactive)
REMARK    1  A    between atoms: N_5  and  C_6
REMARK    2  A    between atoms: C_6  and  C_7
REMARK    3  A    between atoms: N_13  and  C_14
REMARK    4  A    between atoms: C_14  and  C_15
REMARK                            x       y       z     vdW  Elec       q    Type
REMARK                         _______ _______ _______ _____ _____    ______ ____
ROOT
ATOM      1  C   UNL     1       2.749   5.989  19.346  0.00  0.00    +0.000 A 
ATOM      2  C   UNL     1       2.763   6.794  18.224  0.00  0.00    +0.000 A 
ATOM      3  N   UNL     1       2.139   7.941  18.606  0.00  0.00    +0.000 N 
ATOM      4  C   UNL     1       1.757   7.815  19.914  0.00  0.00    +0.000 A 
ATOM      5  N   UNL     1       2.111   6.636  20.386  0.00  0.00    +0.000 NA
ATOM      6  C   UNL     1       1.001   8.907  20.612  0.00  0.00    +0.000 C 
ATOM      7  N   UNL     1       1.109  10.218  19.917  0.00  0.00    +0.000 NA
ATOM      8  C   UNL     1       0.865  10.045  18.471  0.00  0.00    +0.000 C 
ATOM      9  C   UNL     1       1.915   9.134  17.822  0.00  0.00    +0.000 C 
ENDROOT
BRANCH   1  10
ATOM     10  C   UNL     1       3.290   4.597  19.504  0.00  0.00    +0.000 C 
BRANCH  10  15
ATOM     11  C   UNL     1       7.059   4.278  16.021  0.00  0.00    +0.000 A 
ATOM     12  C   UNL     1       5.696   4.068  15.889  0.00  0.00    +0.000 A 
ATOM     13  C   UNL     1       4.879   4.154  17.017  0.00  0.00    +0.000 A 
ATOM     14  C   UNL     1       5.438   4.462  18.251  0.00  0.00    +0.000 A 
ATOM     15  N   UNL     1       4.733   4.492  19.426  0.00  0.00    +0.000 N 
ATOM     16  N   UNL     1       6.762   4.685  18.381  0.00  0.00    +0.000 NA
ATOM     17  C   UNL     1       7.540   4.583  17.279  0.00  0.00    +0.000 A 
ATOM     18  H   UNL     1       5.263   4.934  20.168  0.00  0.00    +0.000 HD
ENDBRANCH  10  15
ENDBRANCH   1  10
BRANCH   7  19
ATOM     19  C   UNL     1       0.147  11.188  20.478  0.00  0.00    +0.000 C 
BRANCH  19  20
ATOM     20  C   UNL     1       0.350  12.576  19.938  0.00  0.00    +0.000 A 
ATOM     21  C   UNL     1      -0.543  13.363  19.238  0.00  0.00    +0.000 A 
ATOM     22  C   UNL     1       0.038  14.592  18.810  0.00  0.00    +0.000 A 
ATOM     23  C   UNL     1       1.343  14.718  19.229  0.00  0.00    +0.000 A 
ATOM     24  S   UNL     1       1.857  13.368  20.143  0.00  0.00    +0.000 S 
ENDBRANCH  19  20
ENDBRANCH   7  19
TORSDOF 4
ENDMDL
MODEL 9
REMARK VINA RESULT:      -7.1      6.116      9.096
REMARK  Name = 
REMARK  4 active torsions:
REMARK  status: ('A' for Active; 'I' for Inactive)
REMARK    1  A    between atoms: N_5  and  C_6
REMARK    2  A    between atoms: C_6  and  C_7
REMARK    3  A    between atoms: N_13  and  C_14
REMARK    4  A    between atoms: C_14  and  C_15
REMARK                            x       y       z     vdW  Elec       q    Type
REMARK                         _______ _______ _______ _____ _____    ______ ____
ROOT
ATOM      1  C   UNL     1       2.572   7.916  18.344  0.00  0.00    +0.000 A 
ATOM      2  C   UNL     1       2.129   7.861  19.651  0.00  0.00    +0.000 A 
ATOM      3  N   UNL     1       1.177   8.828  19.742  0.00  0.00    +0.000 N 
ATOM      4  C   UNL     1       1.065   9.446  18.525  0.00  0.00    +0.000 A 
ATOM      5  N   UNL     1       1.905   8.915  17.660  0.00  0.00    +0.000 NA
ATOM      6  C   UNL     1       0.121  10.593  18.320  0.00  0.00    +0.000 C 
ATOM      7  N   UNL     1      -0.925  10.675  19.375  0.00  0.00    +0.000 NA
ATOM      8  C   UNL     1      -0.309  10.538  20.709  0.00  0.00    +0.000 C 
ATOM      9  C   UNL     1       0.366   9.171  20.887  0.00  0.00    +0.000 C 
ENDROOT
BRANCH   1  10
ATOM     10  C   UNL     1       3.630   7.084  17.680  0.00  0.00    +0.000 C 
BRANCH  10  15
ATOM     11  C   UNL     1       2.687   2.086  18.434  0.00  0.00    +0.000 A 
ATOM     12  C   UNL     1       1.907   3.067  17.842  0.00  0.00    +0.000 A 
ATOM     13  C   UNL     1       2.368   4.384  17.817  0.00  0.00    +0.000 A 
ATOM     14  C   UNL     1       3.604   4.692  18.372  0.00  0.00    +0.000 A 
ATOM     15  N   UNL     1       4.106   5.964  18.466  0.00  0.00    +0.000 N 
ATOM     16  N   UNL     1       4.374   3.738  18.933  0.00  0.00    +0.000 NA
ATOM     17  C   UNL     1       3.905   2.469  18.960  0.00  0.00    +0.000 A 
ATOM     18  H   UNL     1       5.091   5.959  18.704  0.00  0.00    +0.000 HD
ENDBRANCH  10  15
ENDBRANCH   1  10
BRANCH   7  19
ATOM     19  C   UNL     1      -1.658  11.954  19.286  0.00  0.00    +0.000 C 
BRANCH  19  20
ATOM     20  C   UNL     1      -3.002  11.803  18.630  0.00  0.00    +0.000 A 
ATOM     21  C   UNL     1      -3.290  11.334  17.363  0.00  0.00    +0.000 A 
ATOM     22  C   UNL     1      -4.679  11.419  17.057  0.00  0.00    +0.000 A 
ATOM     23  C   UNL     1      -5.409  11.916  18.113  0.00  0.00    +0.000 A 
ATOM     24  S   UNL     1      -4.426  12.263  19.467  0.00  0.00    +0.000 S 
ENDBRANCH  19  20
ENDBRANCH   7  19
TORSDOF 4
ENDMDL
