MODEL 1
REMARK VINA RESULT:      -8.4      0.000      0.000
REMARK  Name = 
REMARK  7 active torsions:
REMARK  status: ('A' for Active; 'I' for Inactive)
REMARK    1  A    between atoms: C_1  and  N_2
REMARK    2  A    between atoms: C_6  and  C_8
REMARK    3  A    between atoms: C_8  and  N_9
REMARK    4  A    between atoms: N_9  and  C_10
REMARK    5  A    between atoms: N_13  and  C_14
REMARK    6  A    between atoms: C_14  and  C_15
REMARK    7  A    between atoms: C_23  and  C_24
REMARK                            x       y       z     vdW  Elec       q    Type
REMARK                         _______ _______ _______ _____ _____    ______ ____
ROOT
ATOM      1  C   UNL     1       2.306   8.572  17.747  0.00  0.00    +0.000 C 
ENDROOT
BRANCH   1   7
ATOM      2  C   UNL     1       7.461   4.558  17.479  0.00  0.00    +0.000 C 
ATOM      3  N   UNL     1       6.093   4.989  17.199  0.00  0.00    +0.000 NA
ATOM      4  C   UNL     1       6.001   6.458  17.224  0.00  0.00    +0.000 C 
ATOM      5  C   UNL     1       4.575   6.946  16.924  0.00  0.00    +0.000 C 
ATOM      6  N   UNL     1       3.598   6.402  17.875  0.00  0.00    +0.000 N 
ATOM      7  C   UNL     1       2.582   7.207  18.416  0.00  0.00    +0.000 C 
ATOM      8  O   UNL     1       1.943   6.896  19.415  0.00  0.00    +0.000 OA
ATOM      9  C   UNL     1       3.696   4.905  18.034  0.00  0.00    +0.000 C 
ATOM     10  C   UNL     1       5.167   4.424  18.212  0.00  0.00    +0.000 C 
BRANCH   9  11
ATOM     11  C   UNL     1       2.787   4.207  19.033  0.00  0.00    +0.000 A 
ATOM     12  C   UNL     1       3.165   4.084  20.384  0.00  0.00    +0.000 A 
ATOM     13  C   UNL     1       2.388   3.341  21.278  0.00  0.00    +0.000 A 
ATOM     14  C   UNL     1       1.211   2.738  20.844  0.00  0.00    +0.000 A 
ATOM     15  C   UNL     1       0.791   2.912  19.525  0.00  0.00    +0.000 A 
ATOM     16  C   UNL     1       1.559   3.663  18.637  0.00  0.00    +0.000 A 
ENDBRANCH   9  11
ENDBRANCH   1   7
BRANCH   1  17
ATOM     17  N   UNL     1       2.181   9.712  18.677  0.00  0.00    +0.000 NA
ATOM     18  H   UNL     1       3.111  10.122  18.774  0.00  0.00    +0.000 HD
BRANCH  17  19
ATOM     19  C   UNL     1       1.236  10.817  18.428  0.00  0.00    +0.000 C 
ATOM     20  C   UNL     1       1.499  12.172  19.089  0.00  0.00    +0.000 C 
ATOM     21  C   UNL     1       0.912  12.325  20.486  0.00  0.00    +0.000 C 
ATOM     22  N   UNL     1      -0.445  11.781  20.723  0.00  0.00    +0.000 NA
ATOM     23  C   UNL     1      -0.727  10.528  20.010  0.00  0.00    +0.000 C 
ATOM     24  C   UNL     1      -0.248  10.494  18.568  0.00  0.00    +0.000 C 
BRANCH  22  25
ATOM     25  C   UNL     1      -0.560  11.556  22.186  0.00  0.00    +0.000 C 
BRANCH  25  26
ATOM     26  C   UNL     1      -1.502  12.437  22.966  0.00  0.00    +0.000 A 
ATOM     27  C   UNL     1      -1.093  13.729  23.349  0.00  0.00    +0.000 A 
ATOM     28  C   UNL     1      -1.955  14.560  24.062  0.00  0.00    +0.000 A 
ATOM     29  C   UNL     1      -3.231  14.110  24.391  0.00  0.00    +0.000 A 
ATOM     30  C   UNL     1      -3.649  12.840  24.000  0.00  0.00    +0.000 A 
ATOM     31  C   UNL     1      -2.795  12.013  23.276  0.00  0.00    +0.000 A 
ENDBRANCH  25  26
ENDBRANCH  22  25
ENDBRANCH  17  19
ENDBRANCH   1  17
TORSDOF 6
ENDMDL
MODEL 2
REMARK VINA RESULT:      -8.4      0.435      1.314
REMARK  Name = 
REMARK  7 active torsions:
REMARK  status: ('A' for Active; 'I' for Inactive)
REMARK    1  A    between atoms: C_1  and  N_2
REMARK    2  A    between atoms: C_6  and  C_8
REMARK    3  A    between atoms: C_8  and  N_9
REMARK    4  A    between atoms: N_9  and  C_10
REMARK    5  A    between atoms: N_13  and  C_14
REMARK    6  A    between atoms: C_14  and  C_15
REMARK    7  A    between atoms: C_23  and  C_24
REMARK                            x       y       z     vdW  Elec       q    Type
REMARK                         _______ _______ _______ _____ _____    ______ ____
ROOT
ATOM      1  C   UNL     1       2.434   8.626  18.258  0.00  0.00    +0.000 C 
ENDROOT
BRANCH   1   7
ATOM      2  C   UNL     1       7.293   4.501  16.798  0.00  0.00    +0.000 C 
ATOM      3  N   UNL     1       5.925   5.014  16.761  0.00  0.00    +0.000 NA
ATOM      4  C   UNL     1       5.915   6.469  16.982  0.00  0.00    +0.000 C 
ATOM      5  C   UNL     1       4.489   7.043  16.940  0.00  0.00    +0.000 C 
ATOM      6  N   UNL     1       3.616   6.414  17.938  0.00  0.00    +0.000 N 
ATOM      7  C   UNL     1       2.721   7.176  18.707  0.00  0.00    +0.000 C 
ATOM      8  O   UNL     1       2.200   6.758  19.736  0.00  0.00    +0.000 OA
ATOM      9  C   UNL     1       3.655   4.905  17.892  0.00  0.00    +0.000 C 
ATOM     10  C   UNL     1       5.109   4.354  17.809  0.00  0.00    +0.000 C 
BRANCH   9  11
ATOM     11  C   UNL     1       2.846   4.116  18.907  0.00  0.00    +0.000 A 
ATOM     12  C   UNL     1       1.527   3.715  18.620  0.00  0.00    +0.000 A 
ATOM     13  C   UNL     1       0.740   3.093  19.595  0.00  0.00    +0.000 A 
ATOM     14  C   UNL     1       1.268   2.835  20.856  0.00  0.00    +0.000 A 
ATOM     15  C   UNL     1       2.596   3.165  21.130  0.00  0.00    +0.000 A 
ATOM     16  C   UNL     1       3.383   3.774  20.155  0.00  0.00    +0.000 A 
ENDBRANCH   9  11
ENDBRANCH   1   7
BRANCH   1  17
ATOM     17  N   UNL     1       1.055   9.095  18.500  0.00  0.00    +0.000 NA
ATOM     18  H   UNL     1       0.798   8.793  19.441  0.00  0.00    +0.000 HD
BRANCH  17  19
ATOM     19  C   UNL     1       0.687  10.518  18.379  0.00  0.00    +0.000 C 
ATOM     20  C   UNL     1       1.516  11.559  19.133  0.00  0.00    +0.000 C 
ATOM     21  C   UNL     1       1.059  11.827  20.561  0.00  0.00    +0.000 C 
ATOM     22  N   UNL     1      -0.399  11.907  20.810  0.00  0.00    +0.000 NA
ATOM     23  C   UNL     1      -1.201  10.971  20.013  0.00  0.00    +0.000 C 
ATOM     24  C   UNL     1      -0.789  10.861  18.554  0.00  0.00    +0.000 C 
BRANCH  22  25
ATOM     25  C   UNL     1      -0.597  11.626  22.255  0.00  0.00    +0.000 C 
BRANCH  25  26
ATOM     26  C   UNL     1      -1.564  12.491  23.019  0.00  0.00    +0.000 A 
ATOM     27  C   UNL     1      -2.838  11.990  23.352  0.00  0.00    +0.000 A 
ATOM     28  C   UNL     1      -3.740  12.773  24.068  0.00  0.00    +0.000 A 
ATOM     29  C   UNL     1      -3.377  14.058  24.461  0.00  0.00    +0.000 A 
ATOM     30  C   UNL     1      -2.113  14.556  24.152  0.00  0.00    +0.000 A 
ATOM     31  C   UNL     1      -1.204  13.770  23.449  0.00  0.00    +0.000 A 
ENDBRANCH  25  26
ENDBRANCH  22  25
ENDBRANCH  17  19
ENDBRANCH   1  17
TORSDOF 6
ENDMDL
MODEL 3
REMARK VINA RESULT:      -8.3      2.090      3.626
REMARK  Name = 
REMARK  7 active torsions:
REMARK  status: ('A' for Active; 'I' for Inactive)
REMARK    1  A    between atoms: C_1  and  N_2
REMARK    2  A    between atoms: C_6  and  C_8
REMARK    3  A    between atoms: C_8  and  N_9
REMARK    4  A    between atoms: N_9  and  C_10
REMARK    5  A    between atoms: N_13  and  C_14
REMARK    6  A    between atoms: C_14  and  C_15
REMARK    7  A    between atoms: C_23  and  C_24
REMARK                            x       y       z     vdW  Elec       q    Type
REMARK                         _______ _______ _______ _____ _____    ______ ____
ROOT
ATOM      1  C   UNL     1       2.471   8.538  17.750  0.00  0.00    +0.000 C 
ENDROOT
BRANCH   1   7
ATOM      2  C   UNL     1       7.602   4.492  17.501  0.00  0.00    +0.000 C 
ATOM      3  N   UNL     1       6.240   4.937  17.208  0.00  0.00    +0.000 NA
ATOM      4  C   UNL     1       6.158   6.405  17.250  0.00  0.00    +0.000 C 
ATOM      5  C   UNL     1       4.739   6.907  16.937  0.00  0.00    +0.000 C 
ATOM      6  N   UNL     1       3.746   6.358  17.869  0.00  0.00    +0.000 N 
ATOM      7  C   UNL     1       2.728   7.164  18.406  0.00  0.00    +0.000 C 
ATOM      8  O   UNL     1       2.074   6.844  19.393  0.00  0.00    +0.000 OA
ATOM      9  C   UNL     1       3.833   4.858  18.011  0.00  0.00    +0.000 C 
ATOM     10  C   UNL     1       5.297   4.366  18.202  0.00  0.00    +0.000 C 
BRANCH   9  11
ATOM     11  C   UNL     1       2.906   4.155  18.988  0.00  0.00    +0.000 A 
ATOM     12  C   UNL     1       1.680   3.614  18.553  0.00  0.00    +0.000 A 
ATOM     13  C   UNL     1       0.773   3.073  19.470  0.00  0.00    +0.000 A 
ATOM     14  C   UNL     1       1.089   3.036  20.824  0.00  0.00    +0.000 A 
ATOM     15  C   UNL     1       2.329   3.506  21.257  0.00  0.00    +0.000 A 
ATOM     16  C   UNL     1       3.238   4.034  20.343  0.00  0.00    +0.000 A 
ENDBRANCH   9  11
ENDBRANCH   1   7
BRANCH   1  17
ATOM     17  N   UNL     1       1.291   9.264  18.261  0.00  0.00    +0.000 NA
ATOM     18  H   UNL     1       0.637   8.563  18.611  0.00  0.00    +0.000 HD
BRANCH  17  19
ATOM     19  C   UNL     1       1.410  10.310  19.295  0.00  0.00    +0.000 C 
ATOM     20  C   UNL     1       0.634  10.141  20.603  0.00  0.00    +0.000 C 
ATOM     21  C   UNL     1      -0.787  10.687  20.577  0.00  0.00    +0.000 C 
ATOM     22  N   UNL     1      -1.011  11.982  19.895  0.00  0.00    +0.000 NA
ATOM     23  C   UNL     1      -0.195  12.181  18.691  0.00  0.00    +0.000 C 
ATOM     24  C   UNL     1       1.258  11.754  18.828  0.00  0.00    +0.000 C 
BRANCH  22  25
ATOM     25  C   UNL     1      -2.450  12.025  19.531  0.00  0.00    +0.000 C 
BRANCH  25  26
ATOM     26  C   UNL     1      -2.869  11.412  18.220  0.00  0.00    +0.000 A 
ATOM     27  C   UNL     1      -2.079  10.401  17.638  0.00  0.00    +0.000 A 
ATOM     28  C   UNL     1      -2.457   9.817  16.431  0.00  0.00    +0.000 A 
ATOM     29  C   UNL     1      -3.627  10.232  15.801  0.00  0.00    +0.000 A 
ATOM     30  C   UNL     1      -4.423  11.220  16.378  0.00  0.00    +0.000 A 
ATOM     31  C   UNL     1      -4.055  11.795  17.591  0.00  0.00    +0.000 A 
ENDBRANCH  25  26
ENDBRANCH  22  25
ENDBRANCH  17  19
ENDBRANCH   1  17
TORSDOF 6
ENDMDL
MODEL 4
REMARK VINA RESULT:      -8.3      0.807      1.379
REMARK  Name = 
REMARK  7 active torsions:
REMARK  status: ('A' for Active; 'I' for Inactive)
REMARK    1  A    between atoms: C_1  and  N_2
REMARK    2  A    between atoms: C_6  and  C_8
REMARK    3  A    between atoms: C_8  and  N_9
REMARK    4  A    between atoms: N_9  and  C_10
REMARK    5  A    between atoms: N_13  and  C_14
REMARK    6  A    between atoms: C_14  and  C_15
REMARK    7  A    between atoms: C_23  and  C_24
REMARK                            x       y       z     vdW  Elec       q    Type
REMARK                         _______ _______ _______ _____ _____    ______ ____
ROOT
ATOM      1  C   UNL     1       2.360   8.395  17.910  0.00  0.00    +0.000 C 
ENDROOT
BRANCH   1   7
ATOM      2  C   UNL     1       7.592   4.500  17.443  0.00  0.00    +0.000 C 
ATOM      3  N   UNL     1       6.215   4.918  17.185  0.00  0.00    +0.000 NA
ATOM      4  C   UNL     1       6.095   6.381  17.282  0.00  0.00    +0.000 C 
ATOM      5  C   UNL     1       4.659   6.856  17.007  0.00  0.00    +0.000 C 
ATOM      6  N   UNL     1       3.694   6.247  17.931  0.00  0.00    +0.000 N 
ATOM      7  C   UNL     1       2.663   7.005  18.511  0.00  0.00    +0.000 C 
ATOM      8  O   UNL     1       2.032   6.632  19.494  0.00  0.00    +0.000 OA
ATOM      9  C   UNL     1       3.822   4.745  18.016  0.00  0.00    +0.000 C 
ATOM     10  C   UNL     1       5.302   4.286  18.170  0.00  0.00    +0.000 C 
BRANCH   9  11
ATOM     11  C   UNL     1       2.928   3.983  18.980  0.00  0.00    +0.000 A 
ATOM     12  C   UNL     1       1.677   3.490  18.561  0.00  0.00    +0.000 A 
ATOM     13  C   UNL     1       0.803   2.893  19.475  0.00  0.00    +0.000 A 
ATOM     14  C   UNL     1       1.176   2.752  20.808  0.00  0.00    +0.000 A 
ATOM     15  C   UNL     1       2.441   3.174  21.219  0.00  0.00    +0.000 A 
ATOM     16  C   UNL     1       3.317   3.757  20.306  0.00  0.00    +0.000 A 
ENDBRANCH   9  11
ENDBRANCH   1   7
BRANCH   1  17
ATOM     17  N   UNL     1       1.752   9.362  18.844  0.00  0.00    +0.000 NA
ATOM     18  H   UNL     1       2.502   9.717  19.438  0.00  0.00    +0.000 HD
BRANCH  17  19
ATOM     19  C   UNL     1       0.982  10.526  18.365  0.00  0.00    +0.000 C 
ATOM     20  C   UNL     1       1.362  11.918  18.875  0.00  0.00    +0.000 C 
ATOM     21  C   UNL     1       0.684  12.328  20.175  0.00  0.00    +0.000 C 
ATOM     22  N   UNL     1      -0.747  11.985  20.340  0.00  0.00    +0.000 NA
ATOM     23  C   UNL     1      -1.128  10.688  19.765  0.00  0.00    +0.000 C 
ATOM     24  C   UNL     1      -0.538  10.401  18.394  0.00  0.00    +0.000 C 
BRANCH  22  25
ATOM     25  C   UNL     1      -1.015  11.977  21.800  0.00  0.00    +0.000 C 
BRANCH  25  26
ATOM     26  C   UNL     1      -2.386  12.383  22.272  0.00  0.00    +0.000 A 
ATOM     27  C   UNL     1      -2.789  12.085  23.588  0.00  0.00    +0.000 A 
ATOM     28  C   UNL     1      -4.050  12.462  24.044  0.00  0.00    +0.000 A 
ATOM     29  C   UNL     1      -4.915  13.144  23.192  0.00  0.00    +0.000 A 
ATOM     30  C   UNL     1      -4.519  13.459  21.894  0.00  0.00    +0.000 A 
ATOM     31  C   UNL     1      -3.254  13.095  21.441  0.00  0.00    +0.000 A 
ENDBRANCH  25  26
ENDBRANCH  22  25
ENDBRANCH  17  19
ENDBRANCH   1  17
TORSDOF 6
ENDMDL
MODEL 5
REMARK VINA RESULT:      -8.2      2.074      3.502
REMARK  Name = 
REMARK  7 active torsions:
REMARK  status: ('A' for Active; 'I' for Inactive)
REMARK    1  A    between atoms: C_1  and  N_2
REMARK    2  A    between atoms: C_6  and  C_8
REMARK    3  A    between atoms: C_8  and  N_9
REMARK    4  A    between atoms: N_9  and  C_10
REMARK    5  A    between atoms: N_13  and  C_14
REMARK    6  A    between atoms: C_14  and  C_15
REMARK    7  A    between atoms: C_23  and  C_24
REMARK                            x       y       z     vdW  Elec       q    Type
REMARK                         _______ _______ _______ _____ _____    ______ ____
ROOT
ATOM      1  C   UNL     1       2.402   8.612  17.695  0.00  0.00    +0.000 C 
ENDROOT
BRANCH   1   7
ATOM      2  C   UNL     1       7.513   4.534  17.613  0.00  0.00    +0.000 C 
ATOM      3  N   UNL     1       6.156   4.976  17.296  0.00  0.00    +0.000 NA
ATOM      4  C   UNL     1       6.082   6.446  17.291  0.00  0.00    +0.000 C 
ATOM      5  C   UNL     1       4.668   6.945  16.951  0.00  0.00    +0.000 C 
ATOM      6  N   UNL     1       3.665   6.430  17.891  0.00  0.00    +0.000 N 
ATOM      7  C   UNL     1       2.647   7.257  18.396  0.00  0.00    +0.000 C 
ATOM      8  O   UNL     1       1.983   6.971  19.386  0.00  0.00    +0.000 OA
ATOM      9  C   UNL     1       3.742   4.935  18.081  0.00  0.00    +0.000 C 
ATOM     10  C   UNL     1       5.203   4.441  18.299  0.00  0.00    +0.000 C 
BRANCH   9  11
ATOM     11  C   UNL     1       2.804   4.267  19.072  0.00  0.00    +0.000 A 
ATOM     12  C   UNL     1       3.122   4.220  20.443  0.00  0.00    +0.000 A 
ATOM     13  C   UNL     1       2.321   3.504  21.338  0.00  0.00    +0.000 A 
ATOM     14  C   UNL     1       1.178   2.853  20.884  0.00  0.00    +0.000 A 
ATOM     15  C   UNL     1       0.816   2.951  19.541  0.00  0.00    +0.000 A 
ATOM     16  C   UNL     1       1.607   3.674  18.651  0.00  0.00    +0.000 A 
ENDBRANCH   9  11
ENDBRANCH   1   7
BRANCH   1  17
ATOM     17  N   UNL     1       1.244   9.377  18.200  0.00  0.00    +0.000 NA
ATOM     18  H   UNL     1       0.504   8.702  18.400  0.00  0.00    +0.000 HD
BRANCH  17  19
ATOM     19  C   UNL     1       1.354  10.270  19.369  0.00  0.00    +0.000 C 
ATOM     20  C   UNL     1       0.446  10.016  20.575  0.00  0.00    +0.000 C 
ATOM     21  C   UNL     1      -0.915  10.697  20.503  0.00  0.00    +0.000 C 
ATOM     22  N   UNL     1      -0.961  12.082  19.982  0.00  0.00    +0.000 NA
ATOM     23  C   UNL     1      -0.020  12.349  18.887  0.00  0.00    +0.000 C 
ATOM     24  C   UNL     1       1.371  11.769  19.087  0.00  0.00    +0.000 C 
BRANCH  22  25
ATOM     25  C   UNL     1      -2.350  12.309  19.509  0.00  0.00    +0.000 C 
BRANCH  25  26
ATOM     26  C   UNL     1      -2.803  11.586  18.268  0.00  0.00    +0.000 A 
ATOM     27  C   UNL     1      -4.113  11.779  17.786  0.00  0.00    +0.000 A 
ATOM     28  C   UNL     1      -4.545  11.126  16.633  0.00  0.00    +0.000 A 
ATOM     29  C   UNL     1      -3.672  10.282  15.951  0.00  0.00    +0.000 A 
ATOM     30  C   UNL     1      -2.370  10.099  16.411  0.00  0.00    +0.000 A 
ATOM     31  C   UNL     1      -1.931  10.761  17.554  0.00  0.00    +0.000 A 
ENDBRANCH  25  26
ENDBRANCH  22  25
ENDBRANCH  17  19
ENDBRANCH   1  17
TORSDOF 6
ENDMDL
MODEL 6
REMARK VINA RESULT:      -8.0      2.251      2.973
REMARK  Name = 
REMARK  7 active torsions:
REMARK  status: ('A' for Active; 'I' for Inactive)
REMARK    1  A    between atoms: C_1  and  N_2
REMARK    2  A    between atoms: C_6  and  C_8
REMARK    3  A    between atoms: C_8  and  N_9
REMARK    4  A    between atoms: N_9  and  C_10
REMARK    5  A    between atoms: N_13  and  C_14
REMARK    6  A    between atoms: C_14  and  C_15
REMARK    7  A    between atoms: C_23  and  C_24
REMARK                            x       y       z     vdW  Elec       q    Type
REMARK                         _______ _______ _______ _____ _____    ______ ____
ROOT
ATOM      1  C   UNL     1       2.422   9.017  18.008  0.00  0.00    +0.000 C 
ENDROOT
BRANCH   1   7
ATOM      2  C   UNL     1       7.243   4.675  17.189  0.00  0.00    +0.000 C 
ATOM      3  N   UNL     1       5.896   5.219  17.018  0.00  0.00    +0.000 NA
ATOM      4  C   UNL     1       5.916   6.686  17.138  0.00  0.00    +0.000 C 
ATOM      5  C   UNL     1       4.515   7.292  16.954  0.00  0.00    +0.000 C 
ATOM      6  N   UNL     1       3.554   6.757  17.926  0.00  0.00    +0.000 N 
ATOM      7  C   UNL     1       2.632   7.595  18.575  0.00  0.00    +0.000 C 
ATOM      8  O   UNL     1       2.027   7.264  19.589  0.00  0.00    +0.000 OA
ATOM      9  C   UNL     1       3.550   5.249  17.987  0.00  0.00    +0.000 C 
ATOM     10  C   UNL     1       4.988   4.656  18.047  0.00  0.00    +0.000 C 
BRANCH   9  11
ATOM     11  C   UNL     1       2.648   4.554  18.992  0.00  0.00    +0.000 A 
ATOM     12  C   UNL     1       3.008   4.482  20.352  0.00  0.00    +0.000 A 
ATOM     13  C   UNL     1       2.241   3.741  21.256  0.00  0.00    +0.000 A 
ATOM     14  C   UNL     1       1.089   3.090  20.824  0.00  0.00    +0.000 A 
ATOM     15  C   UNL     1       0.685   3.212  19.494  0.00  0.00    +0.000 A 
ATOM     16  C   UNL     1       1.443   3.960  18.596  0.00  0.00    +0.000 A 
ENDBRANCH   9  11
ENDBRANCH   1   7
BRANCH   1  17
ATOM     17  N   UNL     1       1.016   9.388  17.754  0.00  0.00    +0.000 NA
ATOM     18  H   UNL     1       0.567   8.580  17.320  0.00  0.00    +0.000 HD
BRANCH  17  19
ATOM     19  C   UNL     1       0.128   9.855  18.836  0.00  0.00    +0.000 C 
ATOM     20  C   UNL     1      -1.113  10.671  18.468  0.00  0.00    +0.000 C 
ATOM     21  C   UNL     1      -0.881  12.172  18.356  0.00  0.00    +0.000 C 
ATOM     22  N   UNL     1      -0.009  12.808  19.371  0.00  0.00    +0.000 NA
ATOM     23  C   UNL     1       1.130  11.982  19.792  0.00  0.00    +0.000 C 
ATOM     24  C   UNL     1       0.801  10.518  20.034  0.00  0.00    +0.000 C 
BRANCH  22  25
ATOM     25  C   UNL     1       0.489  14.070  18.768  0.00  0.00    +0.000 C 
BRANCH  25  26
ATOM     26  C   UNL     1      -0.310  15.326  18.993  0.00  0.00    +0.000 A 
ATOM     27  C   UNL     1      -1.139  15.434  20.127  0.00  0.00    +0.000 A 
ATOM     28  C   UNL     1      -1.877  16.593  20.355  0.00  0.00    +0.000 A 
ATOM     29  C   UNL     1      -1.790  17.654  19.458  0.00  0.00    +0.000 A 
ATOM     30  C   UNL     1      -0.959  17.563  18.343  0.00  0.00    +0.000 A 
ATOM     31  C   UNL     1      -0.210  16.412  18.120  0.00  0.00    +0.000 A 
ENDBRANCH  25  26
ENDBRANCH  22  25
ENDBRANCH  17  19
ENDBRANCH   1  17
TORSDOF 6
ENDMDL
MODEL 7
REMARK VINA RESULT:      -7.8      2.155      2.929
REMARK  Name = 
REMARK  7 active torsions:
REMARK  status: ('A' for Active; 'I' for Inactive)
REMARK    1  A    between atoms: C_1  and  N_2
REMARK    2  A    between atoms: C_6  and  C_8
REMARK    3  A    between atoms: C_8  and  N_9
REMARK    4  A    between atoms: N_9  and  C_10
REMARK    5  A    between atoms: N_13  and  C_14
REMARK    6  A    between atoms: C_14  and  C_15
REMARK    7  A    between atoms: C_23  and  C_24
REMARK                            x       y       z     vdW  Elec       q    Type
REMARK                         _______ _______ _______ _____ _____    ______ ____
ROOT
ATOM      1  C   UNL     1       2.461   8.833  18.040  0.00  0.00    +0.000 C 
ENDROOT
BRANCH   1   7
ATOM      2  C   UNL     1       7.315   4.577  17.002  0.00  0.00    +0.000 C 
ATOM      3  N   UNL     1       5.960   5.110  16.871  0.00  0.00    +0.000 NA
ATOM      4  C   UNL     1       5.965   6.573  17.037  0.00  0.00    +0.000 C 
ATOM      5  C   UNL     1       4.555   7.168  16.896  0.00  0.00    +0.000 C 
ATOM      6  N   UNL     1       3.617   6.591  17.867  0.00  0.00    +0.000 N 
ATOM      7  C   UNL     1       2.696   7.397  18.558  0.00  0.00    +0.000 C 
ATOM      8  O   UNL     1       2.113   7.027  19.571  0.00  0.00    +0.000 OA
ATOM      9  C   UNL     1       3.631   5.082  17.880  0.00  0.00    +0.000 C 
ATOM     10  C   UNL     1       5.077   4.504  17.897  0.00  0.00    +0.000 C 
BRANCH   9  11
ATOM     11  C   UNL     1       2.754   4.345  18.878  0.00  0.00    +0.000 A 
ATOM     12  C   UNL     1       1.487   3.858  18.500  0.00  0.00    +0.000 A 
ATOM     13  C   UNL     1       0.631   3.286  19.445  0.00  0.00    +0.000 A 
ATOM     14  C   UNL     1       1.036   3.163  20.770  0.00  0.00    +0.000 A 
ATOM     15  C   UNL     1       2.315   3.578  21.142  0.00  0.00    +0.000 A 
ATOM     16  C   UNL     1       3.174   4.138  20.198  0.00  0.00    +0.000 A 
ENDBRANCH   9  11
ENDBRANCH   1   7
BRANCH   1  17
ATOM     17  N   UNL     1       1.044   9.211  17.866  0.00  0.00    +0.000 NA
ATOM     18  H   UNL     1       0.568   8.405  17.458  0.00  0.00    +0.000 HD
BRANCH  17  19
ATOM     19  C   UNL     1       0.222   9.683  18.996  0.00  0.00    +0.000 C 
ATOM     20  C   UNL     1      -1.117  10.362  18.699  0.00  0.00    +0.000 C 
ATOM     21  C   UNL     1      -1.032  11.864  18.465  0.00  0.00    +0.000 C 
ATOM     22  N   UNL     1      -0.131  12.645  19.345  0.00  0.00    +0.000 NA
ATOM     23  C   UNL     1       1.111  11.951  19.706  0.00  0.00    +0.000 C 
ATOM     24  C   UNL     1       0.939  10.487  20.076  0.00  0.00    +0.000 C 
BRANCH  22  25
ATOM     25  C   UNL     1       0.193  13.896  18.614  0.00  0.00    +0.000 C 
BRANCH  25  26
ATOM     26  C   UNL     1      -0.449  15.176  19.080  0.00  0.00    +0.000 A 
ATOM     27  C   UNL     1      -0.288  16.354  18.325  0.00  0.00    +0.000 A 
ATOM     28  C   UNL     1      -0.884  17.544  18.736  0.00  0.00    +0.000 A 
ATOM     29  C   UNL     1      -1.648  17.566  19.899  0.00  0.00    +0.000 A 
ATOM     30  C   UNL     1      -1.828  16.402  20.643  0.00  0.00    +0.000 A 
ATOM     31  C   UNL     1      -1.245  15.209  20.227  0.00  0.00    +0.000 A 
ENDBRANCH  25  26
ENDBRANCH  22  25
ENDBRANCH  17  19
ENDBRANCH   1  17
TORSDOF 6
ENDMDL
MODEL 8
REMARK VINA RESULT:      -7.8      1.513      2.126
REMARK  Name = 
REMARK  7 active torsions:
REMARK  status: ('A' for Active; 'I' for Inactive)
REMARK    1  A    between atoms: C_1  and  N_2
REMARK    2  A    between atoms: C_6  and  C_8
REMARK    3  A    between atoms: C_8  and  N_9
REMARK    4  A    between atoms: N_9  and  C_10
REMARK    5  A    between atoms: N_13  and  C_14
REMARK    6  A    between atoms: C_14  and  C_15
REMARK    7  A    between atoms: C_23  and  C_24
REMARK                            x       y       z     vdW  Elec       q    Type
REMARK                         _______ _______ _______ _____ _____    ______ ____
ROOT
ATOM      1  C   UNL     1       2.337   8.592  17.743  0.00  0.00    +0.000 C 
ENDROOT
BRANCH   1   7
ATOM      2  C   UNL     1       7.494   4.583  17.428  0.00  0.00    +0.000 C 
ATOM      3  N   UNL     1       6.124   5.016  17.156  0.00  0.00    +0.000 NA
ATOM      4  C   UNL     1       6.032   6.484  17.191  0.00  0.00    +0.000 C 
ATOM      5  C   UNL     1       4.604   6.973  16.900  0.00  0.00    +0.000 C 
ATOM      6  N   UNL     1       3.632   6.422  17.852  0.00  0.00    +0.000 N 
ATOM      7  C   UNL     1       2.617   7.223  18.402  0.00  0.00    +0.000 C 
ATOM      8  O   UNL     1       1.982   6.904  19.402  0.00  0.00    +0.000 OA
ATOM      9  C   UNL     1       3.732   4.924  18.001  0.00  0.00    +0.000 C 
ATOM     10  C   UNL     1       5.203   4.443  18.169  0.00  0.00    +0.000 C 
BRANCH   9  11
ATOM     11  C   UNL     1       2.827   4.219  18.998  0.00  0.00    +0.000 A 
ATOM     12  C   UNL     1       1.620   3.627  18.579  0.00  0.00    +0.000 A 
ATOM     13  C   UNL     1       0.730   3.083  19.511  0.00  0.00    +0.000 A 
ATOM     14  C   UNL     1       1.046   3.095  20.866  0.00  0.00    +0.000 A 
ATOM     15  C   UNL     1       2.270   3.616  21.285  0.00  0.00    +0.000 A 
ATOM     16  C   UNL     1       3.162   4.147  20.356  0.00  0.00    +0.000 A 
ENDBRANCH   9  11
ENDBRANCH   1   7
BRANCH   1  17
ATOM     17  N   UNL     1       1.191   9.334  18.303  0.00  0.00    +0.000 NA
ATOM     18  H   UNL     1       0.563   8.644  18.719  0.00  0.00    +0.000 HD
BRANCH  17  19
ATOM     19  C   UNL     1       1.373  10.414  19.291  0.00  0.00    +0.000 C 
ATOM     20  C   UNL     1       0.643  10.315  20.632  0.00  0.00    +0.000 C 
ATOM     21  C   UNL     1      -0.765  10.896  20.637  0.00  0.00    +0.000 C 
ATOM     22  N   UNL     1      -0.983  12.170  19.913  0.00  0.00    +0.000 NA
ATOM     23  C   UNL     1      -0.207  12.302  18.674  0.00  0.00    +0.000 C 
ATOM     24  C   UNL     1       1.239  11.844  18.775  0.00  0.00    +0.000 C 
BRANCH  22  25
ATOM     25  C   UNL     1      -2.433  12.235  19.600  0.00  0.00    +0.000 C 
BRANCH  25  26
ATOM     26  C   UNL     1      -3.310  13.086  20.480  0.00  0.00    +0.000 A 
ATOM     27  C   UNL     1      -4.572  12.606  20.883  0.00  0.00    +0.000 A 
ATOM     28  C   UNL     1      -5.391  13.376  21.705  0.00  0.00    +0.000 A 
ATOM     29  C   UNL     1      -4.957  14.626  22.135  0.00  0.00    +0.000 A 
ATOM     30  C   UNL     1      -3.703  15.102  21.756  0.00  0.00    +0.000 A 
ATOM     31  C   UNL     1      -2.877  14.329  20.946  0.00  0.00    +0.000 A 
ENDBRANCH  25  26
ENDBRANCH  22  25
ENDBRANCH  17  19
ENDBRANCH   1  17
TORSDOF 6
ENDMDL
MODEL 9
REMARK VINA RESULT:      -7.8      0.789      1.297
REMARK  Name = 
REMARK  7 active torsions:
REMARK  status: ('A' for Active; 'I' for Inactive)
REMARK    1  A    between atoms: C_1  and  N_2
REMARK    2  A    between atoms: C_6  and  C_8
REMARK    3  A    between atoms: C_8  and  N_9
REMARK    4  A    between atoms: N_9  and  C_10
REMARK    5  A    between atoms: N_13  and  C_14
REMARK    6  A    between atoms: C_14  and  C_15
REMARK    7  A    between atoms: C_23  and  C_24
REMARK                            x       y       z     vdW  Elec       q    Type
REMARK                         _______ _______ _______ _____ _____    ______ ____
ROOT
ATOM      1  C   UNL     1       2.269   8.752  17.850  0.00  0.00    +0.000 C 
ENDROOT
BRANCH   1   7
ATOM      2  C   UNL     1       7.318   4.625  17.365  0.00  0.00    +0.000 C 
ATOM      3  N   UNL     1       5.949   5.088  17.141  0.00  0.00    +0.000 NA
ATOM      4  C   UNL     1       5.891   6.558  17.174  0.00  0.00    +0.000 C 
ATOM      5  C   UNL     1       4.465   7.080  16.932  0.00  0.00    +0.000 C 
ATOM      6  N   UNL     1       3.516   6.554  17.920  0.00  0.00    +0.000 N 
ATOM      7  C   UNL     1       2.540   7.379  18.504  0.00  0.00    +0.000 C 
ATOM      8  O   UNL     1       1.935   7.078  19.527  0.00  0.00    +0.000 OA
ATOM      9  C   UNL     1       3.587   5.054  18.072  0.00  0.00    +0.000 C 
ATOM     10  C   UNL     1       5.052   4.540  18.189  0.00  0.00    +0.000 C 
BRANCH   9  11
ATOM     11  C   UNL     1       2.703   4.373  19.103  0.00  0.00    +0.000 A 
ATOM     12  C   UNL     1       3.094   4.311  20.455  0.00  0.00    +0.000 A 
ATOM     13  C   UNL     1       2.342   3.584  21.383  0.00  0.00    +0.000 A 
ATOM     14  C   UNL     1       1.177   2.937  20.983  0.00  0.00    +0.000 A 
ATOM     15  C   UNL     1       0.744   3.049  19.662  0.00  0.00    +0.000 A 
ATOM     16  C   UNL     1       1.486   3.784  18.739  0.00  0.00    +0.000 A 
ENDBRANCH   9  11
ENDBRANCH   1   7
BRANCH   1  17
ATOM     17  N   UNL     1       1.710   9.777  18.754  0.00  0.00    +0.000 NA
ATOM     18  H   UNL     1       2.080  10.678  18.449  0.00  0.00    +0.000 HD
BRANCH  17  19
ATOM     19  C   UNL     1       0.255   9.938  18.939  0.00  0.00    +0.000 C 
ATOM     20  C   UNL     1      -0.393  11.268  18.546  0.00  0.00    +0.000 C 
ATOM     21  C   UNL     1      -0.394  12.326  19.642  0.00  0.00    +0.000 C 
ATOM     22  N   UNL     1      -0.695  11.882  21.022  0.00  0.00    +0.000 NA
ATOM     23  C   UNL     1      -0.152  10.562  21.366  0.00  0.00    +0.000 C 
ATOM     24  C   UNL     1      -0.316   9.505  20.286  0.00  0.00    +0.000 C 
BRANCH  22  25
ATOM     25  C   UNL     1      -0.120  12.907  21.930  0.00  0.00    +0.000 C 
BRANCH  25  26
ATOM     26  C   UNL     1      -1.066  13.705  22.788  0.00  0.00    +0.000 A 
ATOM     27  C   UNL     1      -2.208  13.085  23.332  0.00  0.00    +0.000 A 
ATOM     28  C   UNL     1      -3.088  13.806  24.137  0.00  0.00    +0.000 A 
ATOM     29  C   UNL     1      -2.833  15.147  24.408  0.00  0.00    +0.000 A 
ATOM     30  C   UNL     1      -1.697  15.764  23.888  0.00  0.00    +0.000 A 
ATOM     31  C   UNL     1      -0.809  15.042  23.096  0.00  0.00    +0.000 A 
ENDBRANCH  25  26
ENDBRANCH  22  25
ENDBRANCH  17  19
ENDBRANCH   1  17
TORSDOF 6
ENDMDL
