MODEL 1
REMARK VINA RESULT:      -7.4      0.000      0.000
REMARK  Name = 
REMARK  9 active torsions:
REMARK  status: ('A' for Active; 'I' for Inactive)
REMARK    1  A    between atoms: C_1  and  C_2
REMARK    2  A    between atoms: C_2  and  C_3
REMARK    3  A    between atoms: C_3  and  C_4
REMARK    4  A    between atoms: C_4  and  N_5
REMARK    5  A    between atoms: N_5  and  C_6
REMARK    6  A    between atoms: C_6  and  C_7
REMARK    7  A    between atoms: C_7  and  C_8
REMARK    8  A    between atoms: C_8  and  C_9
REMARK    9  A    between atoms: C_16  and  C_17
REMARK                            x       y       z     vdW  Elec       q    Type
REMARK                         _______ _______ _______ _____ _____    ______ ____
ROOT
ATOM      1  N   UNL     1       5.415   4.685  15.871  0.00  0.00    +0.000 N 
ATOM      2  C   UNL     1       4.481   4.544  16.892  0.00  0.00    +0.000 A 
ATOM      3  N   UNL     1       4.140   5.509  17.684  0.00  0.00    +0.000 NA
ATOM      4  C   UNL     1       3.187   5.262  18.665  0.00  0.00    +0.000 A 
ATOM      5  C   UNL     1       2.771   6.325  19.470  0.00  0.00    +0.000 A 
ATOM      6  C   UNL     1       1.801   6.138  20.451  0.00  0.00    +0.000 A 
ATOM      7  C   UNL     1       1.262   4.873  20.656  0.00  0.00    +0.000 A 
ATOM      8  C   UNL     1       1.683   3.780  19.882  0.00  0.00    +0.000 A 
ATOM      9  C   UNL     1       1.099   2.425  20.174  0.00  0.00    +0.000 C 
ATOM     10  C   UNL     1       2.643   3.998  18.868  0.00  0.00    +0.000 A 
ATOM     11  C   UNL     1       3.114   2.945  17.947  0.00  0.00    +0.000 A 
ATOM     12  O   UNL     1       2.722   1.787  18.038  0.00  0.00    +0.000 OA
ATOM     13  O   UNL     1       3.981   3.293  16.977  0.00  0.00    +0.000 OA
ENDROOT
BRANCH   1  14
ATOM     14  C   UNL     1       5.607   3.640  14.852  0.00  0.00    +0.000 C 
BRANCH  14  15
ATOM     15  C   UNL     1       6.312   4.095  13.572  0.00  0.00    +0.000 C 
BRANCH  15  17
ATOM     16  C   UNL     1       4.633   3.344  11.777  0.00  0.00    +0.000 C 
ATOM     17  C   UNL     1       6.058   3.278  12.302  0.00  0.00    +0.000 C 
ENDBRANCH  15  17
ENDBRANCH  14  15
ENDBRANCH   1  14
BRANCH   1  18
ATOM     18  C   UNL     1       6.182   5.935  15.762  0.00  0.00    +0.000 C 
BRANCH  18  19
ATOM     19  C   UNL     1       7.467   5.993  16.593  0.00  0.00    +0.000 C 
BRANCH  19  20
ATOM     20  C   UNL     1       7.395   6.808  17.885  0.00  0.00    +0.000 C 
ATOM     21  C   UNL     1       7.858   8.241  17.629  0.00  0.00    +0.000 C 
ENDBRANCH  19  20
ENDBRANCH  18  19
ENDBRANCH   1  18
TORSDOF 6
ENDMDL
MODEL 2
REMARK VINA RESULT:      -7.3      1.096      1.253
REMARK  Name = 
REMARK  9 active torsions:
REMARK  status: ('A' for Active; 'I' for Inactive)
REMARK    1  A    between atoms: C_1  and  C_2
REMARK    2  A    between atoms: C_2  and  C_3
REMARK    3  A    between atoms: C_3  and  C_4
REMARK    4  A    between atoms: C_4  and  N_5
REMARK    5  A    between atoms: N_5  and  C_6
REMARK    6  A    between atoms: C_6  and  C_7
REMARK    7  A    between atoms: C_7  and  C_8
REMARK    8  A    between atoms: C_8  and  C_9
REMARK    9  A    between atoms: C_16  and  C_17
REMARK                            x       y       z     vdW  Elec       q    Type
REMARK                         _______ _______ _______ _____ _____    ______ ____
ROOT
ATOM      1  N   UNL     1       5.383   5.919  16.382  0.00  0.00    +0.000 N 
ATOM      2  C   UNL     1       4.388   5.356  17.175  0.00  0.00    +0.000 A 
ATOM      3  N   UNL     1       4.081   5.795  18.352  0.00  0.00    +0.000 NA
ATOM      4  C   UNL     1       3.060   5.164  19.054  0.00  0.00    +0.000 A 
ATOM      5  C   UNL     1       2.686   5.688  20.294  0.00  0.00    +0.000 A 
ATOM      6  C   UNL     1       1.652   5.110  21.027  0.00  0.00    +0.000 A 
ATOM      7  C   UNL     1       1.006   3.980  20.538  0.00  0.00    +0.000 A 
ATOM      8  C   UNL     1       1.382   3.415  19.309  0.00  0.00    +0.000 A 
ATOM      9  C   UNL     1       0.679   2.168  18.846  0.00  0.00    +0.000 C 
ATOM     10  C   UNL     1       2.409   4.038  18.563  0.00  0.00    +0.000 A 
ATOM     11  C   UNL     1       2.846   3.579  17.230  0.00  0.00    +0.000 A 
ATOM     12  O   UNL     1       2.361   2.586  16.701  0.00  0.00    +0.000 OA
ATOM     13  O   UNL     1       3.788   4.297  16.589  0.00  0.00    +0.000 OA
ENDROOT
BRANCH   1  14
ATOM     14  C   UNL     1       5.548   5.543  14.968  0.00  0.00    +0.000 C 
BRANCH  14  15
ATOM     15  C   UNL     1       6.537   4.406  14.704  0.00  0.00    +0.000 C 
BRANCH  15  17
ATOM     16  C   UNL     1       6.993   4.068  12.197  0.00  0.00    +0.000 C 
ATOM     17  C   UNL     1       6.309   3.552  13.453  0.00  0.00    +0.000 C 
ENDBRANCH  15  17
ENDBRANCH  14  15
ENDBRANCH   1  14
BRANCH   1  18
ATOM     18  C   UNL     1       6.250   6.964  16.948  0.00  0.00    +0.000 C 
BRANCH  18  19
ATOM     19  C   UNL     1       7.464   6.459  17.731  0.00  0.00    +0.000 C 
BRANCH  19  20
ATOM     20  C   UNL     1       8.263   7.521  18.490  0.00  0.00    +0.000 C 
ATOM     21  C   UNL     1       8.064   8.889  17.842  0.00  0.00    +0.000 C 
ENDBRANCH  19  20
ENDBRANCH  18  19
ENDBRANCH   1  18
TORSDOF 6
ENDMDL
MODEL 3
REMARK VINA RESULT:      -7.2      1.322      4.167
REMARK  Name = 
REMARK  9 active torsions:
REMARK  status: ('A' for Active; 'I' for Inactive)
REMARK    1  A    between atoms: C_1  and  C_2
REMARK    2  A    between atoms: C_2  and  C_3
REMARK    3  A    between atoms: C_3  and  C_4
REMARK    4  A    between atoms: C_4  and  N_5
REMARK    5  A    between atoms: N_5  and  C_6
REMARK    6  A    between atoms: C_6  and  C_7
REMARK    7  A    between atoms: C_7  and  C_8
REMARK    8  A    between atoms: C_8  and  C_9
REMARK    9  A    between atoms: C_16  and  C_17
REMARK                            x       y       z     vdW  Elec       q    Type
REMARK                         _______ _______ _______ _____ _____    ______ ____
ROOT
ATOM      1  N   UNL     1       5.448   5.041  15.845  0.00  0.00    +0.000 N 
ATOM      2  C   UNL     1       4.467   4.764  16.792  0.00  0.00    +0.000 A 
ATOM      3  N   UNL     1       3.776   3.671  16.803  0.00  0.00    +0.000 NA
ATOM      4  C   UNL     1       2.827   3.491  17.803  0.00  0.00    +0.000 A 
ATOM      5  C   UNL     1       2.136   2.279  17.853  0.00  0.00    +0.000 A 
ATOM      6  C   UNL     1       1.193   2.037  18.849  0.00  0.00    +0.000 A 
ATOM      7  C   UNL     1       0.912   3.025  19.787  0.00  0.00    +0.000 A 
ATOM      8  C   UNL     1       1.570   4.264  19.744  0.00  0.00    +0.000 A 
ATOM      9  C   UNL     1       1.197   5.312  20.755  0.00  0.00    +0.000 C 
ATOM     10  C   UNL     1       2.549   4.475  18.745  0.00  0.00    +0.000 A 
ATOM     11  C   UNL     1       3.355   5.708  18.638  0.00  0.00    +0.000 A 
ATOM     12  O   UNL     1       3.188   6.654  19.399  0.00  0.00    +0.000 OA
ATOM     13  O   UNL     1       4.305   5.763  17.686  0.00  0.00    +0.000 OA
ENDROOT
BRANCH   1  14
ATOM     14  C   UNL     1       6.366   6.183  15.995  0.00  0.00    +0.000 C 
BRANCH  14  15
ATOM     15  C   UNL     1       7.530   5.962  16.964  0.00  0.00    +0.000 C 
BRANCH  15  17
ATOM     16  C   UNL     1       7.936   8.402  17.665  0.00  0.00    +0.000 C 
ATOM     17  C   UNL     1       7.692   6.968  18.108  0.00  0.00    +0.000 C 
ENDBRANCH  15  17
ENDBRANCH  14  15
ENDBRANCH   1  14
BRANCH   1  18
ATOM     18  C   UNL     1       5.620   4.135  14.699  0.00  0.00    +0.000 C 
BRANCH  18  19
ATOM     19  C   UNL     1       6.782   4.472  13.762  0.00  0.00    +0.000 C 
BRANCH  19  20
ATOM     20  C   UNL     1       6.675   3.929  12.336  0.00  0.00    +0.000 C 
ATOM     21  C   UNL     1       5.357   3.178  12.158  0.00  0.00    +0.000 C 
ENDBRANCH  19  20
ENDBRANCH  18  19
ENDBRANCH   1  18
TORSDOF 6
ENDMDL
MODEL 4
REMARK VINA RESULT:      -7.1      1.300      1.818
REMARK  Name = 
REMARK  9 active torsions:
REMARK  status: ('A' for Active; 'I' for Inactive)
REMARK    1  A    between atoms: C_1  and  C_2
REMARK    2  A    between atoms: C_2  and  C_3
REMARK    3  A    between atoms: C_3  and  C_4
REMARK    4  A    between atoms: C_4  and  N_5
REMARK    5  A    between atoms: N_5  and  C_6
REMARK    6  A    between atoms: C_6  and  C_7
REMARK    7  A    between atoms: C_7  and  C_8
REMARK    8  A    between atoms: C_8  and  C_9
REMARK    9  A    between atoms: C_16  and  C_17
REMARK                            x       y       z     vdW  Elec       q    Type
REMARK                         _______ _______ _______ _____ _____    ______ ____
ROOT
ATOM      1  N   UNL     1       6.724   5.103  18.151  0.00  0.00    +0.000 N 
ATOM      2  C   UNL     1       5.427   4.752  18.512  0.00  0.00    +0.000 A 
ATOM      3  N   UNL     1       4.711   5.434  19.347  0.00  0.00    +0.000 NA
ATOM      4  C   UNL     1       3.421   5.000  19.628  0.00  0.00    +0.000 A 
ATOM      5  C   UNL     1       2.628   5.779  20.474  0.00  0.00    +0.000 A 
ATOM      6  C   UNL     1       1.319   5.403  20.768  0.00  0.00    +0.000 A 
ATOM      7  C   UNL     1       0.805   4.223  20.242  0.00  0.00    +0.000 A 
ATOM      8  C   UNL     1       1.589   3.406  19.412  0.00  0.00    +0.000 A 
ATOM      9  C   UNL     1       0.998   2.119  18.905  0.00  0.00    +0.000 C 
ATOM     10  C   UNL     1       2.903   3.823  19.097  0.00  0.00    +0.000 A 
ATOM     11  C   UNL     1       3.799   3.085  18.185  0.00  0.00    +0.000 A 
ATOM     12  O   UNL     1       3.462   2.025  17.671  0.00  0.00    +0.000 OA
ATOM     13  O   UNL     1       5.003   3.621  17.910  0.00  0.00    +0.000 OA
ENDROOT
BRANCH   1  14
ATOM     14  C   UNL     1       7.420   4.441  17.035  0.00  0.00    +0.000 C 
BRANCH  14  15
ATOM     15  C   UNL     1       6.919   4.815  15.638  0.00  0.00    +0.000 C 
BRANCH  15  17
ATOM     16  C   UNL     1       6.125   4.045  13.318  0.00  0.00    +0.000 C 
ATOM     17  C   UNL     1       6.316   3.695  14.785  0.00  0.00    +0.000 C 
ENDBRANCH  15  17
ENDBRANCH  14  15
ENDBRANCH   1  14
BRANCH   1  18
ATOM     18  C   UNL     1       7.395   6.207  18.855  0.00  0.00    +0.000 C 
BRANCH  18  19
ATOM     19  C   UNL     1       8.191   7.167  17.967  0.00  0.00    +0.000 C 
BRANCH  19  20
ATOM     20  C   UNL     1       7.559   8.540  17.729  0.00  0.00    +0.000 C 
ATOM     21  C   UNL     1       8.473   9.638  18.268  0.00  0.00    +0.000 C 
ENDBRANCH  19  20
ENDBRANCH  18  19
ENDBRANCH   1  18
TORSDOF 6
ENDMDL
MODEL 5
REMARK VINA RESULT:      -7.1      1.708      4.387
REMARK  Name = 
REMARK  9 active torsions:
REMARK  status: ('A' for Active; 'I' for Inactive)
REMARK    1  A    between atoms: C_1  and  C_2
REMARK    2  A    between atoms: C_2  and  C_3
REMARK    3  A    between atoms: C_3  and  C_4
REMARK    4  A    between atoms: C_4  and  N_5
REMARK    5  A    between atoms: N_5  and  C_6
REMARK    6  A    between atoms: C_6  and  C_7
REMARK    7  A    between atoms: C_7  and  C_8
REMARK    8  A    between atoms: C_8  and  C_9
REMARK    9  A    between atoms: C_16  and  C_17
REMARK                            x       y       z     vdW  Elec       q    Type
REMARK                         _______ _______ _______ _____ _____    ______ ____
ROOT
ATOM      1  N   UNL     1       6.698   5.149  17.710  0.00  0.00    +0.000 N 
ATOM      2  C   UNL     1       5.434   4.738  18.119  0.00  0.00    +0.000 A 
ATOM      3  N   UNL     1       4.853   3.672  17.672  0.00  0.00    +0.000 NA
ATOM      4  C   UNL     1       3.591   3.347  18.158  0.00  0.00    +0.000 A 
ATOM      5  C   UNL     1       2.999   2.158  17.726  0.00  0.00    +0.000 A 
ATOM      6  C   UNL     1       1.748   1.772  18.201  0.00  0.00    +0.000 A 
ATOM      7  C   UNL     1       1.064   2.593  19.091  0.00  0.00    +0.000 A 
ATOM      8  C   UNL     1       1.623   3.808  19.519  0.00  0.00    +0.000 A 
ATOM      9  C   UNL     1       0.822   4.679  20.448  0.00  0.00    +0.000 C 
ATOM     10  C   UNL     1       2.909   4.164  19.053  0.00  0.00    +0.000 A 
ATOM     11  C   UNL     1       3.627   5.381  19.482  0.00  0.00    +0.000 A 
ATOM     12  O   UNL     1       3.121   6.188  20.253  0.00  0.00    +0.000 OA
ATOM     13  O   UNL     1       4.877   5.575  19.020  0.00  0.00    +0.000 OA
ENDROOT
BRANCH   1  14
ATOM     14  C   UNL     1       7.420   6.230  18.402  0.00  0.00    +0.000 C 
BRANCH  14  15
ATOM     15  C   UNL     1       7.603   7.517  17.594  0.00  0.00    +0.000 C 
BRANCH  15  17
ATOM     16  C   UNL     1       8.064  10.033  17.850  0.00  0.00    +0.000 C 
ATOM     17  C   UNL     1       8.477   8.614  18.210  0.00  0.00    +0.000 C 
ENDBRANCH  15  17
ENDBRANCH  14  15
ENDBRANCH   1  14
BRANCH   1  18
ATOM     18  C   UNL     1       7.363   4.446  16.602  0.00  0.00    +0.000 C 
BRANCH  18  19
ATOM     19  C   UNL     1       6.946   4.888  15.197  0.00  0.00    +0.000 C 
BRANCH  19  20
ATOM     20  C   UNL     1       6.034   3.927  14.432  0.00  0.00    +0.000 C 
ATOM     21  C   UNL     1       6.461   3.853  12.968  0.00  0.00    +0.000 C 
ENDBRANCH  19  20
ENDBRANCH  18  19
ENDBRANCH   1  18
TORSDOF 6
ENDMDL
MODEL 6
REMARK VINA RESULT:      -7.1      1.772      2.119
REMARK  Name = 
REMARK  9 active torsions:
REMARK  status: ('A' for Active; 'I' for Inactive)
REMARK    1  A    between atoms: C_1  and  C_2
REMARK    2  A    between atoms: C_2  and  C_3
REMARK    3  A    between atoms: C_3  and  C_4
REMARK    4  A    between atoms: C_4  and  N_5
REMARK    5  A    between atoms: N_5  and  C_6
REMARK    6  A    between atoms: C_6  and  C_7
REMARK    7  A    between atoms: C_7  and  C_8
REMARK    8  A    between atoms: C_8  and  C_9
REMARK    9  A    between atoms: C_16  and  C_17
REMARK                            x       y       z     vdW  Elec       q    Type
REMARK                         _______ _______ _______ _____ _____    ______ ____
ROOT
ATOM      1  N   UNL     1       6.586   5.641  17.739  0.00  0.00    +0.000 N 
ATOM      2  C   UNL     1       5.479   5.234  18.476  0.00  0.00    +0.000 A 
ATOM      3  N   UNL     1       4.506   6.024  18.795  0.00  0.00    +0.000 NA
ATOM      4  C   UNL     1       3.441   5.509  19.527  0.00  0.00    +0.000 A 
ATOM      5  C   UNL     1       2.360   6.349  19.807  0.00  0.00    +0.000 A 
ATOM      6  C   UNL     1       1.257   5.877  20.513  0.00  0.00    +0.000 A 
ATOM      7  C   UNL     1       1.241   4.566  20.974  0.00  0.00    +0.000 A 
ATOM      8  C   UNL     1       2.327   3.708  20.733  0.00  0.00    +0.000 A 
ATOM      9  C   UNL     1       2.278   2.312  21.291  0.00  0.00    +0.000 C 
ATOM     10  C   UNL     1       3.422   4.196  19.983  0.00  0.00    +0.000 A 
ATOM     11  C   UNL     1       4.588   3.373  19.608  0.00  0.00    +0.000 A 
ATOM     12  O   UNL     1       4.695   2.206  19.968  0.00  0.00    +0.000 OA
ATOM     13  O   UNL     1       5.536   3.933  18.833  0.00  0.00    +0.000 OA
ENDROOT
BRANCH   1  14
ATOM     14  C   UNL     1       7.554   4.671  17.201  0.00  0.00    +0.000 C 
BRANCH  14  15
ATOM     15  C   UNL     1       7.459   4.419  15.694  0.00  0.00    +0.000 C 
BRANCH  15  17
ATOM     16  C   UNL     1       5.159   4.662  14.573  0.00  0.00    +0.000 C 
ATOM     17  C   UNL     1       6.195   3.726  15.176  0.00  0.00    +0.000 C 
ENDBRANCH  15  17
ENDBRANCH  14  15
ENDBRANCH   1  14
BRANCH   1  18
ATOM     18  C   UNL     1       6.761   7.068  17.429  0.00  0.00    +0.000 C 
BRANCH  18  19
ATOM     19  C   UNL     1       8.013   7.721  18.018  0.00  0.00    +0.000 C 
BRANCH  19  20
ATOM     20  C   UNL     1       8.118   9.239  17.859  0.00  0.00    +0.000 C 
ATOM     21  C   UNL     1       9.031   9.818  18.937  0.00  0.00    +0.000 C 
ENDBRANCH  19  20
ENDBRANCH  18  19
ENDBRANCH   1  18
TORSDOF 6
ENDMDL
MODEL 7
REMARK VINA RESULT:      -7.1      1.687      4.474
REMARK  Name = 
REMARK  9 active torsions:
REMARK  status: ('A' for Active; 'I' for Inactive)
REMARK    1  A    between atoms: C_1  and  C_2
REMARK    2  A    between atoms: C_2  and  C_3
REMARK    3  A    between atoms: C_3  and  C_4
REMARK    4  A    between atoms: C_4  and  N_5
REMARK    5  A    between atoms: N_5  and  C_6
REMARK    6  A    between atoms: C_6  and  C_7
REMARK    7  A    between atoms: C_7  and  C_8
REMARK    8  A    between atoms: C_8  and  C_9
REMARK    9  A    between atoms: C_16  and  C_17
REMARK                            x       y       z     vdW  Elec       q    Type
REMARK                         _______ _______ _______ _____ _____    ______ ____
ROOT
ATOM      1  N   UNL     1       6.326   5.717  16.820  0.00  0.00    +0.000 N 
ATOM      2  C   UNL     1       5.279   5.265  17.617  0.00  0.00    +0.000 A 
ATOM      3  N   UNL     1       5.052   4.014  17.853  0.00  0.00    +0.000 NA
ATOM      4  C   UNL     1       3.983   3.674  18.675  0.00  0.00    +0.000 A 
ATOM      5  C   UNL     1       3.786   2.326  18.984  0.00  0.00    +0.000 A 
ATOM      6  C   UNL     1       2.746   1.933  19.823  0.00  0.00    +0.000 A 
ATOM      7  C   UNL     1       1.873   2.887  20.333  0.00  0.00    +0.000 A 
ATOM      8  C   UNL     1       2.029   4.246  20.015  0.00  0.00    +0.000 A 
ATOM      9  C   UNL     1       1.030   5.231  20.558  0.00  0.00    +0.000 C 
ATOM     10  C   UNL     1       3.112   4.627  19.190  0.00  0.00    +0.000 A 
ATOM     11  C   UNL     1       3.419   6.029  18.840  0.00  0.00    +0.000 A 
ATOM     12  O   UNL     1       2.713   6.956  19.219  0.00  0.00    +0.000 OA
ATOM     13  O   UNL     1       4.520   6.270  18.103  0.00  0.00    +0.000 OA
ENDROOT
BRANCH   1  14
ATOM     14  C   UNL     1       6.691   7.142  16.759  0.00  0.00    +0.000 C 
BRANCH  14  15
ATOM     15  C   UNL     1       7.736   7.594  17.782  0.00  0.00    +0.000 C 
BRANCH  15  17
ATOM     16  C   UNL     1       9.004   9.494  18.960  0.00  0.00    +0.000 C 
ATOM     17  C   UNL     1       8.067   9.088  17.833  0.00  0.00    +0.000 C 
ENDBRANCH  15  17
ENDBRANCH  14  15
ENDBRANCH   1  14
BRANCH   1  18
ATOM     18  C   UNL     1       7.134   4.742  16.071  0.00  0.00    +0.000 C 
BRANCH  18  19
ATOM     19  C   UNL     1       6.997   4.805  14.548  0.00  0.00    +0.000 C 
BRANCH  19  20
ATOM     20  C   UNL     1       5.845   4.000  13.943  0.00  0.00    +0.000 C 
ATOM     21  C   UNL     1       6.217   3.527  12.539  0.00  0.00    +0.000 C 
ENDBRANCH  19  20
ENDBRANCH  18  19
ENDBRANCH   1  18
TORSDOF 6
ENDMDL
MODEL 8
REMARK VINA RESULT:      -7.1      1.590      1.859
REMARK  Name = 
REMARK  9 active torsions:
REMARK  status: ('A' for Active; 'I' for Inactive)
REMARK    1  A    between atoms: C_1  and  C_2
REMARK    2  A    between atoms: C_2  and  C_3
REMARK    3  A    between atoms: C_3  and  C_4
REMARK    4  A    between atoms: C_4  and  N_5
REMARK    5  A    between atoms: N_5  and  C_6
REMARK    6  A    between atoms: C_6  and  C_7
REMARK    7  A    between atoms: C_7  and  C_8
REMARK    8  A    between atoms: C_8  and  C_9
REMARK    9  A    between atoms: C_16  and  C_17
REMARK                            x       y       z     vdW  Elec       q    Type
REMARK                         _______ _______ _______ _____ _____    ______ ____
ROOT
ATOM      1  N   UNL     1       6.218   4.833  17.192  0.00  0.00    +0.000 N 
ATOM      2  C   UNL     1       5.078   4.353  17.827  0.00  0.00    +0.000 A 
ATOM      3  N   UNL     1       4.996   4.175  19.105  0.00  0.00    +0.000 NA
ATOM      4  C   UNL     1       3.802   3.700  19.637  0.00  0.00    +0.000 A 
ATOM      5  C   UNL     1       3.695   3.578  21.024  0.00  0.00    +0.000 A 
ATOM      6  C   UNL     1       2.513   3.132  21.611  0.00  0.00    +0.000 A 
ATOM      7  C   UNL     1       1.436   2.774  20.807  0.00  0.00    +0.000 A 
ATOM      8  C   UNL     1       1.525   2.859  19.409  0.00  0.00    +0.000 A 
ATOM      9  C   UNL     1       0.347   2.417  18.585  0.00  0.00    +0.000 C 
ATOM     10  C   UNL     1       2.722   3.347  18.835  0.00  0.00    +0.000 A 
ATOM     11  C   UNL     1       2.912   3.545  17.384  0.00  0.00    +0.000 A 
ATOM     12  O   UNL     1       2.040   3.251  16.575  0.00  0.00    +0.000 OA
ATOM     13  O   UNL     1       4.074   4.082  16.965  0.00  0.00    +0.000 OA
ENDROOT
BRANCH   1  14
ATOM     14  C   UNL     1       6.202   5.239  15.776  0.00  0.00    +0.000 C 
BRANCH  14  15
ATOM     15  C   UNL     1       6.637   4.160  14.781  0.00  0.00    +0.000 C 
BRANCH  15  17
ATOM     16  C   UNL     1       6.411   3.540  12.297  0.00  0.00    +0.000 C 
ATOM     17  C   UNL     1       5.704   3.876  13.601  0.00  0.00    +0.000 C 
ENDBRANCH  15  17
ENDBRANCH  14  15
ENDBRANCH   1  14
BRANCH   1  18
ATOM     18  C   UNL     1       7.457   5.005  17.967  0.00  0.00    +0.000 C 
BRANCH  18  19
ATOM     19  C   UNL     1       7.700   6.413  18.516  0.00  0.00    +0.000 C 
BRANCH  19  20
ATOM     20  C   UNL     1       7.609   7.554  17.501  0.00  0.00    +0.000 C 
ATOM     21  C   UNL     1       8.227   8.824  18.083  0.00  0.00    +0.000 C 
ENDBRANCH  19  20
ENDBRANCH  18  19
ENDBRANCH   1  18
TORSDOF 6
ENDMDL
MODEL 9
REMARK VINA RESULT:      -7.0      0.663      1.040
REMARK  Name = 
REMARK  9 active torsions:
REMARK  status: ('A' for Active; 'I' for Inactive)
REMARK    1  A    between atoms: C_1  and  C_2
REMARK    2  A    between atoms: C_2  and  C_3
REMARK    3  A    between atoms: C_3  and  C_4
REMARK    4  A    between atoms: C_4  and  N_5
REMARK    5  A    between atoms: N_5  and  C_6
REMARK    6  A    between atoms: C_6  and  C_7
REMARK    7  A    between atoms: C_7  and  C_8
REMARK    8  A    between atoms: C_8  and  C_9
REMARK    9  A    between atoms: C_16  and  C_17
REMARK                            x       y       z     vdW  Elec       q    Type
REMARK                         _______ _______ _______ _____ _____    ______ ____
ROOT
ATOM      1  N   UNL     1       5.573   4.731  16.043  0.00  0.00    +0.000 N 
ATOM      2  C   UNL     1       4.629   4.556  17.050  0.00  0.00    +0.000 A 
ATOM      3  N   UNL     1       4.185   5.523  17.786  0.00  0.00    +0.000 NA
ATOM      4  C   UNL     1       3.232   5.237  18.758  0.00  0.00    +0.000 A 
ATOM      5  C   UNL     1       2.704   6.296  19.501  0.00  0.00    +0.000 A 
ATOM      6  C   UNL     1       1.729   6.069  20.468  0.00  0.00    +0.000 A 
ATOM      7  C   UNL     1       1.297   4.772  20.723  0.00  0.00    +0.000 A 
ATOM      8  C   UNL     1       1.832   3.686  20.012  0.00  0.00    +0.000 A 
ATOM      9  C   UNL     1       1.362   2.299  20.357  0.00  0.00    +0.000 C 
ATOM     10  C   UNL     1       2.795   3.942  19.009  0.00  0.00    +0.000 A 
ATOM     11  C   UNL     1       3.381   2.893  18.151  0.00  0.00    +0.000 A 
ATOM     12  O   UNL     1       3.089   1.710  18.290  0.00  0.00    +0.000 OA
ATOM     13  O   UNL     1       4.238   3.271  17.184  0.00  0.00    +0.000 OA
ENDROOT
BRANCH   1  14
ATOM     14  C   UNL     1       5.882   3.661  15.080  0.00  0.00    +0.000 C 
BRANCH  14  15
ATOM     15  C   UNL     1       5.575   3.988  13.617  0.00  0.00    +0.000 C 
BRANCH  15  17
ATOM     16  C   UNL     1       7.615   5.056  12.475  0.00  0.00    +0.000 C 
ATOM     17  C   UNL     1       6.717   3.836  12.609  0.00  0.00    +0.000 C 
ENDBRANCH  15  17
ENDBRANCH  14  15
ENDBRANCH   1  14
BRANCH   1  18
ATOM     18  C   UNL     1       6.231   6.038  15.891  0.00  0.00    +0.000 C 
BRANCH  18  19
ATOM     19  C   UNL     1       7.570   6.190  16.617  0.00  0.00    +0.000 C 
BRANCH  19  20
ATOM     20  C   UNL     1       7.519   6.873  17.984  0.00  0.00    +0.000 C 
ATOM     21  C   UNL     1       7.676   5.836  19.095  0.00  0.00    +0.000 C 
ENDBRANCH  19  20
ENDBRANCH  18  19
ENDBRANCH   1  18
TORSDOF 6
ENDMDL
