MODEL 1
REMARK VINA RESULT:      -8.8      0.000      0.000
REMARK  Name = 
REMARK  4 active torsions:
REMARK  status: ('A' for Active; 'I' for Inactive)
REMARK    1  A    between atoms: C_1  and  O_2
REMARK    2  A    between atoms: O_2  and  C_3
REMARK    3  A    between atoms: C_8  and  C_9
REMARK    4  A    between atoms: C_16  and  C_18
REMARK                            x       y       z     vdW  Elec       q    Type
REMARK                         _______ _______ _______ _____ _____    ______ ____
ROOT
ATOM      1  C   UNL     1       3.109   6.458  18.594  0.00  0.00    +0.000 A 
ATOM      2  C   UNL     1       2.874   5.762  19.864  0.00  0.00    +0.000 A 
ATOM      3  C   UNL     1       2.126   6.347  20.809  0.00  0.00    +0.000 A 
ATOM      4  N   UNL     1       1.587   7.606  20.580  0.00  0.00    +0.000 N 
ATOM      5  N   UNL     1       0.822   8.333  21.406  0.00  0.00    +0.000 NA
ATOM      6  C   UNL     1       0.590   9.446  20.720  0.00  0.00    +0.000 A 
ATOM      7  N   UNL     1      -0.151  10.519  21.162  0.00  0.00    +0.000 N 
ATOM      8  C   UNL     1      -0.553  10.640  22.478  0.00  0.00    +0.000 C 
ATOM      9  O   UNL     1      -0.265   9.887  23.403  0.00  0.00    +0.000 OA
ATOM     10  N   UNL     1       1.143   9.472  19.465  0.00  0.00    +0.000 NA
ATOM     11  C   UNL     1       1.788   8.318  19.398  0.00  0.00    +0.000 A 
ATOM     12  C   UNL     1       2.593   7.697  18.390  0.00  0.00    +0.000 A 
ATOM     13  H   UNL     1      -0.278  11.255  20.486  0.00  0.00    +0.000 HD
ENDROOT
BRANCH   8  14
ATOM     14  C   UNL     1      -1.377  11.825  22.835  0.00  0.00    +0.000 A 
ATOM     15  C   UNL     1      -0.779  13.089  22.690  0.00  0.00    +0.000 A 
ATOM     16  C   UNL     1      -1.433  14.243  23.119  0.00  0.00    +0.000 A 
ATOM     17  C   UNL     1      -2.692  14.139  23.704  0.00  0.00    +0.000 A 
ATOM     18  C   UNL     1      -3.290  12.885  23.847  0.00  0.00    +0.000 A 
ATOM     19 CL   UNL     1      -4.831  12.773  24.607  0.00  0.00    +0.000 Cl
ATOM     20  C   UNL     1      -2.645  11.722  23.414  0.00  0.00    +0.000 A 
ENDBRANCH   8  14
BRANCH   1  26
ATOM     21  C   UNL     1       3.836   4.410  17.308  0.00  0.00    +0.000 A 
ATOM     22  C   UNL     1       4.608   3.829  16.295  0.00  0.00    +0.000 A 
ATOM     23  C   UNL     1       5.483   4.608  15.537  0.00  0.00    +0.000 A 
ATOM     24  C   UNL     1       5.580   5.976  15.776  0.00  0.00    +0.000 A 
ATOM     25  C   UNL     1       4.782   6.574  16.755  0.00  0.00    +0.000 A 
ATOM     26  C   UNL     1       3.890   5.802  17.518  0.00  0.00    +0.000 A 
BRANCH  21  28
ATOM     27  C   UNL     1       2.965   2.279  17.837  0.00  0.00    +0.000 C 
ATOM     28  O   UNL     1       2.992   3.679  18.109  0.00  0.00    +0.000 OA
ENDBRANCH  21  28
ENDBRANCH   1  26
TORSDOF 3
ENDMDL
MODEL 2
REMARK VINA RESULT:      -8.8      3.569      4.290
REMARK  Name = 
REMARK  4 active torsions:
REMARK  status: ('A' for Active; 'I' for Inactive)
REMARK    1  A    between atoms: C_1  and  O_2
REMARK    2  A    between atoms: O_2  and  C_3
REMARK    3  A    between atoms: C_8  and  C_9
REMARK    4  A    between atoms: C_16  and  C_18
REMARK                            x       y       z     vdW  Elec       q    Type
REMARK                         _______ _______ _______ _____ _____    ______ ____
ROOT
ATOM      1  C   UNL     1       2.283   6.547  19.036  0.00  0.00    +0.000 A 
ATOM      2  C   UNL     1       1.689   6.820  20.349  0.00  0.00    +0.000 A 
ATOM      3  C   UNL     1       1.307   8.067  20.655  0.00  0.00    +0.000 A 
ATOM      4  N   UNL     1       1.485   9.088  19.730  0.00  0.00    +0.000 N 
ATOM      5  N   UNL     1       1.164  10.383  19.867  0.00  0.00    +0.000 NA
ATOM      6  C   UNL     1       1.548  10.923  18.716  0.00  0.00    +0.000 A 
ATOM      7  N   UNL     1       1.434  12.253  18.380  0.00  0.00    +0.000 N 
ATOM      8  C   UNL     1       1.106  13.220  19.311  0.00  0.00    +0.000 C 
ATOM      9  O   UNL     1       0.945  13.050  20.516  0.00  0.00    +0.000 OA
ATOM     10  N   UNL     1       2.078  10.036  17.815  0.00  0.00    +0.000 NA
ATOM     11  C   UNL     1       2.055   8.889  18.474  0.00  0.00    +0.000 A 
ATOM     12  C   UNL     1       2.469   7.557  18.148  0.00  0.00    +0.000 A 
ATOM     13  H   UNL     1       1.718  12.480  17.440  0.00  0.00    +0.000 HD
ENDROOT
BRANCH   8  14
ATOM     14  C   UNL     1       0.981  14.620  18.828  0.00  0.00    +0.000 A 
ATOM     15  C   UNL     1       2.168  15.285  18.473  0.00  0.00    +0.000 A 
ATOM     16  C   UNL     1       2.157  16.636  18.130  0.00  0.00    +0.000 A 
ATOM     17  C   UNL     1       0.954  17.336  18.147  0.00  0.00    +0.000 A 
ATOM     18  C   UNL     1      -0.228  16.679  18.496  0.00  0.00    +0.000 A 
ATOM     19 CL   UNL     1      -1.700  17.570  18.547  0.00  0.00    +0.000 Cl
ATOM     20  C   UNL     1      -0.228  15.321  18.835  0.00  0.00    +0.000 A 
ENDBRANCH   8  14
BRANCH   1  26
ATOM     21  C   UNL     1       3.978   4.687  18.827  0.00  0.00    +0.000 A 
ATOM     22  C   UNL     1       4.298   3.380  18.439  0.00  0.00    +0.000 A 
ATOM     23  C   UNL     1       3.341   2.569  17.829  0.00  0.00    +0.000 A 
ATOM     24  C   UNL     1       2.053   3.053  17.616  0.00  0.00    +0.000 A 
ATOM     25  C   UNL     1       1.711   4.340  18.037  0.00  0.00    +0.000 A 
ATOM     26  C   UNL     1       2.662   5.164  18.662  0.00  0.00    +0.000 A 
BRANCH  21  28
ATOM     27  C   UNL     1       6.260   5.180  19.183  0.00  0.00    +0.000 C 
ATOM     28  O   UNL     1       4.896   5.539  19.393  0.00  0.00    +0.000 OA
ENDBRANCH  21  28
ENDBRANCH   1  26
TORSDOF 3
ENDMDL
MODEL 3
REMARK VINA RESULT:      -8.8      3.351     10.065
REMARK  Name = 
REMARK  4 active torsions:
REMARK  status: ('A' for Active; 'I' for Inactive)
REMARK    1  A    between atoms: C_1  and  O_2
REMARK    2  A    between atoms: O_2  and  C_3
REMARK    3  A    between atoms: C_8  and  C_9
REMARK    4  A    between atoms: C_16  and  C_18
REMARK                            x       y       z     vdW  Elec       q    Type
REMARK                         _______ _______ _______ _____ _____    ______ ____
ROOT
ATOM      1  C   UNL     1      -1.237  12.269  22.367  0.00  0.00    +0.000 A 
ATOM      2  C   UNL     1      -1.019  12.584  20.951  0.00  0.00    +0.000 A 
ATOM      3  C   UNL     1      -0.393  11.697  20.166  0.00  0.00    +0.000 A 
ATOM      4  N   UNL     1       0.049  10.494  20.701  0.00  0.00    +0.000 N 
ATOM      5  N   UNL     1       0.688   9.501  20.068  0.00  0.00    +0.000 NA
ATOM      6  C   UNL     1       0.891   8.601  21.023  0.00  0.00    +0.000 A 
ATOM      7  N   UNL     1       1.531   7.392  20.860  0.00  0.00    +0.000 N 
ATOM      8  C   UNL     1       2.236   7.084  19.713  0.00  0.00    +0.000 C 
ATOM      9  O   UNL     1       2.439   7.827  18.757  0.00  0.00    +0.000 OA
ATOM     10  N   UNL     1       0.387   8.944  22.251  0.00  0.00    +0.000 NA
ATOM     11  C   UNL     1      -0.120  10.148  22.041  0.00  0.00    +0.000 A 
ATOM     12  C   UNL     1      -0.783  11.098  22.883  0.00  0.00    +0.000 A 
ATOM     13  H   UNL     1       1.543   6.804  21.678  0.00  0.00    +0.000 HD
ENDROOT
BRANCH   8  14
ATOM     14  C   UNL     1       2.861   5.738  19.634  0.00  0.00    +0.000 A 
ATOM     15  C   UNL     1       4.245   5.686  19.389  0.00  0.00    +0.000 A 
ATOM     16  C   UNL     1       4.888   4.468  19.176  0.00  0.00    +0.000 A 
ATOM     17  C   UNL     1       4.149   3.290  19.201  0.00  0.00    +0.000 A 
ATOM     18  C   UNL     1       2.775   3.336  19.448  0.00  0.00    +0.000 A 
ATOM     19 CL   UNL     1       1.871   1.871  19.439  0.00  0.00    +0.000 Cl
ATOM     20  C   UNL     1       2.121   4.553  19.670  0.00  0.00    +0.000 A 
ENDBRANCH   8  14
BRANCH   1  26
ATOM     21  C   UNL     1      -3.380  13.189  23.335  0.00  0.00    +0.000 A 
ATOM     22  C   UNL     1      -4.038  14.118  24.150  0.00  0.00    +0.000 A 
ATOM     23  C   UNL     1      -3.318  15.112  24.813  0.00  0.00    +0.000 A 
ATOM     24  C   UNL     1      -1.934  15.176  24.678  0.00  0.00    +0.000 A 
ATOM     25  C   UNL     1      -1.262  14.229  23.901  0.00  0.00    +0.000 A 
ATOM     26  C   UNL     1      -1.974  13.216  23.236  0.00  0.00    +0.000 A 
BRANCH  21  28
ATOM     27  C   UNL     1      -4.905  12.705  21.598  0.00  0.00    +0.000 C 
ATOM     28  O   UNL     1      -4.047  12.218  22.628  0.00  0.00    +0.000 OA
ENDBRANCH  21  28
ENDBRANCH   1  26
TORSDOF 3
ENDMDL
MODEL 4
REMARK VINA RESULT:      -8.7      3.566     10.269
REMARK  Name = 
REMARK  4 active torsions:
REMARK  status: ('A' for Active; 'I' for Inactive)
REMARK    1  A    between atoms: C_1  and  O_2
REMARK    2  A    between atoms: O_2  and  C_3
REMARK    3  A    between atoms: C_8  and  C_9
REMARK    4  A    between atoms: C_16  and  C_18
REMARK                            x       y       z     vdW  Elec       q    Type
REMARK                         _______ _______ _______ _____ _____    ______ ____
ROOT
ATOM      1  C   UNL     1      -1.233  11.913  22.187  0.00  0.00    +0.000 A 
ATOM      2  C   UNL     1      -1.227  12.192  20.747  0.00  0.00    +0.000 A 
ATOM      3  C   UNL     1      -0.588  11.359  19.915  0.00  0.00    +0.000 A 
ATOM      4  N   UNL     1       0.067  10.245  20.424  0.00  0.00    +0.000 N 
ATOM      5  N   UNL     1       0.750   9.314  19.743  0.00  0.00    +0.000 NA
ATOM      6  C   UNL     1       1.181   8.489  20.690  0.00  0.00    +0.000 A 
ATOM      7  N   UNL     1       1.950   7.365  20.483  0.00  0.00    +0.000 N 
ATOM      8  C   UNL     1       2.548   7.100  19.266  0.00  0.00    +0.000 C 
ATOM      9  O   UNL     1       2.537   7.821  18.273  0.00  0.00    +0.000 OA
ATOM     10  N   UNL     1       0.786   8.818  21.961  0.00  0.00    +0.000 NA
ATOM     11  C   UNL     1       0.105   9.938  21.783  0.00  0.00    +0.000 A 
ATOM     12  C   UNL     1      -0.572  10.832  22.674  0.00  0.00    +0.000 A 
ATOM     13  H   UNL     1       2.134   6.819  21.308  0.00  0.00    +0.000 HD
ENDROOT
BRANCH   8  14
ATOM     14  C   UNL     1       3.329   5.841  19.148  0.00  0.00    +0.000 A 
ATOM     15  C   UNL     1       2.836   4.714  19.827  0.00  0.00    +0.000 A 
ATOM     16  C   UNL     1       3.569   3.529  19.873  0.00  0.00    +0.000 A 
ATOM     17  C   UNL     1       4.807   3.465  19.242  0.00  0.00    +0.000 A 
ATOM     18  C   UNL     1       5.300   4.582  18.563  0.00  0.00    +0.000 A 
ATOM     19 CL   UNL     1       6.850   4.496  17.820  0.00  0.00    +0.000 Cl
ATOM     20  C   UNL     1       4.569   5.774  18.506  0.00  0.00    +0.000 A 
ENDBRANCH   8  14
BRANCH   1  26
ATOM     21  C   UNL     1      -1.441  14.017  23.567  0.00  0.00    +0.000 A 
ATOM     22  C   UNL     1      -2.170  14.810  24.461  0.00  0.00    +0.000 A 
ATOM     23  C   UNL     1      -3.396  14.368  24.960  0.00  0.00    +0.000 A 
ATOM     24  C   UNL     1      -3.909  13.139  24.557  0.00  0.00    +0.000 A 
ATOM     25  C   UNL     1      -3.210  12.359  23.632  0.00  0.00    +0.000 A 
ATOM     26  C   UNL     1      -1.979  12.796  23.114  0.00  0.00    +0.000 A 
BRANCH  21  28
ATOM     27  C   UNL     1       0.003  15.795  22.991  0.00  0.00    +0.000 C 
ATOM     28  O   UNL     1      -0.210  14.388  23.080  0.00  0.00    +0.000 OA
ENDBRANCH  21  28
ENDBRANCH   1  26
TORSDOF 3
ENDMDL
MODEL 5
REMARK VINA RESULT:      -8.7      1.677      2.339
REMARK  Name = 
REMARK  4 active torsions:
REMARK  status: ('A' for Active; 'I' for Inactive)
REMARK    1  A    between atoms: C_1  and  O_2
REMARK    2  A    between atoms: O_2  and  C_3
REMARK    3  A    between atoms: C_8  and  C_9
REMARK    4  A    between atoms: C_16  and  C_18
REMARK                            x       y       z     vdW  Elec       q    Type
REMARK                         _______ _______ _______ _____ _____    ______ ____
ROOT
ATOM      1  C   UNL     1       2.567   7.269  18.547  0.00  0.00    +0.000 A 
ATOM      2  C   UNL     1       2.233   8.297  17.555  0.00  0.00    +0.000 A 
ATOM      3  C   UNL     1       1.533   9.376  17.932  0.00  0.00    +0.000 A 
ATOM      4  N   UNL     1       1.127   9.507  19.254  0.00  0.00    +0.000 N 
ATOM      5  N   UNL     1       0.427  10.511  19.800  0.00  0.00    +0.000 NA
ATOM      6  C   UNL     1       0.296  10.145  21.070  0.00  0.00    +0.000 A 
ATOM      7  N   UNL     1      -0.367  10.858  22.044  0.00  0.00    +0.000 N 
ATOM      8  C   UNL     1      -1.170  11.941  21.741  0.00  0.00    +0.000 C 
ATOM      9  O   UNL     1      -1.446  12.357  20.619  0.00  0.00    +0.000 OA
ATOM     10  N   UNL     1       0.906   8.960  21.392  0.00  0.00    +0.000 NA
ATOM     11  C   UNL     1       1.405   8.556  20.234  0.00  0.00    +0.000 A 
ATOM     12  C   UNL     1       2.146   7.399  19.831  0.00  0.00    +0.000 A 
ATOM     13  H   UNL     1      -0.315  10.464  22.969  0.00  0.00    +0.000 HD
ENDROOT
BRANCH   8  14
ATOM     14  C   UNL     1      -1.812  12.655  22.875  0.00  0.00    +0.000 A 
ATOM     15  C   UNL     1      -3.090  12.217  23.268  0.00  0.00    +0.000 A 
ATOM     16  C   UNL     1      -3.816  12.908  24.236  0.00  0.00    +0.000 A 
ATOM     17  C   UNL     1      -3.270  14.048  24.818  0.00  0.00    +0.000 A 
ATOM     18  C   UNL     1      -2.000  14.484  24.434  0.00  0.00    +0.000 A 
ATOM     19 CL   UNL     1      -1.356  15.917  25.138  0.00  0.00    +0.000 Cl
ATOM     20  C   UNL     1      -1.260  13.794  23.467  0.00  0.00    +0.000 A 
ENDBRANCH   8  14
BRANCH   1  26
ATOM     21  C   UNL     1       2.829   4.803  18.074  0.00  0.00    +0.000 A 
ATOM     22  C   UNL     1       3.643   3.718  17.725  0.00  0.00    +0.000 A 
ATOM     23  C   UNL     1       5.012   3.897  17.526  0.00  0.00    +0.000 A 
ATOM     24  C   UNL     1       5.575   5.163  17.658  0.00  0.00    +0.000 A 
ATOM     25  C   UNL     1       4.766   6.260  17.964  0.00  0.00    +0.000 A 
ATOM     26  C   UNL     1       3.384   6.096  18.158  0.00  0.00    +0.000 A 
BRANCH  21  28
ATOM     27  C   UNL     1       1.137   3.615  19.214  0.00  0.00    +0.000 C 
ATOM     28  O   UNL     1       1.484   4.672  18.322  0.00  0.00    +0.000 OA
ENDBRANCH  21  28
ENDBRANCH   1  26
TORSDOF 3
ENDMDL
MODEL 6
REMARK VINA RESULT:      -8.7      3.315     10.224
REMARK  Name = 
REMARK  4 active torsions:
REMARK  status: ('A' for Active; 'I' for Inactive)
REMARK    1  A    between atoms: C_1  and  O_2
REMARK    2  A    between atoms: O_2  and  C_3
REMARK    3  A    between atoms: C_8  and  C_9
REMARK    4  A    between atoms: C_16  and  C_18
REMARK                            x       y       z     vdW  Elec       q    Type
REMARK                         _______ _______ _______ _____ _____    ______ ____
ROOT
ATOM      1  C   UNL     1      -1.233  12.291  21.830  0.00  0.00    +0.000 A 
ATOM      2  C   UNL     1      -1.256  12.775  20.446  0.00  0.00    +0.000 A 
ATOM      3  C   UNL     1      -0.644  12.066  19.488  0.00  0.00    +0.000 A 
ATOM      4  N   UNL     1       0.010  10.885  19.816  0.00  0.00    +0.000 N 
ATOM      5  N   UNL     1       0.668  10.057  18.994  0.00  0.00    +0.000 NA
ATOM      6  C   UNL     1       1.111   9.100  19.802  0.00  0.00    +0.000 A 
ATOM      7  N   UNL     1       1.863   8.013  19.417  0.00  0.00    +0.000 N 
ATOM      8  C   UNL     1       2.432   7.921  18.162  0.00  0.00    +0.000 C 
ATOM      9  O   UNL     1       2.407   8.777  17.283  0.00  0.00    +0.000 OA
ATOM     10  N   UNL     1       0.748   9.246  21.116  0.00  0.00    +0.000 NA
ATOM     11  C   UNL     1       0.075  10.385  21.116  0.00  0.00    +0.000 A 
ATOM     12  C   UNL     1      -0.573  11.147  22.142  0.00  0.00    +0.000 A 
ATOM     13  H   UNL     1       2.060   7.351  20.151  0.00  0.00    +0.000 HD
ENDROOT
BRANCH   8  14
ATOM     14  C   UNL     1       3.196   6.686  17.845  0.00  0.00    +0.000 A 
ATOM     15  C   UNL     1       4.476   6.851  17.285  0.00  0.00    +0.000 A 
ATOM     16  C   UNL     1       5.209   5.751  16.843  0.00  0.00    +0.000 A 
ATOM     17  C   UNL     1       4.664   4.475  16.954  0.00  0.00    +0.000 A 
ATOM     18  C   UNL     1       3.395   4.307  17.513  0.00  0.00    +0.000 A 
ATOM     19 CL   UNL     1       2.723   2.725  17.607  0.00  0.00    +0.000 Cl
ATOM     20  C   UNL     1       2.654   5.404  17.965  0.00  0.00    +0.000 A 
ENDBRANCH   8  14
BRANCH   1  26
ATOM     21  C   UNL     1      -1.367  14.147  23.537  0.00  0.00    +0.000 A 
ATOM     22  C   UNL     1      -2.070  14.809  24.551  0.00  0.00    +0.000 A 
ATOM     23  C   UNL     1      -3.312  14.337  24.975  0.00  0.00    +0.000 A 
ATOM     24  C   UNL     1      -3.869  13.209  24.378  0.00  0.00    +0.000 A 
ATOM     25  C   UNL     1      -3.196  12.566  23.335  0.00  0.00    +0.000 A 
ATOM     26  C   UNL     1      -1.949  13.037  22.892  0.00  0.00    +0.000 A 
BRANCH  21  28
ATOM     27  C   UNL     1       0.028  15.954  22.932  0.00  0.00    +0.000 C 
ATOM     28  O   UNL     1      -0.123  14.547  23.114  0.00  0.00    +0.000 OA
ENDBRANCH  21  28
ENDBRANCH   1  26
TORSDOF 3
ENDMDL
MODEL 7
REMARK VINA RESULT:      -8.7      3.294     10.149
REMARK  Name = 
REMARK  4 active torsions:
REMARK  status: ('A' for Active; 'I' for Inactive)
REMARK    1  A    between atoms: C_1  and  O_2
REMARK    2  A    between atoms: O_2  and  C_3
REMARK    3  A    between atoms: C_8  and  C_9
REMARK    4  A    between atoms: C_16  and  C_18
REMARK                            x       y       z     vdW  Elec       q    Type
REMARK                         _______ _______ _______ _____ _____    ______ ____
ROOT
ATOM      1  C   UNL     1      -1.266  12.562  21.985  0.00  0.00    +0.000 A 
ATOM      2  C   UNL     1      -1.339  13.026  20.596  0.00  0.00    +0.000 A 
ATOM      3  C   UNL     1      -0.770  12.299  19.626  0.00  0.00    +0.000 A 
ATOM      4  N   UNL     1      -0.111  11.119  19.946  0.00  0.00    +0.000 N 
ATOM      5  N   UNL     1       0.510  10.274  19.110  0.00  0.00    +0.000 NA
ATOM      6  C   UNL     1       0.978   9.326  19.915  0.00  0.00    +0.000 A 
ATOM      7  N   UNL     1       1.707   8.228  19.517  0.00  0.00    +0.000 N 
ATOM      8  C   UNL     1       2.226   8.114  18.242  0.00  0.00    +0.000 C 
ATOM      9  O   UNL     1       2.173   8.958  17.352  0.00  0.00    +0.000 OA
ATOM     10  N   UNL     1       0.666   9.493  21.239  0.00  0.00    +0.000 NA
ATOM     11  C   UNL     1       0.001  10.637  21.249  0.00  0.00    +0.000 A 
ATOM     12  C   UNL     1      -0.602  11.417  22.288  0.00  0.00    +0.000 A 
ATOM     13  H   UNL     1       1.928   7.576  20.252  0.00  0.00    +0.000 HD
ENDROOT
BRANCH   8  14
ATOM     14  C   UNL     1       2.970   6.870  17.914  0.00  0.00    +0.000 A 
ATOM     15  C   UNL     1       4.217   7.017  17.281  0.00  0.00    +0.000 A 
ATOM     16  C   UNL     1       4.924   5.905  16.827  0.00  0.00    +0.000 A 
ATOM     17  C   UNL     1       4.383   4.633  16.998  0.00  0.00    +0.000 A 
ATOM     18  C   UNL     1       3.147   4.483  17.630  0.00  0.00    +0.000 A 
ATOM     19 CL   UNL     1       2.477   2.906  17.799  0.00  0.00    +0.000 Cl
ATOM     20  C   UNL     1       2.433   5.593  18.095  0.00  0.00    +0.000 A 
ENDBRANCH   8  14
BRANCH   1  26
ATOM     21  C   UNL     1      -3.317  13.198  23.314  0.00  0.00    +0.000 A 
ATOM     22  C   UNL     1      -3.914  13.958  24.327  0.00  0.00    +0.000 A 
ATOM     23  C   UNL     1      -3.166  14.891  25.045  0.00  0.00    +0.000 A 
ATOM     24  C   UNL     1      -1.813  15.061  24.767  0.00  0.00    +0.000 A 
ATOM     25  C   UNL     1      -1.197  14.278  23.787  0.00  0.00    +0.000 A 
ATOM     26  C   UNL     1      -1.936  13.328  23.063  0.00  0.00    +0.000 A 
BRANCH  21  28
ATOM     27  C   UNL     1      -5.205  12.814  21.948  0.00  0.00    +0.000 C 
ATOM     28  O   UNL     1      -4.019  12.298  22.550  0.00  0.00    +0.000 OA
ENDBRANCH  21  28
ENDBRANCH   1  26
TORSDOF 3
ENDMDL
MODEL 8
REMARK VINA RESULT:      -8.7      3.387     10.152
REMARK  Name = 
REMARK  4 active torsions:
REMARK  status: ('A' for Active; 'I' for Inactive)
REMARK    1  A    between atoms: C_1  and  O_2
REMARK    2  A    between atoms: O_2  and  C_3
REMARK    3  A    between atoms: C_8  and  C_9
REMARK    4  A    between atoms: C_16  and  C_18
REMARK                            x       y       z     vdW  Elec       q    Type
REMARK                         _______ _______ _______ _____ _____    ______ ____
ROOT
ATOM      1  C   UNL     1      -1.128  12.015  22.245  0.00  0.00    +0.000 A 
ATOM      2  C   UNL     1      -0.954  12.338  20.825  0.00  0.00    +0.000 A 
ATOM      3  C   UNL     1      -0.312  11.476  20.025  0.00  0.00    +0.000 A 
ATOM      4  N   UNL     1       0.188  10.291  20.550  0.00  0.00    +0.000 N 
ATOM      5  N   UNL     1       0.850   9.323  19.901  0.00  0.00    +0.000 NA
ATOM      6  C   UNL     1       1.110   8.432  20.851  0.00  0.00    +0.000 A 
ATOM      7  N   UNL     1       1.792   7.249  20.673  0.00  0.00    +0.000 N 
ATOM      8  C   UNL     1       2.483   6.969  19.510  0.00  0.00    +0.000 C 
ATOM      9  O   UNL     1       2.635   7.719  18.550  0.00  0.00    +0.000 OA
ATOM     10  N   UNL     1       0.621   8.755  22.090  0.00  0.00    +0.000 NA
ATOM     11  C   UNL     1       0.063   9.939  21.893  0.00  0.00    +0.000 A 
ATOM     12  C   UNL     1      -0.617  10.863  22.750  0.00  0.00    +0.000 A 
ATOM     13  H   UNL     1       1.845   6.662  21.489  0.00  0.00    +0.000 HD
ENDROOT
BRANCH   8  14
ATOM     14  C   UNL     1       3.158   5.648  19.416  0.00  0.00    +0.000 A 
ATOM     15  C   UNL     1       4.559   5.650  19.298  0.00  0.00    +0.000 A 
ATOM     16  C   UNL     1       5.260   4.465  19.080  0.00  0.00    +0.000 A 
ATOM     17  C   UNL     1       4.562   3.266  18.971  0.00  0.00    +0.000 A 
ATOM     18  C   UNL     1       3.170   3.259  19.092  0.00  0.00    +0.000 A 
ATOM     19 CL   UNL     1       2.320   1.772  18.918  0.00  0.00    +0.000 Cl
ATOM     20  C   UNL     1       2.457   4.442  19.317  0.00  0.00    +0.000 A 
ENDBRANCH   8  14
BRANCH   1  26
ATOM     21  C   UNL     1      -1.316  14.135  23.605  0.00  0.00    +0.000 A 
ATOM     22  C   UNL     1      -2.055  14.962  24.460  0.00  0.00    +0.000 A 
ATOM     23  C   UNL     1      -3.320  14.573  24.900  0.00  0.00    +0.000 A 
ATOM     24  C   UNL     1      -3.863  13.363  24.478  0.00  0.00    +0.000 A 
ATOM     25  C   UNL     1      -3.152  12.549  23.591  0.00  0.00    +0.000 A 
ATOM     26  C   UNL     1      -1.882  12.933  23.132  0.00  0.00    +0.000 A 
BRANCH  21  28
ATOM     27  C   UNL     1       0.046  15.657  22.420  0.00  0.00    +0.000 C 
ATOM     28  O   UNL     1      -0.050  14.452  23.177  0.00  0.00    +0.000 OA
ENDBRANCH  21  28
ENDBRANCH   1  26
TORSDOF 3
ENDMDL
MODEL 9
REMARK VINA RESULT:      -8.6      3.385     10.040
REMARK  Name = 
REMARK  4 active torsions:
REMARK  status: ('A' for Active; 'I' for Inactive)
REMARK    1  A    between atoms: C_1  and  O_2
REMARK    2  A    between atoms: O_2  and  C_3
REMARK    3  A    between atoms: C_8  and  C_9
REMARK    4  A    between atoms: C_16  and  C_18
REMARK                            x       y       z     vdW  Elec       q    Type
REMARK                         _______ _______ _______ _____ _____    ______ ____
ROOT
ATOM      1  C   UNL     1      -1.015  11.395  22.164  0.00  0.00    +0.000 A 
ATOM      2  C   UNL     1      -0.811  10.374  23.196  0.00  0.00    +0.000 A 
ATOM      3  C   UNL     1      -0.077   9.288  22.916  0.00  0.00    +0.000 A 
ATOM      4  N   UNL     1       0.476   9.138  21.651  0.00  0.00    +0.000 N 
ATOM      5  N   UNL     1       1.230   8.126  21.201  0.00  0.00    +0.000 NA
ATOM      6  C   UNL     1       1.484   8.461  19.941  0.00  0.00    +0.000 A 
ATOM      7  N   UNL     1       2.225   7.718  19.049  0.00  0.00    +0.000 N 
ATOM      8  C   UNL     1       2.601   6.416  19.314  0.00  0.00    +0.000 C 
ATOM      9  O   UNL     1       2.290   5.749  20.297  0.00  0.00    +0.000 OA
ATOM     10  N   UNL     1       0.956   9.665  19.550  0.00  0.00    +0.000 NA
ATOM     11  C   UNL     1       0.304  10.070  20.628  0.00  0.00    +0.000 A 
ATOM     12  C   UNL     1      -0.486  11.227  20.925  0.00  0.00    +0.000 A 
ATOM     13  H   UNL     1       2.370   8.152  18.152  0.00  0.00    +0.000 HD
ENDROOT
BRANCH   8  14
ATOM     14  C   UNL     1       3.427   5.720  18.292  0.00  0.00    +0.000 A 
ATOM     15  C   UNL     1       2.950   4.487  17.814  0.00  0.00    +0.000 A 
ATOM     16  C   UNL     1       3.719   3.709  16.950  0.00  0.00    +0.000 A 
ATOM     17  C   UNL     1       4.978   4.159  16.562  0.00  0.00    +0.000 A 
ATOM     18  C   UNL     1       5.454   5.385  17.032  0.00  0.00    +0.000 A 
ATOM     19 CL   UNL     1       7.028   5.907  16.571  0.00  0.00    +0.000 Cl
ATOM     20  C   UNL     1       4.686   6.176  17.894  0.00  0.00    +0.000 A 
ENDBRANCH   8  14
BRANCH   1  26
ATOM     21  C   UNL     1      -1.134  13.845  22.764  0.00  0.00    +0.000 A 
ATOM     22  C   UNL     1      -1.895  14.978  23.074  0.00  0.00    +0.000 A 
ATOM     23  C   UNL     1      -3.284  14.895  23.165  0.00  0.00    +0.000 A 
ATOM     24  C   UNL     1      -3.925  13.681  22.931  0.00  0.00    +0.000 A 
ATOM     25  C   UNL     1      -3.179  12.553  22.578  0.00  0.00    +0.000 A 
ATOM     26  C   UNL     1      -1.780  12.626  22.474  0.00  0.00    +0.000 A 
BRANCH  21  28
ATOM     27  C   UNL     1       0.791  14.920  21.917  0.00  0.00    +0.000 C 
ATOM     28  O   UNL     1       0.239  13.866  22.704  0.00  0.00    +0.000 OA
ENDBRANCH  21  28
ENDBRANCH   1  26
TORSDOF 3
ENDMDL
