MODEL 1
REMARK VINA RESULT:      -7.1      0.000      0.000
REMARK  Name = 
REMARK  8 active torsions:
REMARK  status: ('A' for Active; 'I' for Inactive)
REMARK    1  A    between atoms: C_1  and  O_2
REMARK    2  A    between atoms: O_2  and  C_3
REMARK    3  A    between atoms: C_3  and  C_4
REMARK    4  A    between atoms: C_4  and  N_5
REMARK    5  A    between atoms: N_8  and  C_9
REMARK    6  A    between atoms: C_9  and  C_10
REMARK    7  A    between atoms: C_11  and  C_12
REMARK    8  A    between atoms: C_12  and  N_13
REMARK                            x       y       z     vdW  Elec       q    Type
REMARK                         _______ _______ _______ _____ _____    ______ ____
ROOT
ATOM      1  C   UNL     1       2.197   8.749  18.320  0.00  0.00    +0.000 C 
ATOM      2  C   UNL     1       3.066   7.888  17.868  0.00  0.00    +0.000 C 
ENDROOT
BRANCH   1   3
ATOM      3  C   UNL     1       1.185   9.752  18.846  0.00  0.00    +0.000 C 
BRANCH   3   7
ATOM      4  N   UNL     1      -1.692  11.102  17.088  0.00  0.00    +0.000 N 
ATOM      5  C   UNL     1      -0.980  10.615  18.156  0.00  0.00    +0.000 C 
ATOM      6  O   UNL     1      -1.419  10.567  19.302  0.00  0.00    +0.000 OA
ATOM      7  N   UNL     1       0.276  10.189  17.810  0.00  0.00    +0.000 N 
ATOM      8  H   UNL     1      -1.439  10.733  16.182  0.00  0.00    +0.000 HD
ATOM      9  H   UNL     1       0.657  10.483  16.924  0.00  0.00    +0.000 HD
BRANCH   4  10
ATOM     10  C   UNL     1      -3.107  11.415  17.265  0.00  0.00    +0.000 C 
BRANCH  10  11
ATOM     11  C   UNL     1      -3.986  10.885  16.131  0.00  0.00    +0.000 C 
BRANCH  11  13
ATOM     12  C   UNL     1      -3.420   9.998  14.015  0.00  0.00    +0.000 C 
ATOM     13  O   UNL     1      -3.347  11.133  14.873  0.00  0.00    +0.000 OA
ENDBRANCH  11  13
ENDBRANCH  10  11
ENDBRANCH   4  10
ENDBRANCH   3   7
ENDBRANCH   1   3
BRANCH   2  14
ATOM     14  C   UNL     1       4.080   6.884  17.341  0.00  0.00    +0.000 C 
BRANCH  14  15
ATOM     15  N   UNL     1       3.978   5.612  18.063  0.00  0.00    +0.000 NA
ATOM     16  C   UNL     1       3.300   4.593  17.239  0.00  0.00    +0.000 C 
ATOM     17  C   UNL     1       1.847   4.284  17.628  0.00  0.00    +0.000 C 
ATOM     18  C   UNL     1       1.817   3.888  19.075  0.00  0.00    +0.000 A 
ATOM     19  C   UNL     1       1.022   2.854  19.568  0.00  0.00    +0.000 A 
ATOM     20  C   UNL     1       1.063   2.531  20.924  0.00  0.00    +0.000 A 
ATOM     21  C   UNL     1       1.887   3.247  21.794  0.00  0.00    +0.000 A 
ATOM     22  C   UNL     1       2.669   4.294  21.310  0.00  0.00    +0.000 A 
ATOM     23  C   UNL     1       2.642   4.615  19.952  0.00  0.00    +0.000 A 
ATOM     24  C   UNL     1       3.385   5.807  19.403  0.00  0.00    +0.000 C 
ENDBRANCH  14  15
ENDBRANCH   2  14
TORSDOF 7
ENDMDL
MODEL 2
REMARK VINA RESULT:      -7.0      6.970      8.875
REMARK  Name = 
REMARK  8 active torsions:
REMARK  status: ('A' for Active; 'I' for Inactive)
REMARK    1  A    between atoms: C_1  and  O_2
REMARK    2  A    between atoms: O_2  and  C_3
REMARK    3  A    between atoms: C_3  and  C_4
REMARK    4  A    between atoms: C_4  and  N_5
REMARK    5  A    between atoms: N_8  and  C_9
REMARK    6  A    between atoms: C_9  and  C_10
REMARK    7  A    between atoms: C_11  and  C_12
REMARK    8  A    between atoms: C_12  and  N_13
REMARK                            x       y       z     vdW  Elec       q    Type
REMARK                         _______ _______ _______ _____ _____    ______ ____
ROOT
ATOM      1  C   UNL     1       8.524   9.253  18.432  0.00  0.00    +0.000 C 
ATOM      2  C   UNL     1       7.949   8.340  17.699  0.00  0.00    +0.000 C 
ENDROOT
BRANCH   1   3
ATOM      3  C   UNL     1       9.193  10.315  19.289  0.00  0.00    +0.000 C 
BRANCH   3   7
ATOM      4  N   UNL     1      10.127  13.162  17.238  0.00  0.00    +0.000 N 
ATOM      5  C   UNL     1      10.299  11.967  17.891  0.00  0.00    +0.000 C 
ATOM      6  O   UNL     1      11.322  11.291  17.819  0.00  0.00    +0.000 OA
ATOM      7  N   UNL     1       9.205  11.602  18.633  0.00  0.00    +0.000 N 
ATOM      8  H   UNL     1       9.480  13.810  17.664  0.00  0.00    +0.000 HD
ATOM      9  H   UNL     1       8.326  12.063  18.452  0.00  0.00    +0.000 HD
BRANCH   4  10
ATOM     10  C   UNL     1      11.271  13.770  16.564  0.00  0.00    +0.000 C 
BRANCH  10  11
ATOM     11  C   UNL     1      11.752  15.056  17.239  0.00  0.00    +0.000 C 
BRANCH  11  13
ATOM     12  C   UNL     1      10.137  16.775  17.381  0.00  0.00    +0.000 C 
ATOM     13  O   UNL     1      11.164  16.189  16.588  0.00  0.00    +0.000 OA
ENDBRANCH  11  13
ENDBRANCH  10  11
ENDBRANCH   4  10
ENDBRANCH   3   7
ENDBRANCH   1   3
BRANCH   2  14
ATOM     14  C   UNL     1       7.280   7.277  16.842  0.00  0.00    +0.000 C 
BRANCH  14  15
ATOM     15  N   UNL     1       6.386   6.442  17.649  0.00  0.00    +0.000 NA
ATOM     16  C   UNL     1       6.731   5.014  17.507  0.00  0.00    +0.000 C 
ATOM     17  C   UNL     1       5.784   4.189  16.623  0.00  0.00    +0.000 C 
ATOM     18  C   UNL     1       4.389   4.338  17.153  0.00  0.00    +0.000 A 
ATOM     19  C   UNL     1       3.482   3.281  17.226  0.00  0.00    +0.000 A 
ATOM     20  C   UNL     1       2.207   3.493  17.749  0.00  0.00    +0.000 A 
ATOM     21  C   UNL     1       1.829   4.762  18.190  0.00  0.00    +0.000 A 
ATOM     22  C   UNL     1       2.724   5.826  18.103  0.00  0.00    +0.000 A 
ATOM     23  C   UNL     1       4.005   5.618  17.590  0.00  0.00    +0.000 A 
ATOM     24  C   UNL     1       4.969   6.758  17.374  0.00  0.00    +0.000 C 
ENDBRANCH  14  15
ENDBRANCH   2  14
TORSDOF 7
ENDMDL
MODEL 3
REMARK VINA RESULT:      -6.9      1.567      2.141
REMARK  Name = 
REMARK  8 active torsions:
REMARK  status: ('A' for Active; 'I' for Inactive)
REMARK    1  A    between atoms: C_1  and  O_2
REMARK    2  A    between atoms: O_2  and  C_3
REMARK    3  A    between atoms: C_3  and  C_4
REMARK    4  A    between atoms: C_4  and  N_5
REMARK    5  A    between atoms: N_8  and  C_9
REMARK    6  A    between atoms: C_9  and  C_10
REMARK    7  A    between atoms: C_11  and  C_12
REMARK    8  A    between atoms: C_12  and  N_13
REMARK                            x       y       z     vdW  Elec       q    Type
REMARK                         _______ _______ _______ _____ _____    ______ ____
ROOT
ATOM      1  C   UNL     1       1.066   9.666  18.415  0.00  0.00    +0.000 C 
ATOM      2  C   UNL     1       2.001   8.835  18.046  0.00  0.00    +0.000 C 
ENDROOT
BRANCH   1   3
ATOM      3  C   UNL     1      -0.024  10.635  18.843  0.00  0.00    +0.000 C 
BRANCH   3   7
ATOM      4  N   UNL     1      -2.472  11.293  16.242  0.00  0.00    +0.000 N 
ATOM      5  C   UNL     1      -1.862  10.592  17.252  0.00  0.00    +0.000 C 
ATOM      6  O   UNL     1      -2.293   9.536  17.705  0.00  0.00    +0.000 OA
ATOM      7  N   UNL     1      -0.718  11.197  17.706  0.00  0.00    +0.000 N 
ATOM      8  H   UNL     1      -1.867  11.876  15.679  0.00  0.00    +0.000 HD
ATOM      9  H   UNL     1      -0.560  12.165  17.472  0.00  0.00    +0.000 HD
BRANCH   4  10
ATOM     10  C   UNL     1      -3.590  10.681  15.531  0.00  0.00    +0.000 C 
BRANCH  10  11
ATOM     11  C   UNL     1      -3.214  10.180  14.135  0.00  0.00    +0.000 C 
BRANCH  11  13
ATOM     12  C   UNL     1      -4.240   9.804  12.040  0.00  0.00    +0.000 C 
ATOM     13  O   UNL     1      -4.390   9.728  13.454  0.00  0.00    +0.000 OA
ENDBRANCH  11  13
ENDBRANCH  10  11
ENDBRANCH   4  10
ENDBRANCH   3   7
ENDBRANCH   1   3
BRANCH   2  14
ATOM     14  C   UNL     1       3.092   7.866  17.618  0.00  0.00    +0.000 C 
BRANCH  14  15
ATOM     15  N   UNL     1       3.077   6.661  18.452  0.00  0.00    +0.000 NA
ATOM     16  C   UNL     1       4.417   6.045  18.508  0.00  0.00    +0.000 C 
ATOM     17  C   UNL     1       4.599   4.776  17.663  0.00  0.00    +0.000 C 
ATOM     18  C   UNL     1       3.551   3.782  18.067  0.00  0.00    +0.000 A 
ATOM     19  C   UNL     1       3.803   2.416  18.199  0.00  0.00    +0.000 A 
ATOM     20  C   UNL     1       2.781   1.556  18.598  0.00  0.00    +0.000 A 
ATOM     21  C   UNL     1       1.503   2.052  18.855  0.00  0.00    +0.000 A 
ATOM     22  C   UNL     1       1.239   3.413  18.706  0.00  0.00    +0.000 A 
ATOM     23  C   UNL     1       2.260   4.281  18.317  0.00  0.00    +0.000 A 
ATOM     24  C   UNL     1       1.999   5.740  18.037  0.00  0.00    +0.000 C 
ENDBRANCH  14  15
ENDBRANCH   2  14
TORSDOF 7
ENDMDL
MODEL 4
REMARK VINA RESULT:      -6.8      1.120      1.435
REMARK  Name = 
REMARK  8 active torsions:
REMARK  status: ('A' for Active; 'I' for Inactive)
REMARK    1  A    between atoms: C_1  and  O_2
REMARK    2  A    between atoms: O_2  and  C_3
REMARK    3  A    between atoms: C_3  and  C_4
REMARK    4  A    between atoms: C_4  and  N_5
REMARK    5  A    between atoms: N_8  and  C_9
REMARK    6  A    between atoms: C_9  and  C_10
REMARK    7  A    between atoms: C_11  and  C_12
REMARK    8  A    between atoms: C_12  and  N_13
REMARK                            x       y       z     vdW  Elec       q    Type
REMARK                         _______ _______ _______ _____ _____    ______ ____
ROOT
ATOM      1  C   UNL     1       2.240   8.719  18.194  0.00  0.00    +0.000 C 
ATOM      2  C   UNL     1       3.134   7.857  17.798  0.00  0.00    +0.000 C 
ENDROOT
BRANCH   1   3
ATOM      3  C   UNL     1       1.197   9.723  18.657  0.00  0.00    +0.000 C 
BRANCH   3   7
ATOM      4  N   UNL     1      -1.905  10.664  17.020  0.00  0.00    +0.000 N 
ATOM      5  C   UNL     1      -0.944  10.668  18.000  0.00  0.00    +0.000 C 
ATOM      6  O   UNL     1      -0.972  11.408  18.980  0.00  0.00    +0.000 OA
ATOM      7  N   UNL     1       0.057   9.759  17.770  0.00  0.00    +0.000 N 
ATOM      8  H   UNL     1      -2.022   9.795  16.519  0.00  0.00    +0.000 HD
ATOM      9  H   UNL     1       0.150   9.371  16.844  0.00  0.00    +0.000 HD
BRANCH   4  10
ATOM     10  C   UNL     1      -3.125  11.440  17.224  0.00  0.00    +0.000 C 
BRANCH  10  11
ATOM     11  C   UNL     1      -4.293  10.599  17.743  0.00  0.00    +0.000 C 
BRANCH  11  13
ATOM     12  C   UNL     1      -6.546  10.934  18.370  0.00  0.00    +0.000 C 
ATOM     13  O   UNL     1      -5.530  11.247  17.423  0.00  0.00    +0.000 OA
ENDBRANCH  11  13
ENDBRANCH  10  11
ENDBRANCH   4  10
ENDBRANCH   3   7
ENDBRANCH   1   3
BRANCH   2  14
ATOM     14  C   UNL     1       4.177   6.851  17.335  0.00  0.00    +0.000 C 
BRANCH  14  15
ATOM     15  N   UNL     1       4.040   5.586  18.060  0.00  0.00    +0.000 NA
ATOM     16  C   UNL     1       3.356   4.575  17.230  0.00  0.00    +0.000 C 
ATOM     17  C   UNL     1       1.892   4.295  17.599  0.00  0.00    +0.000 C 
ATOM     18  C   UNL     1       1.833   3.906  19.047  0.00  0.00    +0.000 A 
ATOM     19  C   UNL     1       1.011   2.890  19.532  0.00  0.00    +0.000 A 
ATOM     20  C   UNL     1       1.026   2.572  20.890  0.00  0.00    +0.000 A 
ATOM     21  C   UNL     1       1.850   3.277  21.769  0.00  0.00    +0.000 A 
ATOM     22  C   UNL     1       2.658   4.307  21.293  0.00  0.00    +0.000 A 
ATOM     23  C   UNL     1       2.657   4.622  19.933  0.00  0.00    +0.000 A 
ATOM     24  C   UNL     1       3.431   5.797  19.390  0.00  0.00    +0.000 C 
ENDBRANCH  14  15
ENDBRANCH   2  14
TORSDOF 7
ENDMDL
MODEL 5
REMARK VINA RESULT:      -6.7      6.161      7.877
REMARK  Name = 
REMARK  8 active torsions:
REMARK  status: ('A' for Active; 'I' for Inactive)
REMARK    1  A    between atoms: C_1  and  O_2
REMARK    2  A    between atoms: O_2  and  C_3
REMARK    3  A    between atoms: C_3  and  C_4
REMARK    4  A    between atoms: C_4  and  N_5
REMARK    5  A    between atoms: N_8  and  C_9
REMARK    6  A    between atoms: C_9  and  C_10
REMARK    7  A    between atoms: C_11  and  C_12
REMARK    8  A    between atoms: C_12  and  N_13
REMARK                            x       y       z     vdW  Elec       q    Type
REMARK                         _______ _______ _______ _____ _____    ______ ____
ROOT
ATOM      1  C   UNL     1       7.551   7.603  17.778  0.00  0.00    +0.000 C 
ATOM      2  C   UNL     1       6.706   6.772  17.234  0.00  0.00    +0.000 C 
ENDROOT
BRANCH   1   3
ATOM      3  C   UNL     1       8.536   8.572  18.411  0.00  0.00    +0.000 C 
BRANCH   3   7
ATOM      4  N   UNL     1       8.950  12.120  17.759  0.00  0.00    +0.000 N 
ATOM      5  C   UNL     1       9.166  10.919  18.388  0.00  0.00    +0.000 C 
ATOM      6  O   UNL     1      10.001  10.754  19.272  0.00  0.00    +0.000 OA
ATOM      7  N   UNL     1       8.351   9.919  17.923  0.00  0.00    +0.000 N 
ATOM      8  H   UNL     1       8.023  12.262  17.382  0.00  0.00    +0.000 HD
ATOM      9  H   UNL     1       7.876  10.056  17.044  0.00  0.00    +0.000 HD
BRANCH   4  10
ATOM     10  C   UNL     1       9.606  13.317  18.276  0.00  0.00    +0.000 C 
BRANCH  10  11
ATOM     11  C   UNL     1      10.773  13.786  17.405  0.00  0.00    +0.000 C 
BRANCH  11  13
ATOM     12  C   UNL     1       9.512  15.748  17.788  0.00  0.00    +0.000 C 
ATOM     13  O   UNL     1      10.719  15.210  17.257  0.00  0.00    +0.000 OA
ENDBRANCH  11  13
ENDBRANCH  10  11
ENDBRANCH   4  10
ENDBRANCH   3   7
ENDBRANCH   1   3
BRANCH   2  14
ATOM     14  C   UNL     1       5.721   5.802  16.601  0.00  0.00    +0.000 C 
BRANCH  14  15
ATOM     15  N   UNL     1       5.116   4.936  17.616  0.00  0.00    +0.000 NA
ATOM     16  C   UNL     1       4.564   3.713  17.001  0.00  0.00    +0.000 C 
ATOM     17  C   UNL     1       3.035   3.671  16.864  0.00  0.00    +0.000 C 
ATOM     18  C   UNL     1       2.430   3.891  18.219  0.00  0.00    +0.000 A 
ATOM     19  C   UNL     1       1.317   3.190  18.683  0.00  0.00    +0.000 A 
ATOM     20  C   UNL     1       0.824   3.437  19.963  0.00  0.00    +0.000 A 
ATOM     21  C   UNL     1       1.431   4.391  20.780  0.00  0.00    +0.000 A 
ATOM     22  C   UNL     1       2.532   5.109  20.315  0.00  0.00    +0.000 A 
ATOM     23  C   UNL     1       3.037   4.859  19.039  0.00  0.00    +0.000 A 
ATOM     24  C   UNL     1       4.155   5.685  18.452  0.00  0.00    +0.000 C 
ENDBRANCH  14  15
ENDBRANCH   2  14
TORSDOF 7
ENDMDL
MODEL 6
REMARK VINA RESULT:      -6.7      2.473      3.468
REMARK  Name = 
REMARK  8 active torsions:
REMARK  status: ('A' for Active; 'I' for Inactive)
REMARK    1  A    between atoms: C_1  and  O_2
REMARK    2  A    between atoms: O_2  and  C_3
REMARK    3  A    between atoms: C_3  and  C_4
REMARK    4  A    between atoms: C_4  and  N_5
REMARK    5  A    between atoms: N_8  and  C_9
REMARK    6  A    between atoms: C_9  and  C_10
REMARK    7  A    between atoms: C_11  and  C_12
REMARK    8  A    between atoms: C_12  and  N_13
REMARK                            x       y       z     vdW  Elec       q    Type
REMARK                         _______ _______ _______ _____ _____    ______ ____
ROOT
ATOM      1  C   UNL     1       2.214   8.541  17.854  0.00  0.00    +0.000 C 
ATOM      2  C   UNL     1       3.222   7.735  17.673  0.00  0.00    +0.000 C 
ENDROOT
BRANCH   1   3
ATOM      3  C   UNL     1       1.037   9.479  18.066  0.00  0.00    +0.000 C 
BRANCH   3   7
ATOM      4  N   UNL     1       0.323  11.280  21.137  0.00  0.00    +0.000 N 
ATOM      5  C   UNL     1       0.046  10.665  19.942  0.00  0.00    +0.000 C 
ATOM      6  O   UNL     1      -1.090  10.506  19.504  0.00  0.00    +0.000 OA
ATOM      7  N   UNL     1       1.173  10.242  19.286  0.00  0.00    +0.000 N 
ATOM      8  H   UNL     1       1.229  11.722  21.209  0.00  0.00    +0.000 HD
ATOM      9  H   UNL     1       2.036  10.179  19.804  0.00  0.00    +0.000 HD
BRANCH   4  10
ATOM     10  C   UNL     1      -0.759  11.949  21.855  0.00  0.00    +0.000 C 
BRANCH  10  11
ATOM     11  C   UNL     1      -1.321  11.115  23.008  0.00  0.00    +0.000 C 
BRANCH  11  13
ATOM     12  C   UNL     1      -3.145  12.530  22.504  0.00  0.00    +0.000 C 
ATOM     13  O   UNL     1      -2.523  11.721  23.497  0.00  0.00    +0.000 OA
ENDBRANCH  11  13
ENDBRANCH  10  11
ENDBRANCH   4  10
ENDBRANCH   3   7
ENDBRANCH   1   3
BRANCH   2  14
ATOM     14  C   UNL     1       4.400   6.797  17.460  0.00  0.00    +0.000 C 
BRANCH  14  15
ATOM     15  N   UNL     1       4.173   5.514  18.133  0.00  0.00    +0.000 NA
ATOM     16  C   UNL     1       3.420   4.591  17.262  0.00  0.00    +0.000 C 
ATOM     17  C   UNL     1       1.939   4.400  17.621  0.00  0.00    +0.000 C 
ATOM     18  C   UNL     1       1.851   3.956  19.051  0.00  0.00    +0.000 A 
ATOM     19  C   UNL     1       0.958   2.981  19.495  0.00  0.00    +0.000 A 
ATOM     20  C   UNL     1       0.948   2.607  20.838  0.00  0.00    +0.000 A 
ATOM     21  C   UNL     1       1.819   3.214  21.745  0.00  0.00    +0.000 A 
ATOM     22  C   UNL     1       2.699   4.203  21.311  0.00  0.00    +0.000 A 
ATOM     23  C   UNL     1       2.722   4.573  19.966  0.00  0.00    +0.000 A 
ATOM     24  C   UNL     1       3.578   5.713  19.471  0.00  0.00    +0.000 C 
ENDBRANCH  14  15
ENDBRANCH   2  14
TORSDOF 7
ENDMDL
MODEL 7
REMARK VINA RESULT:      -6.7      6.063      7.753
REMARK  Name = 
REMARK  8 active torsions:
REMARK  status: ('A' for Active; 'I' for Inactive)
REMARK    1  A    between atoms: C_1  and  O_2
REMARK    2  A    between atoms: O_2  and  C_3
REMARK    3  A    between atoms: C_3  and  C_4
REMARK    4  A    between atoms: C_4  and  N_5
REMARK    5  A    between atoms: N_8  and  C_9
REMARK    6  A    between atoms: C_9  and  C_10
REMARK    7  A    between atoms: C_11  and  C_12
REMARK    8  A    between atoms: C_12  and  N_13
REMARK                            x       y       z     vdW  Elec       q    Type
REMARK                         _______ _______ _______ _____ _____    ______ ____
ROOT
ATOM      1  C   UNL     1       7.016   6.969  17.714  0.00  0.00    +0.000 C 
ATOM      2  C   UNL     1       6.015   6.295  17.220  0.00  0.00    +0.000 C 
ENDROOT
BRANCH   1   3
ATOM      3  C   UNL     1       8.183   7.755  18.288  0.00  0.00    +0.000 C 
BRANCH   3   7
ATOM      4  N   UNL     1       8.851  11.311  17.976  0.00  0.00    +0.000 N 
ATOM      5  C   UNL     1       8.863  10.072  18.567  0.00  0.00    +0.000 C 
ATOM      6  O   UNL     1       9.436   9.827  19.624  0.00  0.00    +0.000 OA
ATOM      7  N   UNL     1       8.168   9.132  17.849  0.00  0.00    +0.000 N 
ATOM      8  H   UNL     1       8.057  11.511  17.383  0.00  0.00    +0.000 HD
ATOM      9  H   UNL     1       7.941   9.333  16.887  0.00  0.00    +0.000 HD
BRANCH   4  10
ATOM     10  C   UNL     1       9.385  12.451  18.714  0.00  0.00    +0.000 C 
BRANCH  10  11
ATOM     11  C   UNL     1       9.754  13.631  17.813  0.00  0.00    +0.000 C 
BRANCH  11  13
ATOM     12  C   UNL     1      12.060  13.725  17.305  0.00  0.00    +0.000 C 
ATOM     13  O   UNL     1      10.786  13.234  16.902  0.00  0.00    +0.000 OA
ENDBRANCH  11  13
ENDBRANCH  10  11
ENDBRANCH   4  10
ENDBRANCH   3   7
ENDBRANCH   1   3
BRANCH   2  14
ATOM     14  C   UNL     1       4.847   5.508  16.646  0.00  0.00    +0.000 C 
BRANCH  14  15
ATOM     15  N   UNL     1       4.424   4.452  17.569  0.00  0.00    +0.000 NA
ATOM     16  C   UNL     1       3.383   3.603  16.957  0.00  0.00    +0.000 C 
ATOM     17  C   UNL     1       1.952   3.840  17.462  0.00  0.00    +0.000 C 
ATOM     18  C   UNL     1       1.943   3.681  18.954  0.00  0.00    +0.000 A 
ATOM     19  C   UNL     1       0.917   3.040  19.647  0.00  0.00    +0.000 A 
ATOM     20  C   UNL     1       0.988   2.913  21.034  0.00  0.00    +0.000 A 
ATOM     21  C   UNL     1       2.076   3.436  21.734  0.00  0.00    +0.000 A 
ATOM     22  C   UNL     1       3.095   4.095  21.049  0.00  0.00    +0.000 A 
ATOM     23  C   UNL     1       3.036   4.215  19.659  0.00  0.00    +0.000 A 
ATOM     24  C   UNL     1       4.056   5.013  18.887  0.00  0.00    +0.000 C 
ENDBRANCH  14  15
ENDBRANCH   2  14
TORSDOF 7
ENDMDL
MODEL 8
REMARK VINA RESULT:      -6.6      7.000      9.047
REMARK  Name = 
REMARK  8 active torsions:
REMARK  status: ('A' for Active; 'I' for Inactive)
REMARK    1  A    between atoms: C_1  and  O_2
REMARK    2  A    between atoms: O_2  and  C_3
REMARK    3  A    between atoms: C_3  and  C_4
REMARK    4  A    between atoms: C_4  and  N_5
REMARK    5  A    between atoms: N_8  and  C_9
REMARK    6  A    between atoms: C_9  and  C_10
REMARK    7  A    between atoms: C_11  and  C_12
REMARK    8  A    between atoms: C_12  and  N_13
REMARK                            x       y       z     vdW  Elec       q    Type
REMARK                         _______ _______ _______ _____ _____    ______ ____
ROOT
ATOM      1  C   UNL     1       8.202   8.659  18.112  0.00  0.00    +0.000 C 
ATOM      2  C   UNL     1       7.551   7.742  17.453  0.00  0.00    +0.000 C 
ENDROOT
BRANCH   1   3
ATOM      3  C   UNL     1       8.962   9.727  18.881  0.00  0.00    +0.000 C 
BRANCH   3   7
ATOM      4  N   UNL     1      10.761  12.506  17.389  0.00  0.00    +0.000 N 
ATOM      5  C   UNL     1      10.460  11.563  18.340  0.00  0.00    +0.000 C 
ATOM      6  O   UNL     1      11.119  11.390  19.361  0.00  0.00    +0.000 OA
ATOM      7  N   UNL     1       9.342  10.831  18.030  0.00  0.00    +0.000 N 
ATOM      8  H   UNL     1       9.983  12.848  16.842  0.00  0.00    +0.000 HD
ATOM      9  H   UNL     1       9.003  10.851  17.081  0.00  0.00    +0.000 HD
BRANCH   4  10
ATOM     10  C   UNL     1      11.807  13.485  17.671  0.00  0.00    +0.000 C 
BRANCH  10  11
ATOM     11  C   UNL     1      11.267  14.904  17.860  0.00  0.00    +0.000 C 
BRANCH  11  13
ATOM     12  C   UNL     1      12.332  17.011  17.767  0.00  0.00    +0.000 C 
ATOM     13  O   UNL     1      12.295  15.740  18.406  0.00  0.00    +0.000 OA
ENDBRANCH  11  13
ENDBRANCH  10  11
ENDBRANCH   4  10
ENDBRANCH   3   7
ENDBRANCH   1   3
BRANCH   2  14
ATOM     14  C   UNL     1       6.791   6.673  16.683  0.00  0.00    +0.000 C 
BRANCH  14  15
ATOM     15  N   UNL     1       5.981   5.854  17.589  0.00  0.00    +0.000 NA
ATOM     16  C   UNL     1       6.225   4.417  17.358  0.00  0.00    +0.000 C 
ATOM     17  C   UNL     1       5.118   3.670  16.600  0.00  0.00    +0.000 C 
ATOM     18  C   UNL     1       3.824   3.867  17.333  0.00  0.00    +0.000 A 
ATOM     19  C   UNL     1       2.883   2.853  17.508  0.00  0.00    +0.000 A 
ATOM     20  C   UNL     1       1.711   3.108  18.219  0.00  0.00    +0.000 A 
ATOM     21  C   UNL     1       1.469   4.377  18.746  0.00  0.00    +0.000 A 
ATOM     22  C   UNL     1       2.396   5.399  18.558  0.00  0.00    +0.000 A 
ATOM     23  C   UNL     1       3.577   5.148  17.857  0.00  0.00    +0.000 A 
ATOM     24  C   UNL     1       4.558   6.247  17.534  0.00  0.00    +0.000 C 
ENDBRANCH  14  15
ENDBRANCH   2  14
TORSDOF 7
ENDMDL
MODEL 9
REMARK VINA RESULT:      -6.6      6.876      8.945
REMARK  Name = 
REMARK  8 active torsions:
REMARK  status: ('A' for Active; 'I' for Inactive)
REMARK    1  A    between atoms: C_1  and  O_2
REMARK    2  A    between atoms: O_2  and  C_3
REMARK    3  A    between atoms: C_3  and  C_4
REMARK    4  A    between atoms: C_4  and  N_5
REMARK    5  A    between atoms: N_8  and  C_9
REMARK    6  A    between atoms: C_9  and  C_10
REMARK    7  A    between atoms: C_11  and  C_12
REMARK    8  A    between atoms: C_12  and  N_13
REMARK                            x       y       z     vdW  Elec       q    Type
REMARK                         _______ _______ _______ _____ _____    ______ ____
ROOT
ATOM      1  C   UNL     1       8.340   8.866  18.233  0.00  0.00    +0.000 C 
ATOM      2  C   UNL     1       7.575   7.970  17.674  0.00  0.00    +0.000 C 
ENDROOT
BRANCH   1   3
ATOM      3  C   UNL     1       9.232   9.909  18.887  0.00  0.00    +0.000 C 
BRANCH   3   7
ATOM      4  N   UNL     1      11.004  12.512  17.079  0.00  0.00    +0.000 N 
ATOM      5  C   UNL     1      10.784  11.594  18.075  0.00  0.00    +0.000 C 
ATOM      6  O   UNL     1      11.594  11.345  18.964  0.00  0.00    +0.000 OA
ATOM      7  N   UNL     1       9.562  10.979  17.974  0.00  0.00    +0.000 N 
ATOM      8  H   UNL     1      10.179  12.935  16.676  0.00  0.00    +0.000 HD
ATOM      9  H   UNL     1       9.063  11.042  17.100  0.00  0.00    +0.000 HD
BRANCH   4  10
ATOM     10  C   UNL     1      12.175  13.379  17.163  0.00  0.00    +0.000 C 
BRANCH  10  11
ATOM     11  C   UNL     1      11.825  14.868  17.117  0.00  0.00    +0.000 C 
BRANCH  11  13
ATOM     12  C   UNL     1      10.142  16.129  18.196  0.00  0.00    +0.000 C 
ATOM     13  O   UNL     1      11.262  15.267  18.373  0.00  0.00    +0.000 OA
ENDBRANCH  11  13
ENDBRANCH  10  11
ENDBRANCH   4  10
ENDBRANCH   3   7
ENDBRANCH   1   3
BRANCH   2  14
ATOM     14  C   UNL     1       6.683   6.927  17.020  0.00  0.00    +0.000 C 
BRANCH  14  15
ATOM     15  N   UNL     1       5.624   6.497  17.937  0.00  0.00    +0.000 NA
ATOM     16  C   UNL     1       6.139   5.516  18.912  0.00  0.00    +0.000 C 
ATOM     17  C   UNL     1       5.737   4.055  18.659  0.00  0.00    +0.000 C 
ATOM     18  C   UNL     1       4.240   3.981  18.586  0.00  0.00    +0.000 A 
ATOM     19  C   UNL     1       3.498   2.945  19.153  0.00  0.00    +0.000 A 
ATOM     20  C   UNL     1       2.107   2.955  19.061  0.00  0.00    +0.000 A 
ATOM     21  C   UNL     1       1.453   3.990  18.393  0.00  0.00    +0.000 A 
ATOM     22  C   UNL     1       2.190   5.018  17.807  0.00  0.00    +0.000 A 
ATOM     23  C   UNL     1       3.582   5.020  17.905  0.00  0.00    +0.000 A 
ATOM     24  C   UNL     1       4.427   6.048  17.195  0.00  0.00    +0.000 C 
ENDBRANCH  14  15
ENDBRANCH   2  14
TORSDOF 7
ENDMDL
