MODEL 1
REMARK VINA RESULT:      -7.3      0.000      0.000
REMARK  Name = 
REMARK  4 active torsions:
REMARK  status: ('A' for Active; 'I' for Inactive)
REMARK    1  A    between atoms: C_1  and  C_2
REMARK    2  A    between atoms: C_2  and  N_3
REMARK    3  A    between atoms: C_8  and  C_9
REMARK    4  A    between atoms: C_12  and  N_13
REMARK                            x       y       z     vdW  Elec       q    Type
REMARK                         _______ _______ _______ _____ _____    ______ ____
ROOT
ATOM      1  C   UNL     1       2.330   6.846  18.766  0.00  0.00    +0.000 A 
ATOM      2  C   UNL     1       2.070   6.688  20.125  0.00  0.00    +0.000 A 
ATOM      3  C   UNL     1       1.524   7.744  20.871  0.00  0.00    +0.000 A 
ATOM      4  C   UNL     1       1.203   8.988  20.294  0.00  0.00    +0.000 A 
ATOM      5  C   UNL     1       1.539   9.125  18.931  0.00  0.00    +0.000 A 
ATOM      6  F   UNL     1       1.340  10.285  18.282  0.00  0.00    +0.000 F 
ATOM      7  C   UNL     1       2.073   8.078  18.173  0.00  0.00    +0.000 A 
ENDROOT
BRANCH   1  13
ATOM      8  N   UNL     1       5.868   4.758  16.224  0.00  0.00    +0.000 N 
ATOM      9  C   UNL     1       6.426   5.969  16.535  0.00  0.00    +0.000 C 
ATOM     10  O   UNL     1       7.522   6.387  16.187  0.00  0.00    +0.000 OA
ATOM     11  S   UNL     1       5.322   6.907  17.522  0.00  0.00    +0.000 S 
ATOM     12  C   UNL     1       4.095   5.707  17.433  0.00  0.00    +0.000 C 
ATOM     13  C   UNL     1       2.867   5.742  17.968  0.00  0.00    +0.000 C 
ATOM     14  C   UNL     1       4.576   4.542  16.643  0.00  0.00    +0.000 C 
ATOM     15  O   UNL     1       3.898   3.554  16.403  0.00  0.00    +0.000 OA
BRANCH   8  17
ATOM     16  C   UNL     1       6.267   3.988  13.920  0.00  0.00    +0.000 C 
ATOM     17  C   UNL     1       6.569   3.792  15.398  0.00  0.00    +0.000 C 
ENDBRANCH   8  17
ENDBRANCH   1  13
BRANCH   4  18
ATOM     18  N   UNL     1       0.620   9.994  21.054  0.00  0.00    +0.000 N 
ATOM     19  C   UNL     1       0.592   9.937  22.520  0.00  0.00    +0.000 C 
ATOM     20  C   UNL     1      -0.814  10.404  22.881  0.00  0.00    +0.000 C 
ATOM     21  C   UNL     1      -1.125  11.422  21.799  0.00  0.00    +0.000 C 
ATOM     22  C   UNL     1      -0.493  10.807  20.551  0.00  0.00    +0.000 C 
ENDBRANCH   4  18
TORSDOF 3
ENDMDL
MODEL 2
REMARK VINA RESULT:      -7.2      1.235      1.739
REMARK  Name = 
REMARK  4 active torsions:
REMARK  status: ('A' for Active; 'I' for Inactive)
REMARK    1  A    between atoms: C_1  and  C_2
REMARK    2  A    between atoms: C_2  and  N_3
REMARK    3  A    between atoms: C_8  and  C_9
REMARK    4  A    between atoms: C_12  and  N_13
REMARK                            x       y       z     vdW  Elec       q    Type
REMARK                         _______ _______ _______ _____ _____    ______ ____
ROOT
ATOM      1  C   UNL     1       2.228   7.225  18.625  0.00  0.00    +0.000 A 
ATOM      2  C   UNL     1       1.872   8.357  17.897  0.00  0.00    +0.000 A 
ATOM      3  C   UNL     1       1.371   9.494  18.551  0.00  0.00    +0.000 A 
ATOM      4  C   UNL     1       1.220   9.554  19.950  0.00  0.00    +0.000 A 
ATOM      5  C   UNL     1       1.534   8.365  20.641  0.00  0.00    +0.000 A 
ATOM      6  F   UNL     1       1.371   8.275  21.972  0.00  0.00    +0.000 F 
ATOM      7  C   UNL     1       2.043   7.229  20.004  0.00  0.00    +0.000 A 
ENDROOT
BRANCH   1  13
ATOM      8  N   UNL     1       5.827   4.890  16.406  0.00  0.00    +0.000 N 
ATOM      9  C   UNL     1       6.380   6.126  16.608  0.00  0.00    +0.000 C 
ATOM     10  O   UNL     1       7.486   6.507  16.250  0.00  0.00    +0.000 OA
ATOM     11  S   UNL     1       5.252   7.159  17.464  0.00  0.00    +0.000 S 
ATOM     12  C   UNL     1       4.025   5.956  17.464  0.00  0.00    +0.000 C 
ATOM     13  C   UNL     1       2.783   6.045  17.959  0.00  0.00    +0.000 C 
ATOM     14  C   UNL     1       4.524   4.717  16.810  0.00  0.00    +0.000 C 
ATOM     15  O   UNL     1       3.850   3.710  16.653  0.00  0.00    +0.000 OA
BRANCH   8  17
ATOM     16  C   UNL     1       6.301   3.899  14.202  0.00  0.00    +0.000 C 
ATOM     17  C   UNL     1       6.549   3.845  15.702  0.00  0.00    +0.000 C 
ENDBRANCH   8  17
ENDBRANCH   1  13
BRANCH   4  18
ATOM     18  N   UNL     1       0.766  10.713  20.566  0.00  0.00    +0.000 N 
ATOM     19  C   UNL     1      -0.602  10.829  21.081  0.00  0.00    +0.000 C 
ATOM     20  C   UNL     1      -1.039  12.229  20.664  0.00  0.00    +0.000 C 
ATOM     21  C   UNL     1       0.251  13.025  20.738  0.00  0.00    +0.000 C 
ATOM     22  C   UNL     1       1.300  12.038  20.227  0.00  0.00    +0.000 C 
ENDBRANCH   4  18
TORSDOF 3
ENDMDL
MODEL 3
REMARK VINA RESULT:      -7.1      0.806      1.066
REMARK  Name = 
REMARK  4 active torsions:
REMARK  status: ('A' for Active; 'I' for Inactive)
REMARK    1  A    between atoms: C_1  and  C_2
REMARK    2  A    between atoms: C_2  and  N_3
REMARK    3  A    between atoms: C_8  and  C_9
REMARK    4  A    between atoms: C_12  and  N_13
REMARK                            x       y       z     vdW  Elec       q    Type
REMARK                         _______ _______ _______ _____ _____    ______ ____
ROOT
ATOM      1  C   UNL     1       2.276   7.152  18.692  0.00  0.00    +0.000 A 
ATOM      2  C   UNL     1       2.072   7.151  20.070  0.00  0.00    +0.000 A 
ATOM      3  C   UNL     1       1.539   8.281  20.710  0.00  0.00    +0.000 A 
ATOM      4  C   UNL     1       1.174   9.445  20.006  0.00  0.00    +0.000 A 
ATOM      5  C   UNL     1       1.455   9.425  18.623  0.00  0.00    +0.000 A 
ATOM      6  F   UNL     1       1.211  10.499  17.852  0.00  0.00    +0.000 F 
ATOM      7  C   UNL     1       1.976   8.303  17.971  0.00  0.00    +0.000 A 
ENDROOT
BRANCH   1  13
ATOM      8  N   UNL     1       5.779   4.789  16.351  0.00  0.00    +0.000 N 
ATOM      9  C   UNL     1       6.347   6.022  16.533  0.00  0.00    +0.000 C 
ATOM     10  O   UNL     1       7.443   6.394  16.136  0.00  0.00    +0.000 OA
ATOM     11  S   UNL     1       5.258   7.063  17.427  0.00  0.00    +0.000 S 
ATOM     12  C   UNL     1       4.022   5.869  17.470  0.00  0.00    +0.000 C 
ATOM     13  C   UNL     1       2.799   5.968  18.008  0.00  0.00    +0.000 C 
ATOM     14  C   UNL     1       4.489   4.627  16.799  0.00  0.00    +0.000 C 
ATOM     15  O   UNL     1       3.802   3.625  16.666  0.00  0.00    +0.000 OA
BRANCH   8  17
ATOM     16  C   UNL     1       6.265   3.868  14.120  0.00  0.00    +0.000 C 
ATOM     17  C   UNL     1       6.467   3.739  15.622  0.00  0.00    +0.000 C 
ENDBRANCH   8  17
ENDBRANCH   1  13
BRANCH   4  18
ATOM     18  N   UNL     1       0.606  10.526  20.667  0.00  0.00    +0.000 N 
ATOM     19  C   UNL     1      -0.848  10.684  20.782  0.00  0.00    +0.000 C 
ATOM     20  C   UNL     1      -1.080  12.168  20.520  0.00  0.00    +0.000 C 
ATOM     21  C   UNL     1       0.161  12.817  21.103  0.00  0.00    +0.000 C 
ATOM     22  C   UNL     1       1.272  11.832  20.743  0.00  0.00    +0.000 C 
ENDBRANCH   4  18
TORSDOF 3
ENDMDL
MODEL 4
REMARK VINA RESULT:      -7.0      3.956      8.502
REMARK  Name = 
REMARK  4 active torsions:
REMARK  status: ('A' for Active; 'I' for Inactive)
REMARK    1  A    between atoms: C_1  and  C_2
REMARK    2  A    between atoms: C_2  and  N_3
REMARK    3  A    between atoms: C_8  and  C_9
REMARK    4  A    between atoms: C_12  and  N_13
REMARK                            x       y       z     vdW  Elec       q    Type
REMARK                         _______ _______ _______ _____ _____    ______ ____
ROOT
ATOM      1  C   UNL     1       1.517   7.798  20.504  0.00  0.00    +0.000 A 
ATOM      2  C   UNL     1       1.551   6.420  20.705  0.00  0.00    +0.000 A 
ATOM      3  C   UNL     1       2.101   5.574  19.730  0.00  0.00    +0.000 A 
ATOM      4  C   UNL     1       2.651   6.062  18.530  0.00  0.00    +0.000 A 
ATOM      5  C   UNL     1       2.541   7.457  18.341  0.00  0.00    +0.000 A 
ATOM      6  F   UNL     1       2.971   8.037  17.208  0.00  0.00    +0.000 F 
ATOM      7  C   UNL     1       2.005   8.313  19.308  0.00  0.00    +0.000 A 
ENDROOT
BRANCH   1  13
ATOM      8  N   UNL     1      -1.138  11.598  21.862  0.00  0.00    +0.000 N 
ATOM      9  C   UNL     1      -1.251  11.653  20.498  0.00  0.00    +0.000 C 
ATOM     10  O   UNL     1      -1.840  12.499  19.840  0.00  0.00    +0.000 OA
ATOM     11  S   UNL     1      -0.391  10.311  19.767  0.00  0.00    +0.000 S 
ATOM     12  C   UNL     1       0.181   9.745  21.286  0.00  0.00    +0.000 C 
ATOM     13  C   UNL     1       0.978   8.695  21.528  0.00  0.00    +0.000 C 
ATOM     14  C   UNL     1      -0.339  10.607  22.381  0.00  0.00    +0.000 C 
ATOM     15  O   UNL     1      -0.070  10.445  23.562  0.00  0.00    +0.000 OA
BRANCH   8  17
ATOM     16  C   UNL     1      -3.073  12.135  23.286  0.00  0.00    +0.000 C 
ATOM     17  C   UNL     1      -1.746  12.606  22.711  0.00  0.00    +0.000 C 
ENDBRANCH   8  17
ENDBRANCH   1  13
BRANCH   4  18
ATOM     18  N   UNL     1       3.229   5.198  17.610  0.00  0.00    +0.000 N 
ATOM     19  C   UNL     1       2.754   3.821  17.438  0.00  0.00    +0.000 C 
ATOM     20  C   UNL     1       4.033   3.000  17.314  0.00  0.00    +0.000 C 
ATOM     21  C   UNL     1       4.980   3.949  16.603  0.00  0.00    +0.000 C 
ATOM     22  C   UNL     1       4.639   5.307  17.215  0.00  0.00    +0.000 C 
ENDBRANCH   4  18
TORSDOF 3
ENDMDL
MODEL 5
REMARK VINA RESULT:      -6.9      3.598      8.353
REMARK  Name = 
REMARK  4 active torsions:
REMARK  status: ('A' for Active; 'I' for Inactive)
REMARK    1  A    between atoms: C_1  and  C_2
REMARK    2  A    between atoms: C_2  and  N_3
REMARK    3  A    between atoms: C_8  and  C_9
REMARK    4  A    between atoms: C_12  and  N_13
REMARK                            x       y       z     vdW  Elec       q    Type
REMARK                         _______ _______ _______ _____ _____    ______ ____
ROOT
ATOM      1  C   UNL     1       2.112   7.970  18.532  0.00  0.00    +0.000 A 
ATOM      2  C   UNL     1       3.155   8.273  17.660  0.00  0.00    +0.000 A 
ATOM      3  C   UNL     1       4.089   7.288  17.301  0.00  0.00    +0.000 A 
ATOM      4  C   UNL     1       4.014   5.967  17.781  0.00  0.00    +0.000 A 
ATOM      5  C   UNL     1       2.979   5.720  18.708  0.00  0.00    +0.000 A 
ATOM      6  F   UNL     1       2.841   4.515  19.286  0.00  0.00    +0.000 F 
ATOM      7  C   UNL     1       2.036   6.688  19.067  0.00  0.00    +0.000 A 
ENDROOT
BRANCH   1  13
ATOM      8  N   UNL     1      -0.375  10.538  21.781  0.00  0.00    +0.000 N 
ATOM      9  C   UNL     1       0.364   9.712  22.585  0.00  0.00    +0.000 C 
ATOM     10  O   UNL     1       0.326   9.645  23.806  0.00  0.00    +0.000 OA
ATOM     11  S   UNL     1       1.409   8.697  21.611  0.00  0.00    +0.000 S 
ATOM     12  C   UNL     1       0.781   9.325  20.139  0.00  0.00    +0.000 C 
ATOM     13  C   UNL     1       1.111   8.978  18.887  0.00  0.00    +0.000 C 
ATOM     14  C   UNL     1      -0.239  10.368  20.423  0.00  0.00    +0.000 C 
ATOM     15  O   UNL     1      -0.863  10.965  19.558  0.00  0.00    +0.000 OA
BRANCH   8  17
ATOM     16  C   UNL     1      -0.752  12.869  22.478  0.00  0.00    +0.000 C 
ATOM     17  C   UNL     1      -1.337  11.472  22.337  0.00  0.00    +0.000 C 
ENDBRANCH   8  17
ENDBRANCH   1  13
BRANCH   4  18
ATOM     18  N   UNL     1       4.929   5.008  17.366  0.00  0.00    +0.000 N 
ATOM     19  C   UNL     1       6.173   4.758  18.103  0.00  0.00    +0.000 C 
ATOM     20  C   UNL     1       7.226   4.604  17.010  0.00  0.00    +0.000 C 
ATOM     21  C   UNL     1       6.452   3.956  15.878  0.00  0.00    +0.000 C 
ATOM     22  C   UNL     1       5.086   4.636  15.955  0.00  0.00    +0.000 C 
ENDBRANCH   4  18
TORSDOF 3
ENDMDL
MODEL 6
REMARK VINA RESULT:      -6.8      1.482      2.486
REMARK  Name = 
REMARK  4 active torsions:
REMARK  status: ('A' for Active; 'I' for Inactive)
REMARK    1  A    between atoms: C_1  and  C_2
REMARK    2  A    between atoms: C_2  and  N_3
REMARK    3  A    between atoms: C_8  and  C_9
REMARK    4  A    between atoms: C_12  and  N_13
REMARK                            x       y       z     vdW  Elec       q    Type
REMARK                         _______ _______ _______ _____ _____    ______ ____
ROOT
ATOM      1  C   UNL     1       2.599   8.303  18.318  0.00  0.00    +0.000 A 
ATOM      2  C   UNL     1       1.867   9.417  17.914  0.00  0.00    +0.000 A 
ATOM      3  C   UNL     1       0.888   9.966  18.757  0.00  0.00    +0.000 A 
ATOM      4  C   UNL     1       0.610   9.442  20.033  0.00  0.00    +0.000 A 
ATOM      5  C   UNL     1       1.330   8.278  20.376  0.00  0.00    +0.000 A 
ATOM      6  F   UNL     1       1.110   7.646  21.541  0.00  0.00    +0.000 F 
ATOM      7  C   UNL     1       2.316   7.726  19.552  0.00  0.00    +0.000 A 
ENDROOT
BRANCH   1  13
ATOM      8  N   UNL     1       4.968   4.559  16.392  0.00  0.00    +0.000 N 
ATOM      9  C   UNL     1       4.077   3.929  17.220  0.00  0.00    +0.000 C 
ATOM     10  O   UNL     1       3.984   2.726  17.424  0.00  0.00    +0.000 OA
ATOM     11  S   UNL     1       3.048   5.108  18.010  0.00  0.00    +0.000 S 
ATOM     12  C   UNL     1       3.878   6.432  17.292  0.00  0.00    +0.000 C 
ATOM     13  C   UNL     1       3.647   7.741  17.464  0.00  0.00    +0.000 C 
ATOM     14  C   UNL     1       4.956   5.934  16.397  0.00  0.00    +0.000 C 
ATOM     15  O   UNL     1       5.717   6.662  15.777  0.00  0.00    +0.000 OA
BRANCH   8  17
ATOM     16  C   UNL     1       5.751   3.981  14.131  0.00  0.00    +0.000 C 
ATOM     17  C   UNL     1       5.950   3.811  15.629  0.00  0.00    +0.000 C 
ENDBRANCH   8  17
ENDBRANCH   1  13
BRANCH   4  18
ATOM     18  N   UNL     1      -0.334  10.041  20.857  0.00  0.00    +0.000 N 
ATOM     19  C   UNL     1      -1.125  11.195  20.415  0.00  0.00    +0.000 C 
ATOM     20  C   UNL     1      -1.136  12.122  21.626  0.00  0.00    +0.000 C 
ATOM     21  C   UNL     1      -1.132  11.156  22.796  0.00  0.00    +0.000 C 
ATOM     22  C   UNL     1      -0.209  10.035  22.320  0.00  0.00    +0.000 C 
ENDBRANCH   4  18
TORSDOF 3
ENDMDL
MODEL 7
REMARK VINA RESULT:      -6.8      2.932      3.790
REMARK  Name = 
REMARK  4 active torsions:
REMARK  status: ('A' for Active; 'I' for Inactive)
REMARK    1  A    between atoms: C_1  and  C_2
REMARK    2  A    between atoms: C_2  and  N_3
REMARK    3  A    between atoms: C_8  and  C_9
REMARK    4  A    between atoms: C_12  and  N_13
REMARK                            x       y       z     vdW  Elec       q    Type
REMARK                         _______ _______ _______ _____ _____    ______ ____
ROOT
ATOM      1  C   UNL     1       2.150   7.916  18.933  0.00  0.00    +0.000 A 
ATOM      2  C   UNL     1       1.785   8.746  17.877  0.00  0.00    +0.000 A 
ATOM      3  C   UNL     1       0.971   9.867  18.103  0.00  0.00    +0.000 A 
ATOM      4  C   UNL     1       0.503  10.213  19.384  0.00  0.00    +0.000 A 
ATOM      5  C   UNL     1       0.844   9.311  20.414  0.00  0.00    +0.000 A 
ATOM      6  F   UNL     1       0.405   9.496  21.671  0.00  0.00    +0.000 F 
ATOM      7  C   UNL     1       1.663   8.197  20.206  0.00  0.00    +0.000 A 
ENDROOT
BRANCH   1  13
ATOM      8  N   UNL     1       3.493   3.362  19.826  0.00  0.00    +0.000 N 
ATOM      9  C   UNL     1       2.460   3.526  20.711  0.00  0.00    +0.000 C 
ATOM     10  O   UNL     1       2.056   2.715  21.532  0.00  0.00    +0.000 OA
ATOM     11  S   UNL     1       1.762   5.124  20.533  0.00  0.00    +0.000 S 
ATOM     12  C   UNL     1       2.914   5.584  19.343  0.00  0.00    +0.000 C 
ATOM     13  C   UNL     1       3.027   6.763  18.717  0.00  0.00    +0.000 C 
ATOM     14  C   UNL     1       3.837   4.452  19.062  0.00  0.00    +0.000 C 
ATOM     15  O   UNL     1       4.767   4.512  18.272  0.00  0.00    +0.000 OA
BRANCH   8  17
ATOM     16  C   UNL     1       3.800   1.226  18.642  0.00  0.00    +0.000 C 
ATOM     17  C   UNL     1       4.257   2.128  19.777  0.00  0.00    +0.000 C 
ENDBRANCH   8  17
ENDBRANCH   1  13
BRANCH   4  18
ATOM     18  N   UNL     1      -0.263  11.356  19.576  0.00  0.00    +0.000 N 
ATOM     19  C   UNL     1       0.129  12.396  20.533  0.00  0.00    +0.000 C 
ATOM     20  C   UNL     1      -1.177  12.774  21.224  0.00  0.00    +0.000 C 
ATOM     21  C   UNL     1      -2.208  12.603  20.125  0.00  0.00    +0.000 C 
ATOM     22  C   UNL     1      -1.717  11.364  19.376  0.00  0.00    +0.000 C 
ENDBRANCH   4  18
TORSDOF 3
ENDMDL
MODEL 8
REMARK VINA RESULT:      -6.7      4.405      8.380
REMARK  Name = 
REMARK  4 active torsions:
REMARK  status: ('A' for Active; 'I' for Inactive)
REMARK    1  A    between atoms: C_1  and  C_2
REMARK    2  A    between atoms: C_2  and  N_3
REMARK    3  A    between atoms: C_8  and  C_9
REMARK    4  A    between atoms: C_12  and  N_13
REMARK                            x       y       z     vdW  Elec       q    Type
REMARK                         _______ _______ _______ _____ _____    ______ ____
ROOT
ATOM      1  C   UNL     1       1.592   8.085  20.179  0.00  0.00    +0.000 A 
ATOM      2  C   UNL     1       2.208   8.037  18.931  0.00  0.00    +0.000 A 
ATOM      3  C   UNL     1       2.614   6.809  18.386  0.00  0.00    +0.000 A 
ATOM      4  C   UNL     1       2.409   5.584  19.050  0.00  0.00    +0.000 A 
ATOM      5  C   UNL     1       1.838   5.685  20.336  0.00  0.00    +0.000 A 
ATOM      6  F   UNL     1       1.650   4.593  21.097  0.00  0.00    +0.000 F 
ATOM      7  C   UNL     1       1.420   6.900  20.888  0.00  0.00    +0.000 A 
ENDROOT
BRANCH   1  13
ATOM      8  N   UNL     1      -1.006  12.151  19.956  0.00  0.00    +0.000 N 
ATOM      9  C   UNL     1      -1.251  11.597  18.728  0.00  0.00    +0.000 C 
ATOM     10  O   UNL     1      -1.920  12.076  17.823  0.00  0.00    +0.000 OA
ATOM     11  S   UNL     1      -0.435  10.051  18.590  0.00  0.00    +0.000 S 
ATOM     12  C   UNL     1       0.294  10.206  20.139  0.00  0.00    +0.000 C 
ATOM     13  C   UNL     1       1.133   9.355  20.744  0.00  0.00    +0.000 C 
ATOM     14  C   UNL     1      -0.139  11.475  20.782  0.00  0.00    +0.000 C 
ATOM     15  O   UNL     1       0.247  11.849  21.880  0.00  0.00    +0.000 OA
BRANCH   8  17
ATOM     16  C   UNL     1      -2.913  13.314  20.991  0.00  0.00    +0.000 C 
ATOM     17  C   UNL     1      -1.553  13.445  20.324  0.00  0.00    +0.000 C 
ENDBRANCH   8  17
ENDBRANCH   1  13
BRANCH   4  18
ATOM     18  N   UNL     1       2.782   4.384  18.458  0.00  0.00    +0.000 N 
ATOM     19  C   UNL     1       1.803   3.506  17.810  0.00  0.00    +0.000 C 
ATOM     20  C   UNL     1       2.206   2.106  18.260  0.00  0.00    +0.000 C 
ATOM     21  C   UNL     1       3.717   2.203  18.368  0.00  0.00    +0.000 C 
ATOM     22  C   UNL     1       3.937   3.608  18.927  0.00  0.00    +0.000 C 
ENDBRANCH   4  18
TORSDOF 3
ENDMDL
MODEL 9
REMARK VINA RESULT:      -6.7      4.233      8.670
REMARK  Name = 
REMARK  4 active torsions:
REMARK  status: ('A' for Active; 'I' for Inactive)
REMARK    1  A    between atoms: C_1  and  C_2
REMARK    2  A    between atoms: C_2  and  N_3
REMARK    3  A    between atoms: C_8  and  C_9
REMARK    4  A    between atoms: C_12  and  N_13
REMARK                            x       y       z     vdW  Elec       q    Type
REMARK                         _______ _______ _______ _____ _____    ______ ____
ROOT
ATOM      1  C   UNL     1       1.469   8.347  20.316  0.00  0.00    +0.000 A 
ATOM      2  C   UNL     1       1.851   8.628  19.007  0.00  0.00    +0.000 A 
ATOM      3  C   UNL     1       2.379   7.617  18.188  0.00  0.00    +0.000 A 
ATOM      4  C   UNL     1       2.533   6.291  18.632  0.00  0.00    +0.000 A 
ATOM      5  C   UNL     1       2.192   6.064  19.983  0.00  0.00    +0.000 A 
ATOM      6  F   UNL     1       2.354   4.853  20.543  0.00  0.00    +0.000 F 
ATOM      7  C   UNL     1       1.655   7.058  20.806  0.00  0.00    +0.000 A 
ENDROOT
BRANCH   1  13
ATOM      8  N   UNL     1      -1.607  11.991  21.089  0.00  0.00    +0.000 N 
ATOM      9  C   UNL     1      -1.835  11.709  19.768  0.00  0.00    +0.000 C 
ATOM     10  O   UNL     1      -2.595  12.295  19.010  0.00  0.00    +0.000 OA
ATOM     11  S   UNL     1      -0.846  10.353  19.260  0.00  0.00    +0.000 S 
ATOM     12  C   UNL     1      -0.076  10.238  20.793  0.00  0.00    +0.000 C 
ATOM     13  C   UNL     1       0.886   9.383  21.169  0.00  0.00    +0.000 C 
ATOM     14  C   UNL     1      -0.630  11.258  21.721  0.00  0.00    +0.000 C 
ATOM     15  O   UNL     1      -0.246  11.414  22.871  0.00  0.00    +0.000 OA
BRANCH   8  17
ATOM     16  C   UNL     1      -3.557  12.617  22.454  0.00  0.00    +0.000 C 
ATOM     17  C   UNL     1      -2.289  13.084  21.757  0.00  0.00    +0.000 C 
ENDBRANCH   8  17
ENDBRANCH   1  13
BRANCH   4  18
ATOM     18  N   UNL     1       3.015   5.307  17.778  0.00  0.00    +0.000 N 
ATOM     19  C   UNL     1       2.259   4.080  17.507  0.00  0.00    +0.000 C 
ATOM     20  C   UNL     1       3.315   2.980  17.539  0.00  0.00    +0.000 C 
ATOM     21  C   UNL     1       4.548   3.673  16.990  0.00  0.00    +0.000 C 
ATOM     22  C   UNL     1       4.452   5.077  17.585  0.00  0.00    +0.000 C 
ENDBRANCH   4  18
TORSDOF 3
ENDMDL
