MODEL 1
REMARK VINA RESULT:      -7.5      0.000      0.000
REMARK  Name = 
REMARK  7 active torsions:
REMARK  status: ('A' for Active; 'I' for Inactive)
REMARK    1  A    between atoms: C_1  and  O_2
REMARK    2  A    between atoms: O_2  and  C_3
REMARK    3  A    between atoms: C_3  and  C_5
REMARK    4  A    between atoms: C_8  and  N_9
REMARK    5  A    between atoms: C_10  and  C_12
REMARK    6  A    between atoms: C_15  and  C_16
REMARK    7  A    between atoms: C_24  and  C_25
REMARK                            x       y       z     vdW  Elec       q    Type
REMARK                         _______ _______ _______ _____ _____    ______ ____
ROOT
ATOM      1  C   UNL     1       1.174   9.806  19.593  0.00  0.00    +0.000 A 
ATOM      2  C   UNL     1       1.505   9.844  18.237  0.00  0.00    +0.000 A 
ATOM      3  C   UNL     1       2.132   8.745  17.649  0.00  0.00    +0.000 A 
ATOM      4  C   UNL     1       2.430   7.627  18.424  0.00  0.00    +0.000 A 
ATOM      5  N   UNL     1       2.090   7.572  19.735  0.00  0.00    +0.000 NA
ATOM      6  C   UNL     1       1.486   8.648  20.315  0.00  0.00    +0.000 A 
ATOM      7  C   UNL     1       1.170   8.484  21.775  0.00  0.00    +0.000 C 
ENDROOT
BRANCH   4   8
ATOM      8  C   UNL     1       3.134   6.440  17.895  0.00  0.00    +0.000 A 
ATOM      9  C   UNL     1       4.343   6.578  17.184  0.00  0.00    +0.000 A 
ATOM     10  C   UNL     1       5.024   5.467  16.673  0.00  0.00    +0.000 A 
ATOM     11  C   UNL     1       4.508   4.190  16.861  0.00  0.00    +0.000 A 
ATOM     12  C   UNL     1       3.309   4.030  17.550  0.00  0.00    +0.000 A 
ATOM     13 BR   UNL     1       2.589   2.299  17.798  0.00  0.00    +0.000 Br
ATOM     14  C   UNL     1       2.625   5.139  18.058  0.00  0.00    +0.000 A 
ENDBRANCH   4   8
BRANCH   1  16
ATOM     15  N   UNL     1      -0.780  10.915  20.537  0.00  0.00    +0.000 N 
ATOM     16  C   UNL     1       0.579  10.992  20.260  0.00  0.00    +0.000 C 
ATOM     17  O   UNL     1       1.333  11.919  20.531  0.00  0.00    +0.000 OA
ATOM     18  H   UNL     1      -1.254  10.031  20.408  0.00  0.00    +0.000 HD
BRANCH  15  22
ATOM     19  C   UNL     1      -2.570  13.416  22.822  0.00  0.00    +0.000 A 
ATOM     20  C   UNL     1      -3.004  13.664  21.531  0.00  0.00    +0.000 A 
ATOM     21  C   UNL     1      -2.372  12.815  20.567  0.00  0.00    +0.000 A 
ATOM     22  C   UNL     1      -1.514  11.915  21.161  0.00  0.00    +0.000 A 
ATOM     23  S   UNL     1      -1.390  12.186  22.829  0.00  0.00    +0.000 S 
BRANCH  19  24
ATOM     24  C   UNL     1      -3.001  14.060  24.052  0.00  0.00    +0.000 C 
ATOM     25  O   UNL     1      -2.282  14.754  24.763  0.00  0.00    +0.000 OA
BRANCH  24  27
ATOM     26  C   UNL     1      -4.601  12.469  24.747  0.00  0.00    +0.000 C 
ATOM     27  O   UNL     1      -4.312  13.796  24.315  0.00  0.00    +0.000 OA
ENDBRANCH  24  27
ENDBRANCH  19  24
ENDBRANCH  15  22
ENDBRANCH   1  16
TORSDOF 5
ENDMDL
MODEL 2
REMARK VINA RESULT:      -7.3      1.184      1.509
REMARK  Name = 
REMARK  7 active torsions:
REMARK  status: ('A' for Active; 'I' for Inactive)
REMARK    1  A    between atoms: C_1  and  O_2
REMARK    2  A    between atoms: O_2  and  C_3
REMARK    3  A    between atoms: C_3  and  C_5
REMARK    4  A    between atoms: C_8  and  N_9
REMARK    5  A    between atoms: C_10  and  C_12
REMARK    6  A    between atoms: C_15  and  C_16
REMARK    7  A    between atoms: C_24  and  C_25
REMARK                            x       y       z     vdW  Elec       q    Type
REMARK                         _______ _______ _______ _____ _____    ______ ____
ROOT
ATOM      1  C   UNL     1       1.079   9.833  19.765  0.00  0.00    +0.000 A 
ATOM      2  C   UNL     1       1.415   9.893  18.411  0.00  0.00    +0.000 A 
ATOM      3  C   UNL     1       2.028   8.797  17.803  0.00  0.00    +0.000 A 
ATOM      4  C   UNL     1       2.306   7.658  18.555  0.00  0.00    +0.000 A 
ATOM      5  N   UNL     1       1.962   7.583  19.865  0.00  0.00    +0.000 NA
ATOM      6  C   UNL     1       1.371   8.656  20.464  0.00  0.00    +0.000 A 
ATOM      7  C   UNL     1       1.049   8.468  21.920  0.00  0.00    +0.000 C 
ENDROOT
BRANCH   4   8
ATOM      8  C   UNL     1       2.994   6.472  18.005  0.00  0.00    +0.000 A 
ATOM      9  C   UNL     1       2.361   5.213  17.995  0.00  0.00    +0.000 A 
ATOM     10  C   UNL     1       2.996   4.077  17.481  0.00  0.00    +0.000 A 
ATOM     11  C   UNL     1       4.283   4.176  16.964  0.00  0.00    +0.000 A 
ATOM     12  C   UNL     1       4.932   5.407  16.973  0.00  0.00    +0.000 A 
ATOM     13 BR   UNL     1       6.688   5.550  16.287  0.00  0.00    +0.000 Br
ATOM     14  C   UNL     1       4.301   6.542  17.490  0.00  0.00    +0.000 A 
ENDBRANCH   4   8
BRANCH   1  16
ATOM     15  N   UNL     1      -0.887  11.076  20.491  0.00  0.00    +0.000 N 
ATOM     16  C   UNL     1       0.501  11.015  20.454  0.00  0.00    +0.000 C 
ATOM     17  O   UNL     1       1.286  11.814  20.948  0.00  0.00    +0.000 OA
ATOM     18  H   UNL     1      -1.418  10.272  20.186  0.00  0.00    +0.000 HD
BRANCH  15  22
ATOM     19  C   UNL     1      -2.888  13.494  22.688  0.00  0.00    +0.000 A 
ATOM     20  C   UNL     1      -2.852  14.039  21.416  0.00  0.00    +0.000 A 
ATOM     21  C   UNL     1      -2.091  13.243  20.500  0.00  0.00    +0.000 A 
ATOM     22  C   UNL     1      -1.614  12.095  21.093  0.00  0.00    +0.000 A 
ATOM     23  S   UNL     1      -1.977  12.055  22.748  0.00  0.00    +0.000 S 
BRANCH  19  24
ATOM     24  C   UNL     1      -3.575  14.005  23.862  0.00  0.00    +0.000 C 
ATOM     25  O   UNL     1      -3.828  15.189  24.061  0.00  0.00    +0.000 OA
BRANCH  24  27
ATOM     26  C   UNL     1      -5.230  12.483  24.585  0.00  0.00    +0.000 C 
ATOM     27  O   UNL     1      -3.908  12.998  24.718  0.00  0.00    +0.000 OA
ENDBRANCH  24  27
ENDBRANCH  19  24
ENDBRANCH  15  22
ENDBRANCH   1  16
TORSDOF 5
ENDMDL
MODEL 3
REMARK VINA RESULT:      -7.3      0.709      1.112
REMARK  Name = 
REMARK  7 active torsions:
REMARK  status: ('A' for Active; 'I' for Inactive)
REMARK    1  A    between atoms: C_1  and  O_2
REMARK    2  A    between atoms: O_2  and  C_3
REMARK    3  A    between atoms: C_3  and  C_5
REMARK    4  A    between atoms: C_8  and  N_9
REMARK    5  A    between atoms: C_10  and  C_12
REMARK    6  A    between atoms: C_15  and  C_16
REMARK    7  A    between atoms: C_24  and  C_25
REMARK                            x       y       z     vdW  Elec       q    Type
REMARK                         _______ _______ _______ _____ _____    ______ ____
ROOT
ATOM      1  C   UNL     1       0.919  10.065  19.897  0.00  0.00    +0.000 A 
ATOM      2  C   UNL     1       1.225  10.149  18.537  0.00  0.00    +0.000 A 
ATOM      3  C   UNL     1       1.863   9.079  17.907  0.00  0.00    +0.000 A 
ATOM      4  C   UNL     1       2.198   7.946  18.645  0.00  0.00    +0.000 A 
ATOM      5  N   UNL     1       1.884   7.849  19.960  0.00  0.00    +0.000 NA
ATOM      6  C   UNL     1       1.268   8.895  20.581  0.00  0.00    +0.000 A 
ATOM      7  C   UNL     1       0.983   8.684  22.041  0.00  0.00    +0.000 C 
ENDROOT
BRANCH   4   8
ATOM      8  C   UNL     1       2.917   6.790  18.070  0.00  0.00    +0.000 A 
ATOM      9  C   UNL     1       4.128   6.969  17.374  0.00  0.00    +0.000 A 
ATOM     10  C   UNL     1       4.823   5.887  16.821  0.00  0.00    +0.000 A 
ATOM     11  C   UNL     1       4.318   4.598  16.951  0.00  0.00    +0.000 A 
ATOM     12  C   UNL     1       3.116   4.399  17.624  0.00  0.00    +0.000 A 
ATOM     13 BR   UNL     1       2.411   2.652  17.794  0.00  0.00    +0.000 Br
ATOM     14  C   UNL     1       2.419   5.478  18.175  0.00  0.00    +0.000 A 
ENDBRANCH   4   8
BRANCH   1  16
ATOM     15  N   UNL     1      -1.075  11.279  20.596  0.00  0.00    +0.000 N 
ATOM     16  C   UNL     1       0.313  11.220  20.607  0.00  0.00    +0.000 C 
ATOM     17  O   UNL     1       1.077  12.002  21.159  0.00  0.00    +0.000 OA
ATOM     18  H   UNL     1      -1.593  10.486  20.242  0.00  0.00    +0.000 HD
BRANCH  15  22
ATOM     19  C   UNL     1      -3.208  13.590  22.785  0.00  0.00    +0.000 A 
ATOM     20  C   UNL     1      -3.031  14.232  21.570  0.00  0.00    +0.000 A 
ATOM     21  C   UNL     1      -2.207  13.483  20.669  0.00  0.00    +0.000 A 
ATOM     22  C   UNL     1      -1.826  12.274  21.208  0.00  0.00    +0.000 A 
ATOM     23  S   UNL     1      -2.351  12.117  22.812  0.00  0.00    +0.000 S 
BRANCH  19  24
ATOM     24  C   UNL     1      -3.991  14.033  23.926  0.00  0.00    +0.000 C 
ATOM     25  O   UNL     1      -5.208  14.183  23.918  0.00  0.00    +0.000 OA
BRANCH  24  27
ATOM     26  C   UNL     1      -2.723  15.592  25.165  0.00  0.00    +0.000 C 
ATOM     27  O   UNL     1      -3.199  14.258  25.012  0.00  0.00    +0.000 OA
ENDBRANCH  24  27
ENDBRANCH  19  24
ENDBRANCH  15  22
ENDBRANCH   1  16
TORSDOF 5
ENDMDL
MODEL 4
REMARK VINA RESULT:      -7.3      5.484     10.750
REMARK  Name = 
REMARK  7 active torsions:
REMARK  status: ('A' for Active; 'I' for Inactive)
REMARK    1  A    between atoms: C_1  and  O_2
REMARK    2  A    between atoms: O_2  and  C_3
REMARK    3  A    between atoms: C_3  and  C_5
REMARK    4  A    between atoms: C_8  and  N_9
REMARK    5  A    between atoms: C_10  and  C_12
REMARK    6  A    between atoms: C_15  and  C_16
REMARK    7  A    between atoms: C_24  and  C_25
REMARK                            x       y       z     vdW  Elec       q    Type
REMARK                         _______ _______ _______ _____ _____    ______ ____
ROOT
ATOM      1  C   UNL     1       2.411   6.942  18.661  0.00  0.00    +0.000 A 
ATOM      2  C   UNL     1       2.093   8.206  18.160  0.00  0.00    +0.000 A 
ATOM      3  C   UNL     1       1.427   9.123  18.975  0.00  0.00    +0.000 A 
ATOM      4  C   UNL     1       1.077   8.763  20.274  0.00  0.00    +0.000 A 
ATOM      5  N   UNL     1       1.403   7.545  20.775  0.00  0.00    +0.000 NA
ATOM      6  C   UNL     1       2.046   6.644  19.979  0.00  0.00    +0.000 A 
ATOM      7  C   UNL     1       2.342   5.323  20.632  0.00  0.00    +0.000 C 
ENDROOT
BRANCH   4   8
ATOM      8  C   UNL     1       0.330   9.652  21.187  0.00  0.00    +0.000 A 
ATOM      9  C   UNL     1       0.081   9.270  22.520  0.00  0.00    +0.000 A 
ATOM     10  C   UNL     1      -0.626  10.097  23.400  0.00  0.00    +0.000 A 
ATOM     11  C   UNL     1      -1.103  11.328  22.963  0.00  0.00    +0.000 A 
ATOM     12  C   UNL     1      -0.879  11.721  21.647  0.00  0.00    +0.000 A 
ATOM     13 BR   UNL     1      -1.537  13.387  21.038  0.00  0.00    +0.000 Br
ATOM     14  C   UNL     1      -0.176  10.895  20.766  0.00  0.00    +0.000 A 
ENDBRANCH   4   8
BRANCH   1  16
ATOM     15  N   UNL     1       4.283   6.265  17.255  0.00  0.00    +0.000 N 
ATOM     16  C   UNL     1       3.047   5.921  17.790  0.00  0.00    +0.000 C 
ATOM     17  O   UNL     1       2.448   4.864  17.637  0.00  0.00    +0.000 OA
ATOM     18  H   UNL     1       4.741   7.103  17.589  0.00  0.00    +0.000 HD
BRANCH  15  22
ATOM     19  C   UNL     1       6.252   4.469  14.503  0.00  0.00    +0.000 A 
ATOM     20  C   UNL     1       6.223   3.622  15.598  0.00  0.00    +0.000 A 
ATOM     21  C   UNL     1       5.545   4.200  16.720  0.00  0.00    +0.000 A 
ATOM     22  C   UNL     1       5.037   5.446  16.426  0.00  0.00    +0.000 A 
ATOM     23  S   UNL     1       5.487   5.947  14.870  0.00  0.00    +0.000 S 
BRANCH  19  24
ATOM     24  C   UNL     1       6.829   4.219  13.193  0.00  0.00    +0.000 C 
ATOM     25  O   UNL     1       7.699   4.908  12.672  0.00  0.00    +0.000 OA
BRANCH  24  27
ATOM     26  C   UNL     1       5.037   3.320  11.946  0.00  0.00    +0.000 C 
ATOM     27  O   UNL     1       6.279   3.114  12.613  0.00  0.00    +0.000 OA
ENDBRANCH  24  27
ENDBRANCH  19  24
ENDBRANCH  15  22
ENDBRANCH   1  16
TORSDOF 5
ENDMDL
MODEL 5
REMARK VINA RESULT:      -7.2      5.156     10.535
REMARK  Name = 
REMARK  7 active torsions:
REMARK  status: ('A' for Active; 'I' for Inactive)
REMARK    1  A    between atoms: C_1  and  O_2
REMARK    2  A    between atoms: O_2  and  C_3
REMARK    3  A    between atoms: C_3  and  C_5
REMARK    4  A    between atoms: C_8  and  N_9
REMARK    5  A    between atoms: C_10  and  C_12
REMARK    6  A    between atoms: C_15  and  C_16
REMARK    7  A    between atoms: C_24  and  C_25
REMARK                            x       y       z     vdW  Elec       q    Type
REMARK                         _______ _______ _______ _____ _____    ______ ____
ROOT
ATOM      1  C   UNL     1       1.875   7.716  19.626  0.00  0.00    +0.000 A 
ATOM      2  C   UNL     1       1.493   7.528  20.956  0.00  0.00    +0.000 A 
ATOM      3  C   UNL     1       0.846   8.558  21.640  0.00  0.00    +0.000 A 
ATOM      4  C   UNL     1       0.598   9.766  20.992  0.00  0.00    +0.000 A 
ATOM      5  N   UNL     1       0.946   9.948  19.694  0.00  0.00    +0.000 NA
ATOM      6  C   UNL     1       1.586   8.946  19.025  0.00  0.00    +0.000 A 
ATOM      7  C   UNL     1       1.938   9.264  17.599  0.00  0.00    +0.000 C 
ENDROOT
BRANCH   4   8
ATOM      8  C   UNL     1      -0.038  10.924  21.653  0.00  0.00    +0.000 A 
ATOM      9  C   UNL     1      -0.993  10.736  22.672  0.00  0.00    +0.000 A 
ATOM     10  C   UNL     1      -1.608  11.819  23.309  0.00  0.00    +0.000 A 
ATOM     11  C   UNL     1      -1.281  13.119  22.939  0.00  0.00    +0.000 A 
ATOM     12  C   UNL     1      -0.349  13.329  21.927  0.00  0.00    +0.000 A 
ATOM     13 BR   UNL     1       0.092  15.092  21.404  0.00  0.00    +0.000 Br
ATOM     14  C   UNL     1       0.264  12.248  21.287  0.00  0.00    +0.000 A 
ENDBRANCH   4   8
BRANCH   1  16
ATOM     15  N   UNL     1       3.868   7.054  18.390  0.00  0.00    +0.000 N 
ATOM     16  C   UNL     1       2.636   6.666  18.903  0.00  0.00    +0.000 C 
ATOM     17  O   UNL     1       2.132   5.551  18.841  0.00  0.00    +0.000 OA
ATOM     18  H   UNL     1       4.240   7.958  18.648  0.00  0.00    +0.000 HD
BRANCH  15  22
ATOM     19  C   UNL     1       6.088   5.123  15.936  0.00  0.00    +0.000 A 
ATOM     20  C   UNL     1       6.132   4.445  17.142  0.00  0.00    +0.000 A 
ATOM     21  C   UNL     1       5.369   5.094  18.165  0.00  0.00    +0.000 A 
ATOM     22  C   UNL     1       4.728   6.218  17.691  0.00  0.00    +0.000 A 
ATOM     23  S   UNL     1       5.151   6.539  16.081  0.00  0.00    +0.000 S 
BRANCH  19  24
ATOM     24  C   UNL     1       6.716   4.756  14.678  0.00  0.00    +0.000 C 
ATOM     25  O   UNL     1       7.661   5.352  14.172  0.00  0.00    +0.000 OA
BRANCH  24  27
ATOM     26  C   UNL     1       6.165   3.578  12.707  0.00  0.00    +0.000 C 
ATOM     27  O   UNL     1       6.122   3.659  14.129  0.00  0.00    +0.000 OA
ENDBRANCH  24  27
ENDBRANCH  19  24
ENDBRANCH  15  22
ENDBRANCH   1  16
TORSDOF 5
ENDMDL
MODEL 6
REMARK VINA RESULT:      -7.1      1.269      1.463
REMARK  Name = 
REMARK  7 active torsions:
REMARK  status: ('A' for Active; 'I' for Inactive)
REMARK    1  A    between atoms: C_1  and  O_2
REMARK    2  A    between atoms: O_2  and  C_3
REMARK    3  A    between atoms: C_3  and  C_5
REMARK    4  A    between atoms: C_8  and  N_9
REMARK    5  A    between atoms: C_10  and  C_12
REMARK    6  A    between atoms: C_15  and  C_16
REMARK    7  A    between atoms: C_24  and  C_25
REMARK                            x       y       z     vdW  Elec       q    Type
REMARK                         _______ _______ _______ _____ _____    ______ ____
ROOT
ATOM      1  C   UNL     1       1.087   9.881  19.749  0.00  0.00    +0.000 A 
ATOM      2  C   UNL     1       1.369   9.934  18.383  0.00  0.00    +0.000 A 
ATOM      3  C   UNL     1       1.988   8.847  17.763  0.00  0.00    +0.000 A 
ATOM      4  C   UNL     1       2.326   7.726  18.517  0.00  0.00    +0.000 A 
ATOM      5  N   UNL     1       2.035   7.658  19.840  0.00  0.00    +0.000 NA
ATOM      6  C   UNL     1       1.439   8.721  20.450  0.00  0.00    +0.000 A 
ATOM      7  C   UNL     1       1.178   8.542  21.919  0.00  0.00    +0.000 C 
ENDROOT
BRANCH   4   8
ATOM      8  C   UNL     1       3.025   6.552  17.953  0.00  0.00    +0.000 A 
ATOM      9  C   UNL     1       4.214   6.709  17.214  0.00  0.00    +0.000 A 
ATOM     10  C   UNL     1       4.890   5.611  16.670  0.00  0.00    +0.000 A 
ATOM     11  C   UNL     1       4.388   4.327  16.853  0.00  0.00    +0.000 A 
ATOM     12  C   UNL     1       3.208   4.149  17.570  0.00  0.00    +0.000 A 
ATOM     13 BR   UNL     1       2.507   2.410  17.812  0.00  0.00    +0.000 Br
ATOM     14  C   UNL     1       2.530   5.246  18.111  0.00  0.00    +0.000 A 
ENDBRANCH   4   8
BRANCH   1  16
ATOM     15  N   UNL     1      -0.846  10.961  20.767  0.00  0.00    +0.000 N 
ATOM     16  C   UNL     1       0.503  11.055  20.447  0.00  0.00    +0.000 C 
ATOM     17  O   UNL     1       1.256  11.986  20.702  0.00  0.00    +0.000 OA
ATOM     18  H   UNL     1      -1.314  10.073  20.645  0.00  0.00    +0.000 HD
BRANCH  15  22
ATOM     19  C   UNL     1      -3.024  13.874  21.971  0.00  0.00    +0.000 A 
ATOM     20  C   UNL     1      -2.398  13.348  23.088  0.00  0.00    +0.000 A 
ATOM     21  C   UNL     1      -1.579  12.215  22.775  0.00  0.00    +0.000 A 
ATOM     22  C   UNL     1      -1.569  11.947  21.424  0.00  0.00    +0.000 A 
ATOM     23  S   UNL     1      -2.629  12.967  20.582  0.00  0.00    +0.000 S 
BRANCH  19  24
ATOM     24  C   UNL     1      -3.906  15.026  21.898  0.00  0.00    +0.000 C 
ATOM     25  O   UNL     1      -3.982  15.785  20.937  0.00  0.00    +0.000 OA
BRANCH  24  27
ATOM     26  C   UNL     1      -5.949  14.586  22.996  0.00  0.00    +0.000 C 
ATOM     27  O   UNL     1      -4.644  15.158  23.036  0.00  0.00    +0.000 OA
ENDBRANCH  24  27
ENDBRANCH  19  24
ENDBRANCH  15  22
ENDBRANCH   1  16
TORSDOF 5
ENDMDL
MODEL 7
REMARK VINA RESULT:      -7.1      1.286      1.988
REMARK  Name = 
REMARK  7 active torsions:
REMARK  status: ('A' for Active; 'I' for Inactive)
REMARK    1  A    between atoms: C_1  and  O_2
REMARK    2  A    between atoms: O_2  and  C_3
REMARK    3  A    between atoms: C_3  and  C_5
REMARK    4  A    between atoms: C_8  and  N_9
REMARK    5  A    between atoms: C_10  and  C_12
REMARK    6  A    between atoms: C_15  and  C_16
REMARK    7  A    between atoms: C_24  and  C_25
REMARK                            x       y       z     vdW  Elec       q    Type
REMARK                         _______ _______ _______ _____ _____    ______ ____
ROOT
ATOM      1  C   UNL     1       1.251   9.292  20.285  0.00  0.00    +0.000 A 
ATOM      2  C   UNL     1       1.389   8.104  21.006  0.00  0.00    +0.000 A 
ATOM      3  C   UNL     1       1.917   6.974  20.380  0.00  0.00    +0.000 A 
ATOM      4  C   UNL     1       2.289   7.041  19.039  0.00  0.00    +0.000 A 
ATOM      5  N   UNL     1       2.178   8.197  18.338  0.00  0.00    +0.000 NA
ATOM      6  C   UNL     1       1.656   9.300  18.946  0.00  0.00    +0.000 A 
ATOM      7  C   UNL     1       1.565  10.519  18.071  0.00  0.00    +0.000 C 
ENDROOT
BRANCH   4   8
ATOM      8  C   UNL     1       2.810   5.882  18.285  0.00  0.00    +0.000 A 
ATOM      9  C   UNL     1       2.042   4.709  18.148  0.00  0.00    +0.000 A 
ATOM     10  C   UNL     1       2.519   3.600  17.440  0.00  0.00    +0.000 A 
ATOM     11  C   UNL     1       3.779   3.640  16.853  0.00  0.00    +0.000 A 
ATOM     12  C   UNL     1       4.560   4.784  16.986  0.00  0.00    +0.000 A 
ATOM     13 BR   UNL     1       6.281   4.844  16.206  0.00  0.00    +0.000 Br
ATOM     14  C   UNL     1       4.087   5.892  17.696  0.00  0.00    +0.000 A 
ENDBRANCH   4   8
BRANCH   1  16
ATOM     15  N   UNL     1      -0.768  10.542  20.833  0.00  0.00    +0.000 N 
ATOM     16  C   UNL     1       0.619  10.484  20.906  0.00  0.00    +0.000 C 
ATOM     17  O   UNL     1       1.361  11.294  21.446  0.00  0.00    +0.000 OA
ATOM     18  H   UNL     1      -1.272   9.731  20.501  0.00  0.00    +0.000 HD
BRANCH  15  22
ATOM     19  C   UNL     1      -2.840  13.049  22.857  0.00  0.00    +0.000 A 
ATOM     20  C   UNL     1      -2.910  13.443  21.532  0.00  0.00    +0.000 A 
ATOM     21  C   UNL     1      -2.135  12.603  20.669  0.00  0.00    +0.000 A 
ATOM     22  C   UNL     1      -1.541  11.569  21.358  0.00  0.00    +0.000 A 
ATOM     23  S   UNL     1      -1.818  11.696  23.025  0.00  0.00    +0.000 S 
BRANCH  19  24
ATOM     24  C   UNL     1      -3.507  13.642  24.005  0.00  0.00    +0.000 C 
ATOM     25  O   UNL     1      -3.265  14.759  24.450  0.00  0.00    +0.000 OA
BRANCH  24  27
ATOM     26  C   UNL     1      -5.755  12.921  23.986  0.00  0.00    +0.000 C 
ATOM     27  O   UNL     1      -4.442  12.798  24.525  0.00  0.00    +0.000 OA
ENDBRANCH  24  27
ENDBRANCH  19  24
ENDBRANCH  15  22
ENDBRANCH   1  16
TORSDOF 5
ENDMDL
MODEL 8
REMARK VINA RESULT:      -7.0      1.607      2.035
REMARK  Name = 
REMARK  7 active torsions:
REMARK  status: ('A' for Active; 'I' for Inactive)
REMARK    1  A    between atoms: C_1  and  O_2
REMARK    2  A    between atoms: O_2  and  C_3
REMARK    3  A    between atoms: C_3  and  C_5
REMARK    4  A    between atoms: C_8  and  N_9
REMARK    5  A    between atoms: C_10  and  C_12
REMARK    6  A    between atoms: C_15  and  C_16
REMARK    7  A    between atoms: C_24  and  C_25
REMARK                            x       y       z     vdW  Elec       q    Type
REMARK                         _______ _______ _______ _____ _____    ______ ____
ROOT
ATOM      1  C   UNL     1       1.076   9.851  19.720  0.00  0.00    +0.000 A 
ATOM      2  C   UNL     1       1.324   9.853  18.346  0.00  0.00    +0.000 A 
ATOM      3  C   UNL     1       1.915   8.738  17.750  0.00  0.00    +0.000 A 
ATOM      4  C   UNL     1       2.260   7.641  18.535  0.00  0.00    +0.000 A 
ATOM      5  N   UNL     1       2.002   7.622  19.866  0.00  0.00    +0.000 NA
ATOM      6  C   UNL     1       1.433   8.714  20.453  0.00  0.00    +0.000 A 
ATOM      7  C   UNL     1       1.208   8.589  21.933  0.00  0.00    +0.000 C 
ENDROOT
BRANCH   4   8
ATOM      8  C   UNL     1       2.932   6.440  17.996  0.00  0.00    +0.000 A 
ATOM      9  C   UNL     1       2.291   5.185  18.021  0.00  0.00    +0.000 A 
ATOM     10  C   UNL     1       2.911   4.036  17.517  0.00  0.00    +0.000 A 
ATOM     11  C   UNL     1       4.190   4.116  16.978  0.00  0.00    +0.000 A 
ATOM     12  C   UNL     1       4.846   5.343  16.953  0.00  0.00    +0.000 A 
ATOM     13 BR   UNL     1       6.592   5.462  16.236  0.00  0.00    +0.000 Br
ATOM     14  C   UNL     1       4.231   6.492  17.459  0.00  0.00    +0.000 A 
ENDBRANCH   4   8
BRANCH   1  16
ATOM     15  N   UNL     1      -0.779  10.943  20.863  0.00  0.00    +0.000 N 
ATOM     16  C   UNL     1       0.523  11.056  20.390  0.00  0.00    +0.000 C 
ATOM     17  O   UNL     1       1.260  12.029  20.492  0.00  0.00    +0.000 OA
ATOM     18  H   UNL     1      -1.221  10.034  20.859  0.00  0.00    +0.000 HD
BRANCH  15  22
ATOM     19  C   UNL     1      -2.918  13.879  22.081  0.00  0.00    +0.000 A 
ATOM     20  C   UNL     1      -2.183  13.436  23.167  0.00  0.00    +0.000 A 
ATOM     21  C   UNL     1      -1.365  12.303  22.851  0.00  0.00    +0.000 A 
ATOM     22  C   UNL     1      -1.467  11.953  21.522  0.00  0.00    +0.000 A 
ATOM     23  S   UNL     1      -2.623  12.898  20.719  0.00  0.00    +0.000 S 
BRANCH  19  24
ATOM     24  C   UNL     1      -3.832  15.007  22.018  0.00  0.00    +0.000 C 
ATOM     25  O   UNL     1      -3.730  15.943  21.231  0.00  0.00    +0.000 OA
BRANCH  24  27
ATOM     26  C   UNL     1      -4.895  15.942  23.908  0.00  0.00    +0.000 C 
ATOM     27  O   UNL     1      -4.824  14.893  22.946  0.00  0.00    +0.000 OA
ENDBRANCH  24  27
ENDBRANCH  19  24
ENDBRANCH  15  22
ENDBRANCH   1  16
TORSDOF 5
ENDMDL
MODEL 9
REMARK VINA RESULT:      -7.0      3.725      4.572
REMARK  Name = 
REMARK  7 active torsions:
REMARK  status: ('A' for Active; 'I' for Inactive)
REMARK    1  A    between atoms: C_1  and  O_2
REMARK    2  A    between atoms: O_2  and  C_3
REMARK    3  A    between atoms: C_3  and  C_5
REMARK    4  A    between atoms: C_8  and  N_9
REMARK    5  A    between atoms: C_10  and  C_12
REMARK    6  A    between atoms: C_15  and  C_16
REMARK    7  A    between atoms: C_24  and  C_25
REMARK                            x       y       z     vdW  Elec       q    Type
REMARK                         _______ _______ _______ _____ _____    ______ ____
ROOT
ATOM      1  C   UNL     1       1.110   9.923  18.930  0.00  0.00    +0.000 A 
ATOM      2  C   UNL     1       1.701   9.297  17.830  0.00  0.00    +0.000 A 
ATOM      3  C   UNL     1       2.242   8.019  17.972  0.00  0.00    +0.000 A 
ATOM      4  C   UNL     1       2.196   7.386  19.212  0.00  0.00    +0.000 A 
ATOM      5  N   UNL     1       1.604   7.977  20.279  0.00  0.00    +0.000 NA
ATOM      6  C   UNL     1       1.082   9.230  20.145  0.00  0.00    +0.000 A 
ATOM      7  C   UNL     1       0.466   9.794  21.395  0.00  0.00    +0.000 C 
ENDROOT
BRANCH   4   8
ATOM      8  C   UNL     1       2.786   6.055  19.463  0.00  0.00    +0.000 A 
ATOM      9  C   UNL     1       4.011   5.687  18.872  0.00  0.00    +0.000 A 
ATOM     10  C   UNL     1       4.585   4.431  19.095  0.00  0.00    +0.000 A 
ATOM     11  C   UNL     1       3.943   3.510  19.917  0.00  0.00    +0.000 A 
ATOM     12  C   UNL     1       2.726   3.847  20.502  0.00  0.00    +0.000 A 
ATOM     13 BR   UNL     1       1.836   2.598  21.609  0.00  0.00    +0.000 Br
ATOM     14  C   UNL     1       2.149   5.101  20.277  0.00  0.00    +0.000 A 
ENDBRANCH   4   8
BRANCH   1  16
ATOM     15  N   UNL     1       1.553  12.319  18.928  0.00  0.00    +0.000 N 
ATOM     16  C   UNL     1       0.599  11.314  18.824  0.00  0.00    +0.000 C 
ATOM     17  O   UNL     1      -0.602  11.456  18.632  0.00  0.00    +0.000 OA
ATOM     18  H   UNL     1       2.531  12.064  18.925  0.00  0.00    +0.000 HD
BRANCH  15  22
ATOM     19  C   UNL     1       1.450  16.141  18.689  0.00  0.00    +0.000 A 
ATOM     20  C   UNL     1       0.146  15.712  18.869  0.00  0.00    +0.000 A 
ATOM     21  C   UNL     1       0.043  14.285  18.932  0.00  0.00    +0.000 A 
ATOM     22  C   UNL     1       1.276  13.678  18.848  0.00  0.00    +0.000 A 
ATOM     23  S   UNL     1       2.507  14.810  18.571  0.00  0.00    +0.000 S 
BRANCH  19  24
ATOM     24  C   UNL     1       1.939  17.507  18.601  0.00  0.00    +0.000 C 
ATOM     25  O   UNL     1       1.449  18.378  17.890  0.00  0.00    +0.000 OA
BRANCH  24  27
ATOM     26  C   UNL     1       2.723  18.182  20.724  0.00  0.00    +0.000 C 
ATOM     27  O   UNL     1       3.016  17.700  19.415  0.00  0.00    +0.000 OA
ENDBRANCH  24  27
ENDBRANCH  19  24
ENDBRANCH  15  22
ENDBRANCH   1  16
TORSDOF 5
ENDMDL
