MODEL 1
REMARK VINA RESULT:      -7.7      0.000      0.000
REMARK  Name = 
REMARK  13 active torsions:
REMARK  status: ('A' for Active; 'I' for Inactive)
REMARK    1  A    between atoms: C_1  and  O_2
REMARK    2  A    between atoms: O_2  and  C_3
REMARK    3  A    between atoms: C_6  and  C_7
REMARK    4  A    between atoms: N_9  and  C_10
REMARK    5  A    between atoms: C_10  and  C_11
REMARK    6  A    between atoms: C_10  and  C_26
REMARK    7  A    between atoms: C_11  and  O_13
REMARK    8  A    between atoms: O_13  and  C_14
REMARK    9  A    between atoms: C_14  and  C_15
REMARK   10  A    between atoms: N_17  and  C_18
REMARK   11  A    between atoms: C_22  and  C_23
REMARK   12  A    between atoms: C_26  and  C_27
REMARK   13  A    between atoms: C_26  and  C_28
REMARK                            x       y       z     vdW  Elec       q    Type
REMARK                         _______ _______ _______ _____ _____    ______ ____
ROOT
ATOM      1  C   UNL     1       2.313   6.710  19.825  0.00  0.00    +0.000 C 
ATOM      2  O   UNL     1       1.569   7.131  20.704  0.00  0.00    +0.000 OA
ENDROOT
BRANCH   1   3
ATOM      3  C   UNL     1       2.762   5.240  19.676  0.00  0.00    +0.000 C 
BRANCH   3   6
ATOM      4  C   UNL     1       4.844   4.678  18.413  0.00  0.00    +0.000 C 
ATOM      5  O   UNL     1       5.425   4.276  19.417  0.00  0.00    +0.000 OA
ATOM      6  N   UNL     1       3.547   5.148  18.436  0.00  0.00    +0.000 N 
ATOM      7  H   UNL     1       3.086   5.426  17.580  0.00  0.00    +0.000 HD
BRANCH   4  11
ATOM      8  C   UNL     1       6.662   4.523  14.512  0.00  0.00    +0.000 A 
ATOM      9  C   UNL     1       5.332   4.149  14.702  0.00  0.00    +0.000 A 
ATOM     10  C   UNL     1       4.760   4.201  15.979  0.00  0.00    +0.000 A 
ATOM     11  C   UNL     1       5.519   4.615  17.081  0.00  0.00    +0.000 A 
ATOM     12  C   UNL     1       6.868   4.947  16.893  0.00  0.00    +0.000 A 
ATOM     13  C   UNL     1       7.434   4.903  15.608  0.00  0.00    +0.000 A 
BRANCH   8  15
ATOM     14  C   UNL     1       6.391   3.550  12.369  0.00  0.00    +0.000 C 
ATOM     15  O   UNL     1       7.106   4.441  13.219  0.00  0.00    +0.000 OA
ENDBRANCH   8  15
ENDBRANCH   4  11
ENDBRANCH   3   6
BRANCH   3  16
ATOM     16  C   UNL     1       1.587   4.223  19.688  0.00  0.00    +0.000 C 
ATOM     17  C   UNL     1       1.521   3.401  18.399  0.00  0.00    +0.000 C 
ATOM     18  C   UNL     1       1.689   3.251  20.872  0.00  0.00    +0.000 C 
ENDBRANCH   3  16
ENDBRANCH   1   3
BRANCH   1  19
ATOM     19  O   UNL     1       2.931   7.508  18.909  0.00  0.00    +0.000 OA
BRANCH  19  20
ATOM     20  C   UNL     1       2.066   8.066  17.921  0.00  0.00    +0.000 C 
BRANCH  20  21
ATOM     21  C   UNL     1       1.623   9.483  18.277  0.00  0.00    +0.000 C 
ATOM     22  O   UNL     1       2.232  10.472  17.867  0.00  0.00    +0.000 OA
ATOM     23  N   UNL     1       0.530   9.506  19.134  0.00  0.00    +0.000 N 
ATOM     24  H   UNL     1       0.481   8.762  19.821  0.00  0.00    +0.000 HD
BRANCH  23  25
ATOM     25  C   UNL     1       0.044  10.730  19.543  0.00  0.00    +0.000 A 
ATOM     26  S   UNL     1       0.775  11.306  20.962  0.00  0.00    +0.000 S 
ATOM     27  C   UNL     1       0.048  12.839  20.759  0.00  0.00    +0.000 A 
ATOM     28  C   UNL     1      -0.844  12.846  19.707  0.00  0.00    +0.000 A 
ATOM     29  C   UNL     1      -0.898  11.587  19.007  0.00  0.00    +0.000 A 
BRANCH  29  30
ATOM     30  C   UNL     1      -1.818  11.217  17.935  0.00  0.00    +0.000 C 
ATOM     31  N   UNL     1      -1.892  12.093  16.888  0.00  0.00    +0.000 N 
ATOM     32  O   UNL     1      -2.526  10.214  17.952  0.00  0.00    +0.000 OA
ATOM     33  H   UNL     1      -1.157  12.761  16.720  0.00  0.00    +0.000 HD
ATOM     34  H   UNL     1      -2.443  11.783  16.099  0.00  0.00    +0.000 HD
ENDBRANCH  29  30
ENDBRANCH  23  25
ENDBRANCH  20  21
ENDBRANCH  19  20
ENDBRANCH   1  19
TORSDOF 10
ENDMDL
MODEL 2
REMARK VINA RESULT:      -7.2      1.495      2.051
REMARK  Name = 
REMARK  13 active torsions:
REMARK  status: ('A' for Active; 'I' for Inactive)
REMARK    1  A    between atoms: C_1  and  O_2
REMARK    2  A    between atoms: O_2  and  C_3
REMARK    3  A    between atoms: C_6  and  C_7
REMARK    4  A    between atoms: N_9  and  C_10
REMARK    5  A    between atoms: C_10  and  C_11
REMARK    6  A    between atoms: C_10  and  C_26
REMARK    7  A    between atoms: C_11  and  O_13
REMARK    8  A    between atoms: O_13  and  C_14
REMARK    9  A    between atoms: C_14  and  C_15
REMARK   10  A    between atoms: N_17  and  C_18
REMARK   11  A    between atoms: C_22  and  C_23
REMARK   12  A    between atoms: C_26  and  C_27
REMARK   13  A    between atoms: C_26  and  C_28
REMARK                            x       y       z     vdW  Elec       q    Type
REMARK                         _______ _______ _______ _____ _____    ______ ____
ROOT
ATOM      1  C   UNL     1       2.209   7.128  19.816  0.00  0.00    +0.000 C 
ATOM      2  O   UNL     1       1.515   7.652  20.681  0.00  0.00    +0.000 OA
ENDROOT
BRANCH   1   3
ATOM      3  C   UNL     1       2.750   5.683  19.872  0.00  0.00    +0.000 C 
BRANCH   3   6
ATOM      4  C   UNL     1       4.876   5.258  18.630  0.00  0.00    +0.000 C 
ATOM      5  O   UNL     1       5.550   5.230  19.655  0.00  0.00    +0.000 OA
ATOM      6  N   UNL     1       3.511   5.455  18.635  0.00  0.00    +0.000 N 
ATOM      7  H   UNL     1       2.984   5.424  17.772  0.00  0.00    +0.000 HD
BRANCH   4  11
ATOM      8  C   UNL     1       6.614   4.603  14.744  0.00  0.00    +0.000 A 
ATOM      9  C   UNL     1       5.237   4.507  14.943  0.00  0.00    +0.000 A 
ATOM     10  C   UNL     1       4.691   4.719  16.214  0.00  0.00    +0.000 A 
ATOM     11  C   UNL     1       5.521   5.014  17.303  0.00  0.00    +0.000 A 
ATOM     12  C   UNL     1       6.908   5.064  17.108  0.00  0.00    +0.000 A 
ATOM     13  C   UNL     1       7.450   4.861  15.829  0.00  0.00    +0.000 A 
BRANCH   8  15
ATOM     14  C   UNL     1       7.928   5.352  12.920  0.00  0.00    +0.000 C 
ATOM     15  O   UNL     1       7.029   4.387  13.456  0.00  0.00    +0.000 OA
ENDBRANCH   8  15
ENDBRANCH   4  11
ENDBRANCH   3   6
BRANCH   3  16
ATOM     16  C   UNL     1       1.647   4.609  20.075  0.00  0.00    +0.000 C 
ATOM     17  C   UNL     1       1.454   3.738  18.831  0.00  0.00    +0.000 C 
ATOM     18  C   UNL     1       1.960   3.688  21.262  0.00  0.00    +0.000 C 
ENDBRANCH   3  16
ENDBRANCH   1   3
BRANCH   1  19
ATOM     19  O   UNL     1       2.683   7.789  18.722  0.00  0.00    +0.000 OA
BRANCH  19  20
ATOM     20  C   UNL     1       1.679   8.382  17.900  0.00  0.00    +0.000 C 
BRANCH  20  21
ATOM     21  C   UNL     1       1.200   9.723  18.450  0.00  0.00    +0.000 C 
ATOM     22  O   UNL     1       1.938  10.709  18.478  0.00  0.00    +0.000 OA
ATOM     23  N   UNL     1      -0.095   9.669  18.949  0.00  0.00    +0.000 N 
ATOM     24  H   UNL     1      -0.371   8.801  19.393  0.00  0.00    +0.000 HD
BRANCH  23  25
ATOM     25  C   UNL     1      -0.636  10.816  19.489  0.00  0.00    +0.000 A 
ATOM     26  S   UNL     1      -1.363  11.827  18.337  0.00  0.00    +0.000 S 
ATOM     27  C   UNL     1      -2.053  12.795  19.564  0.00  0.00    +0.000 A 
ATOM     28  C   UNL     1      -1.608  12.425  20.817  0.00  0.00    +0.000 A 
ATOM     29  C   UNL     1      -0.724  11.286  20.785  0.00  0.00    +0.000 A 
BRANCH  29  30
ATOM     30  C   UNL     1       0.018  10.720  21.909  0.00  0.00    +0.000 C 
ATOM     31  N   UNL     1      -0.725  10.411  23.015  0.00  0.00    +0.000 N 
ATOM     32  O   UNL     1       1.233  10.552  21.916  0.00  0.00    +0.000 OA
ATOM     33  H   UNL     1      -1.723  10.289  22.950  0.00  0.00    +0.000 HD
ATOM     34  H   UNL     1      -0.231   9.919  23.747  0.00  0.00    +0.000 HD
ENDBRANCH  29  30
ENDBRANCH  23  25
ENDBRANCH  20  21
ENDBRANCH  19  20
ENDBRANCH   1  19
TORSDOF 10
ENDMDL
MODEL 3
REMARK VINA RESULT:      -7.2      0.822      1.199
REMARK  Name = 
REMARK  13 active torsions:
REMARK  status: ('A' for Active; 'I' for Inactive)
REMARK    1  A    between atoms: C_1  and  O_2
REMARK    2  A    between atoms: O_2  and  C_3
REMARK    3  A    between atoms: C_6  and  C_7
REMARK    4  A    between atoms: N_9  and  C_10
REMARK    5  A    between atoms: C_10  and  C_11
REMARK    6  A    between atoms: C_10  and  C_26
REMARK    7  A    between atoms: C_11  and  O_13
REMARK    8  A    between atoms: O_13  and  C_14
REMARK    9  A    between atoms: C_14  and  C_15
REMARK   10  A    between atoms: N_17  and  C_18
REMARK   11  A    between atoms: C_22  and  C_23
REMARK   12  A    between atoms: C_26  and  C_27
REMARK   13  A    between atoms: C_26  and  C_28
REMARK                            x       y       z     vdW  Elec       q    Type
REMARK                         _______ _______ _______ _____ _____    ______ ____
ROOT
ATOM      1  C   UNL     1       2.146   7.196  19.751  0.00  0.00    +0.000 C 
ATOM      2  O   UNL     1       1.969   7.902  20.738  0.00  0.00    +0.000 OA
ENDROOT
BRANCH   1   3
ATOM      3  C   UNL     1       2.753   5.776  19.777  0.00  0.00    +0.000 C 
BRANCH   3   6
ATOM      4  C   UNL     1       4.775   5.255  18.404  0.00  0.00    +0.000 C 
ATOM      5  O   UNL     1       5.487   5.095  19.391  0.00  0.00    +0.000 OA
ATOM      6  N   UNL     1       3.435   5.571  18.491  0.00  0.00    +0.000 N 
ATOM      7  H   UNL     1       2.871   5.648  17.655  0.00  0.00    +0.000 HD
BRANCH   4  11
ATOM      8  C   UNL     1       6.523   4.697  14.508  0.00  0.00    +0.000 A 
ATOM      9  C   UNL     1       7.080   5.586  15.427  0.00  0.00    +0.000 A 
ATOM     10  C   UNL     1       6.495   5.757  16.686  0.00  0.00    +0.000 A 
ATOM     11  C   UNL     1       5.336   5.051  17.034  0.00  0.00    +0.000 A 
ATOM     12  C   UNL     1       4.754   4.194  16.091  0.00  0.00    +0.000 A 
ATOM     13  C   UNL     1       5.351   4.017  14.832  0.00  0.00    +0.000 A 
BRANCH   8  15
ATOM     14  C   UNL     1       6.677   3.657  12.385  0.00  0.00    +0.000 C 
ATOM     15  O   UNL     1       7.189   4.606  13.314  0.00  0.00    +0.000 OA
ENDBRANCH   8  15
ENDBRANCH   4  11
ENDBRANCH   3   6
BRANCH   3  16
ATOM     16  C   UNL     1       1.715   4.657  20.062  0.00  0.00    +0.000 C 
ATOM     17  C   UNL     1       1.383   3.844  18.808  0.00  0.00    +0.000 C 
ATOM     18  C   UNL     1       2.206   3.687  21.146  0.00  0.00    +0.000 C 
ENDBRANCH   3  16
ENDBRANCH   1   3
BRANCH   1  19
ATOM     19  O   UNL     1       1.920   7.611  18.472  0.00  0.00    +0.000 OA
BRANCH  19  20
ATOM     20  C   UNL     1       2.493   8.876  18.145  0.00  0.00    +0.000 C 
BRANCH  20  21
ATOM     21  C   UNL     1       1.531  10.031  18.413  0.00  0.00    +0.000 C 
ATOM     22  O   UNL     1       1.863  11.203  18.226  0.00  0.00    +0.000 OA
ATOM     23  N   UNL     1       0.313   9.608  18.930  0.00  0.00    +0.000 N 
ATOM     24  H   UNL     1       0.341   8.805  19.547  0.00  0.00    +0.000 HD
BRANCH  23  25
ATOM     25  C   UNL     1      -0.636  10.562  19.229  0.00  0.00    +0.000 A 
ATOM     26  S   UNL     1      -0.557  11.111  20.833  0.00  0.00    +0.000 S 
ATOM     27  C   UNL     1      -1.656  12.376  20.494  0.00  0.00    +0.000 A 
ATOM     28  C   UNL     1      -2.172  12.276  19.219  0.00  0.00    +0.000 A 
ATOM     29  C   UNL     1      -1.617  11.173  18.473  0.00  0.00    +0.000 A 
BRANCH  29  30
ATOM     30  C   UNL     1      -2.031  10.711  17.151  0.00  0.00    +0.000 C 
ATOM     31  N   UNL     1      -2.440  11.686  16.283  0.00  0.00    +0.000 N 
ATOM     32  O   UNL     1      -2.063   9.532  16.812  0.00  0.00    +0.000 OA
ATOM     33  H   UNL     1      -2.183  12.650  16.429  0.00  0.00    +0.000 HD
ATOM     34  H   UNL     1      -2.620  11.379  15.337  0.00  0.00    +0.000 HD
ENDBRANCH  29  30
ENDBRANCH  23  25
ENDBRANCH  20  21
ENDBRANCH  19  20
ENDBRANCH   1  19
TORSDOF 10
ENDMDL
MODEL 4
REMARK VINA RESULT:      -7.1      1.058      1.066
REMARK  Name = 
REMARK  13 active torsions:
REMARK  status: ('A' for Active; 'I' for Inactive)
REMARK    1  A    between atoms: C_1  and  O_2
REMARK    2  A    between atoms: O_2  and  C_3
REMARK    3  A    between atoms: C_6  and  C_7
REMARK    4  A    between atoms: N_9  and  C_10
REMARK    5  A    between atoms: C_10  and  C_11
REMARK    6  A    between atoms: C_10  and  C_26
REMARK    7  A    between atoms: C_11  and  O_13
REMARK    8  A    between atoms: O_13  and  C_14
REMARK    9  A    between atoms: C_14  and  C_15
REMARK   10  A    between atoms: N_17  and  C_18
REMARK   11  A    between atoms: C_22  and  C_23
REMARK   12  A    between atoms: C_26  and  C_27
REMARK   13  A    between atoms: C_26  and  C_28
REMARK                            x       y       z     vdW  Elec       q    Type
REMARK                         _______ _______ _______ _____ _____    ______ ____
ROOT
ATOM      1  C   UNL     1       2.167   6.382  20.073  0.00  0.00    +0.000 C 
ATOM      2  O   UNL     1       1.463   6.735  21.013  0.00  0.00    +0.000 OA
ENDROOT
BRANCH   1   3
ATOM      3  C   UNL     1       2.565   4.922  19.766  0.00  0.00    +0.000 C 
BRANCH   3   6
ATOM      4  C   UNL     1       4.658   4.368  18.518  0.00  0.00    +0.000 C 
ATOM      5  O   UNL     1       5.149   3.771  19.471  0.00  0.00    +0.000 OA
ATOM      6  N   UNL     1       3.406   4.945  18.559  0.00  0.00    +0.000 N 
ATOM      7  H   UNL     1       3.016   5.388  17.738  0.00  0.00    +0.000 HD
BRANCH   4  11
ATOM      8  C   UNL     1       6.660   4.611  14.712  0.00  0.00    +0.000 A 
ATOM      9  C   UNL     1       5.342   4.167  14.806  0.00  0.00    +0.000 A 
ATOM     10  C   UNL     1       4.710   4.091  16.052  0.00  0.00    +0.000 A 
ATOM     11  C   UNL     1       5.396   4.444  17.220  0.00  0.00    +0.000 A 
ATOM     12  C   UNL     1       6.736   4.846  17.127  0.00  0.00    +0.000 A 
ATOM     13  C   UNL     1       7.363   4.932  15.873  0.00  0.00    +0.000 A 
BRANCH   8  15
ATOM     14  C   UNL     1       6.591   3.746  12.508  0.00  0.00    +0.000 C 
ATOM     15  O   UNL     1       7.168   4.654  13.440  0.00  0.00    +0.000 OA
ENDBRANCH   8  15
ENDBRANCH   4  11
ENDBRANCH   3   6
BRANCH   3  16
ATOM     16  C   UNL     1       1.354   3.964  19.603  0.00  0.00    +0.000 C 
ATOM     17  C   UNL     1       1.451   3.121  18.330  0.00  0.00    +0.000 C 
ATOM     18  C   UNL     1       1.217   3.012  20.800  0.00  0.00    +0.000 C 
ENDBRANCH   3  16
ENDBRANCH   1   3
BRANCH   1  19
ATOM     19  O   UNL     1       2.781   7.250  19.219  0.00  0.00    +0.000 OA
BRANCH  19  20
ATOM     20  C   UNL     1       1.902   7.931  18.325  0.00  0.00    +0.000 C 
BRANCH  20  21
ATOM     21  C   UNL     1       1.415   9.261  18.896  0.00  0.00    +0.000 C 
ATOM     22  O   UNL     1       1.142   9.389  20.090  0.00  0.00    +0.000 OA
ATOM     23  N   UNL     1       1.269  10.242  17.923  0.00  0.00    +0.000 N 
ATOM     24  H   UNL     1       0.961   9.928  17.010  0.00  0.00    +0.000 HD
BRANCH  23  25
ATOM     25  C   UNL     1       0.818  11.485  18.312  0.00  0.00    +0.000 A 
ATOM     26  S   UNL     1       2.062  12.528  18.808  0.00  0.00    +0.000 S 
ATOM     27  C   UNL     1       0.988  13.857  18.835  0.00  0.00    +0.000 A 
ATOM     28  C   UNL     1      -0.315  13.466  18.609  0.00  0.00    +0.000 A 
ATOM     29  C   UNL     1      -0.441  12.053  18.350  0.00  0.00    +0.000 A 
BRANCH  29  30
ATOM     30  C   UNL     1      -1.680  11.295  18.198  0.00  0.00    +0.000 C 
ATOM     31  N   UNL     1      -2.748  11.996  17.709  0.00  0.00    +0.000 N 
ATOM     32  O   UNL     1      -1.808  10.116  18.512  0.00  0.00    +0.000 OA
ATOM     33  H   UNL     1      -2.613  12.860  17.207  0.00  0.00    +0.000 HD
ATOM     34  H   UNL     1      -3.570  11.447  17.500  0.00  0.00    +0.000 HD
ENDBRANCH  29  30
ENDBRANCH  23  25
ENDBRANCH  20  21
ENDBRANCH  19  20
ENDBRANCH   1  19
TORSDOF 10
ENDMDL
MODEL 5
REMARK VINA RESULT:      -7.1      1.622      2.308
REMARK  Name = 
REMARK  13 active torsions:
REMARK  status: ('A' for Active; 'I' for Inactive)
REMARK    1  A    between atoms: C_1  and  O_2
REMARK    2  A    between atoms: O_2  and  C_3
REMARK    3  A    between atoms: C_6  and  C_7
REMARK    4  A    between atoms: N_9  and  C_10
REMARK    5  A    between atoms: C_10  and  C_11
REMARK    6  A    between atoms: C_10  and  C_26
REMARK    7  A    between atoms: C_11  and  O_13
REMARK    8  A    between atoms: O_13  and  C_14
REMARK    9  A    between atoms: C_14  and  C_15
REMARK   10  A    between atoms: N_17  and  C_18
REMARK   11  A    between atoms: C_22  and  C_23
REMARK   12  A    between atoms: C_26  and  C_27
REMARK   13  A    between atoms: C_26  and  C_28
REMARK                            x       y       z     vdW  Elec       q    Type
REMARK                         _______ _______ _______ _____ _____    ______ ____
ROOT
ATOM      1  C   UNL     1       2.294   7.044  19.706  0.00  0.00    +0.000 C 
ATOM      2  O   UNL     1       2.667   7.887  18.898  0.00  0.00    +0.000 OA
ENDROOT
BRANCH   1   3
ATOM      3  C   UNL     1       2.789   5.582  19.751  0.00  0.00    +0.000 C 
BRANCH   3   6
ATOM      4  C   UNL     1       4.899   5.207  18.467  0.00  0.00    +0.000 C 
ATOM      5  O   UNL     1       5.601   5.263  19.472  0.00  0.00    +0.000 OA
ATOM      6  N   UNL     1       3.526   5.334  18.504  0.00  0.00    +0.000 N 
ATOM      7  H   UNL     1       2.978   5.234  17.659  0.00  0.00    +0.000 HD
BRANCH   4  11
ATOM      8  C   UNL     1       6.560   4.451  14.566  0.00  0.00    +0.000 A 
ATOM      9  C   UNL     1       5.202   4.260  14.820  0.00  0.00    +0.000 A 
ATOM     10  C   UNL     1       4.682   4.506  16.096  0.00  0.00    +0.000 A 
ATOM     11  C   UNL     1       5.519   4.933  17.135  0.00  0.00    +0.000 A 
ATOM     12  C   UNL     1       6.891   5.079  16.887  0.00  0.00    +0.000 A 
ATOM     13  C   UNL     1       7.407   4.841  15.602  0.00  0.00    +0.000 A 
BRANCH   8  15
ATOM     14  C   UNL     1       6.081   3.354  12.521  0.00  0.00    +0.000 C 
ATOM     15  O   UNL     1       6.951   4.189  13.279  0.00  0.00    +0.000 OA
ENDBRANCH   8  15
ENDBRANCH   4  11
ENDBRANCH   3   6
BRANCH   3  16
ATOM     16  C   UNL     1       1.653   4.544  19.964  0.00  0.00    +0.000 C 
ATOM     17  C   UNL     1       1.479   3.623  18.754  0.00  0.00    +0.000 C 
ATOM     18  C   UNL     1       1.906   3.669  21.200  0.00  0.00    +0.000 C 
ENDBRANCH   3  16
ENDBRANCH   1   3
BRANCH   1  19
ATOM     19  O   UNL     1       1.309   7.259  20.624  0.00  0.00    +0.000 OA
BRANCH  19  20
ATOM     20  C   UNL     1       1.446   8.462  21.378  0.00  0.00    +0.000 C 
BRANCH  20  21
ATOM     21  C   UNL     1       0.553   9.581  20.845  0.00  0.00    +0.000 C 
ATOM     22  O   UNL     1      -0.336  10.081  21.535  0.00  0.00    +0.000 OA
ATOM     23  N   UNL     1       0.824   9.900  19.520  0.00  0.00    +0.000 N 
ATOM     24  H   UNL     1       1.104   9.132  18.920  0.00  0.00    +0.000 HD
BRANCH  23  25
ATOM     25  C   UNL     1       0.072  10.886  18.918  0.00  0.00    +0.000 A 
ATOM     26  S   UNL     1      -1.318  10.297  18.144  0.00  0.00    +0.000 S 
ATOM     27  C   UNL     1      -1.912  11.883  17.919  0.00  0.00    +0.000 A 
ATOM     28  C   UNL     1      -0.988  12.834  18.301  0.00  0.00    +0.000 A 
ATOM     29  C   UNL     1       0.216  12.258  18.847  0.00  0.00    +0.000 A 
BRANCH  29  30
ATOM     30  C   UNL     1       1.434  12.969  19.228  0.00  0.00    +0.000 C 
ATOM     31  N   UNL     1       1.540  13.298  20.551  0.00  0.00    +0.000 N 
ATOM     32  O   UNL     1       2.312  13.303  18.438  0.00  0.00    +0.000 OA
ATOM     33  H   UNL     1       0.988  12.823  21.248  0.00  0.00    +0.000 HD
ATOM     34  H   UNL     1       2.428  13.690  20.833  0.00  0.00    +0.000 HD
ENDBRANCH  29  30
ENDBRANCH  23  25
ENDBRANCH  20  21
ENDBRANCH  19  20
ENDBRANCH   1  19
TORSDOF 10
ENDMDL
MODEL 6
REMARK VINA RESULT:      -7.0      1.790      2.611
REMARK  Name = 
REMARK  13 active torsions:
REMARK  status: ('A' for Active; 'I' for Inactive)
REMARK    1  A    between atoms: C_1  and  O_2
REMARK    2  A    between atoms: O_2  and  C_3
REMARK    3  A    between atoms: C_6  and  C_7
REMARK    4  A    between atoms: N_9  and  C_10
REMARK    5  A    between atoms: C_10  and  C_11
REMARK    6  A    between atoms: C_10  and  C_26
REMARK    7  A    between atoms: C_11  and  O_13
REMARK    8  A    between atoms: O_13  and  C_14
REMARK    9  A    between atoms: C_14  and  C_15
REMARK   10  A    between atoms: N_17  and  C_18
REMARK   11  A    between atoms: C_22  and  C_23
REMARK   12  A    between atoms: C_26  and  C_27
REMARK   13  A    between atoms: C_26  and  C_28
REMARK                            x       y       z     vdW  Elec       q    Type
REMARK                         _______ _______ _______ _____ _____    ______ ____
ROOT
ATOM      1  C   UNL     1       2.282   6.747  19.842  0.00  0.00    +0.000 C 
ATOM      2  O   UNL     1       2.381   7.602  18.968  0.00  0.00    +0.000 OA
ENDROOT
BRANCH   1   3
ATOM      3  C   UNL     1       2.881   5.326  19.761  0.00  0.00    +0.000 C 
BRANCH   3   6
ATOM      4  C   UNL     1       4.868   4.806  18.338  0.00  0.00    +0.000 C 
ATOM      5  O   UNL     1       5.558   4.484  19.301  0.00  0.00    +0.000 OA
ATOM      6  N   UNL     1       3.555   5.212  18.459  0.00  0.00    +0.000 N 
ATOM      7  H   UNL     1       3.004   5.423  17.638  0.00  0.00    +0.000 HD
BRANCH   4  11
ATOM      8  C   UNL     1       6.595   4.501  14.405  0.00  0.00    +0.000 A 
ATOM      9  C   UNL     1       7.359   4.909  15.497  0.00  0.00    +0.000 A 
ATOM     10  C   UNL     1       6.779   5.007  16.767  0.00  0.00    +0.000 A 
ATOM     11  C   UNL     1       5.422   4.711  16.953  0.00  0.00    +0.000 A 
ATOM     12  C   UNL     1       4.647   4.346  15.844  0.00  0.00    +0.000 A 
ATOM     13  C   UNL     1       5.237   4.239  14.574  0.00  0.00    +0.000 A 
BRANCH   8  15
ATOM     14  C   UNL     1       6.688   3.616  12.209  0.00  0.00    +0.000 C 
ATOM     15  O   UNL     1       7.274   4.433  13.217  0.00  0.00    +0.000 OA
ENDBRANCH   8  15
ENDBRANCH   4  11
ENDBRANCH   3   6
BRANCH   3  16
ATOM     16  C   UNL     1       1.836   4.195  19.968  0.00  0.00    +0.000 C 
ATOM     17  C   UNL     1       1.558   3.422  18.677  0.00  0.00    +0.000 C 
ATOM     18  C   UNL     1       2.289   3.192  21.040  0.00  0.00    +0.000 C 
ENDBRANCH   3  16
ENDBRANCH   1   3
BRANCH   1  19
ATOM     19  O   UNL     1       1.539   6.904  20.974  0.00  0.00    +0.000 OA
BRANCH  19  20
ATOM     20  C   UNL     1       1.604   8.205  21.556  0.00  0.00    +0.000 C 
BRANCH  20  21
ATOM     21  C   UNL     1       0.360   9.037  21.250  0.00  0.00    +0.000 C 
ATOM     22  O   UNL     1      -0.730   8.779  21.762  0.00  0.00    +0.000 OA
ATOM     23  N   UNL     1       0.598  10.035  20.314  0.00  0.00    +0.000 N 
ATOM     24  H   UNL     1       1.266   9.818  19.584  0.00  0.00    +0.000 HD
BRANCH  23  25
ATOM     25  C   UNL     1      -0.453  10.845  19.941  0.00  0.00    +0.000 A 
ATOM     26  S   UNL     1      -1.010  10.546  18.366  0.00  0.00    +0.000 S 
ATOM     27  C   UNL     1      -2.379  11.537  18.621  0.00  0.00    +0.000 A 
ATOM     28  C   UNL     1      -2.319  12.189  19.835  0.00  0.00    +0.000 A 
ATOM     29  C   UNL     1      -1.156  11.831  20.608  0.00  0.00    +0.000 A 
BRANCH  29  30
ATOM     30  C   UNL     1      -0.724  12.424  21.871  0.00  0.00    +0.000 C 
ATOM     31  N   UNL     1      -1.116  11.762  23.002  0.00  0.00    +0.000 N 
ATOM     32  O   UNL     1      -0.085  13.468  21.958  0.00  0.00    +0.000 OA
ATOM     33  H   UNL     1      -1.399  10.796  22.963  0.00  0.00    +0.000 HD
ATOM     34  H   UNL     1      -0.725  12.109  23.867  0.00  0.00    +0.000 HD
ENDBRANCH  29  30
ENDBRANCH  23  25
ENDBRANCH  20  21
ENDBRANCH  19  20
ENDBRANCH   1  19
TORSDOF 10
ENDMDL
MODEL 7
REMARK VINA RESULT:      -7.0      0.757      1.328
REMARK  Name = 
REMARK  13 active torsions:
REMARK  status: ('A' for Active; 'I' for Inactive)
REMARK    1  A    between atoms: C_1  and  O_2
REMARK    2  A    between atoms: O_2  and  C_3
REMARK    3  A    between atoms: C_6  and  C_7
REMARK    4  A    between atoms: N_9  and  C_10
REMARK    5  A    between atoms: C_10  and  C_11
REMARK    6  A    between atoms: C_10  and  C_26
REMARK    7  A    between atoms: C_11  and  O_13
REMARK    8  A    between atoms: O_13  and  C_14
REMARK    9  A    between atoms: C_14  and  C_15
REMARK   10  A    between atoms: N_17  and  C_18
REMARK   11  A    between atoms: C_22  and  C_23
REMARK   12  A    between atoms: C_26  and  C_27
REMARK   13  A    between atoms: C_26  and  C_28
REMARK                            x       y       z     vdW  Elec       q    Type
REMARK                         _______ _______ _______ _____ _____    ______ ____
ROOT
ATOM      1  C   UNL     1       2.360   6.103  20.066  0.00  0.00    +0.000 C 
ATOM      2  O   UNL     1       1.329   6.179  20.726  0.00  0.00    +0.000 OA
ENDROOT
BRANCH   1   3
ATOM      3  C   UNL     1       3.249   4.846  19.957  0.00  0.00    +0.000 C 
BRANCH   3   6
ATOM      4  C   UNL     1       5.194   4.663  18.399  0.00  0.00    +0.000 C 
ATOM      5  O   UNL     1       5.991   4.454  19.310  0.00  0.00    +0.000 OA
ATOM      6  N   UNL     1       3.844   4.848  18.613  0.00  0.00    +0.000 N 
ATOM      7  H   UNL     1       3.213   4.970  17.832  0.00  0.00    +0.000 HD
BRANCH   4  11
ATOM      8  C   UNL     1       6.677   4.637  14.356  0.00  0.00    +0.000 A 
ATOM      9  C   UNL     1       7.506   4.975  15.425  0.00  0.00    +0.000 A 
ATOM     10  C   UNL     1       7.005   4.982  16.731  0.00  0.00    +0.000 A 
ATOM     11  C   UNL     1       5.663   4.665  16.980  0.00  0.00    +0.000 A 
ATOM     12  C   UNL     1       4.822   4.371  15.898  0.00  0.00    +0.000 A 
ATOM     13  C   UNL     1       5.332   4.355  14.590  0.00  0.00    +0.000 A 
BRANCH   8  15
ATOM     14  C   UNL     1       6.774   3.731  12.169  0.00  0.00    +0.000 C 
ATOM     15  O   UNL     1       7.282   4.654  13.127  0.00  0.00    +0.000 OA
ENDBRANCH   8  15
ENDBRANCH   4  11
ENDBRANCH   3   6
BRANCH   3  16
ATOM     16  C   UNL     1       2.495   3.519  20.249  0.00  0.00    +0.000 C 
ATOM     17  C   UNL     1       1.998   3.443  21.694  0.00  0.00    +0.000 C 
ATOM     18  C   UNL     1       1.290   3.333  19.316  0.00  0.00    +0.000 C 
ENDBRANCH   3  16
ENDBRANCH   1   3
BRANCH   1  19
ATOM     19  O   UNL     1       2.919   7.159  19.410  0.00  0.00    +0.000 OA
BRANCH  19  20
ATOM     20  C   UNL     1       2.259   7.529  18.200  0.00  0.00    +0.000 C 
BRANCH  20  21
ATOM     21  C   UNL     1       1.696   8.947  18.260  0.00  0.00    +0.000 C 
ATOM     22  O   UNL     1       2.077   9.826  17.486  0.00  0.00    +0.000 OA
ATOM     23  N   UNL     1       0.785   9.120  19.295  0.00  0.00    +0.000 N 
ATOM     24  H   UNL     1       0.966   8.600  20.146  0.00  0.00    +0.000 HD
BRANCH  23  25
ATOM     25  C   UNL     1       0.217  10.365  19.464  0.00  0.00    +0.000 A 
ATOM     26  S   UNL     1       0.935  11.271  20.706  0.00  0.00    +0.000 S 
ATOM     27  C   UNL     1       0.087  12.674  20.225  0.00  0.00    +0.000 A 
ATOM     28  C   UNL     1      -0.827  12.402  19.229  0.00  0.00    +0.000 A 
ATOM     29  C   UNL     1      -0.801  11.024  18.803  0.00  0.00    +0.000 A 
BRANCH  29  30
ATOM     30  C   UNL     1      -1.716  10.378  17.866  0.00  0.00    +0.000 C 
ATOM     31  N   UNL     1      -3.040  10.681  18.025  0.00  0.00    +0.000 N 
ATOM     32  O   UNL     1      -1.366   9.578  17.003  0.00  0.00    +0.000 OA
ATOM     33  H   UNL     1      -3.324  11.507  18.527  0.00  0.00    +0.000 HD
ATOM     34  H   UNL     1      -3.657  10.322  17.310  0.00  0.00    +0.000 HD
ENDBRANCH  29  30
ENDBRANCH  23  25
ENDBRANCH  20  21
ENDBRANCH  19  20
ENDBRANCH   1  19
TORSDOF 10
ENDMDL
MODEL 8
REMARK VINA RESULT:      -6.9      1.676      2.292
REMARK  Name = 
REMARK  13 active torsions:
REMARK  status: ('A' for Active; 'I' for Inactive)
REMARK    1  A    between atoms: C_1  and  O_2
REMARK    2  A    between atoms: O_2  and  C_3
REMARK    3  A    between atoms: C_6  and  C_7
REMARK    4  A    between atoms: N_9  and  C_10
REMARK    5  A    between atoms: C_10  and  C_11
REMARK    6  A    between atoms: C_10  and  C_26
REMARK    7  A    between atoms: C_11  and  O_13
REMARK    8  A    between atoms: O_13  and  C_14
REMARK    9  A    between atoms: C_14  and  C_15
REMARK   10  A    between atoms: N_17  and  C_18
REMARK   11  A    between atoms: C_22  and  C_23
REMARK   12  A    between atoms: C_26  and  C_27
REMARK   13  A    between atoms: C_26  and  C_28
REMARK                            x       y       z     vdW  Elec       q    Type
REMARK                         _______ _______ _______ _____ _____    ______ ____
ROOT
ATOM      1  C   UNL     1       2.218   5.599  20.180  0.00  0.00    +0.000 C 
ATOM      2  O   UNL     1       1.052   5.552  20.557  0.00  0.00    +0.000 OA
ENDROOT
BRANCH   1   3
ATOM      3  C   UNL     1       3.153   4.377  20.047  0.00  0.00    +0.000 C 
BRANCH   3   6
ATOM      4  C   UNL     1       5.123   4.474  18.512  0.00  0.00    +0.000 C 
ATOM      5  O   UNL     1       5.930   4.434  19.436  0.00  0.00    +0.000 OA
ATOM      6  N   UNL     1       3.758   4.436  18.708  0.00  0.00    +0.000 N 
ATOM      7  H   UNL     1       3.126   4.423  17.919  0.00  0.00    +0.000 HD
BRANCH   4  11
ATOM      8  C   UNL     1       6.643   4.551  14.483  0.00  0.00    +0.000 A 
ATOM      9  C   UNL     1       7.432   4.956  15.559  0.00  0.00    +0.000 A 
ATOM     10  C   UNL     1       6.919   4.929  16.860  0.00  0.00    +0.000 A 
ATOM     11  C   UNL     1       5.604   4.509  17.098  0.00  0.00    +0.000 A 
ATOM     12  C   UNL     1       4.799   4.146  16.009  0.00  0.00    +0.000 A 
ATOM     13  C   UNL     1       5.322   4.165  14.705  0.00  0.00    +0.000 A 
BRANCH   8  15
ATOM     14  C   UNL     1       6.708   3.776  12.245  0.00  0.00    +0.000 C 
ATOM     15  O   UNL     1       7.257   4.611  13.260  0.00  0.00    +0.000 OA
ENDBRANCH   8  15
ENDBRANCH   4  11
ENDBRANCH   3   6
BRANCH   3  16
ATOM     16  C   UNL     1       2.446   3.018  20.299  0.00  0.00    +0.000 C 
ATOM     17  C   UNL     1       1.860   2.924  21.710  0.00  0.00    +0.000 C 
ATOM     18  C   UNL     1       1.314   2.769  19.291  0.00  0.00    +0.000 C 
ENDBRANCH   3  16
ENDBRANCH   1   3
BRANCH   1  19
ATOM     19  O   UNL     1       2.883   6.759  19.917  0.00  0.00    +0.000 OA
BRANCH  19  20
ATOM     20  C   UNL     1       2.365   7.511  18.821  0.00  0.00    +0.000 C 
BRANCH  20  21
ATOM     21  C   UNL     1       1.529   8.703  19.283  0.00  0.00    +0.000 C 
ATOM     22  O   UNL     1       1.275   8.890  20.473  0.00  0.00    +0.000 OA
ATOM     23  N   UNL     1       1.063   9.475  18.226  0.00  0.00    +0.000 N 
ATOM     24  H   UNL     1       0.828   8.977  17.374  0.00  0.00    +0.000 HD
BRANCH  23  25
ATOM     25  C   UNL     1       0.282  10.573  18.513  0.00  0.00    +0.000 A 
ATOM     26  S   UNL     1      -1.383  10.250  18.453  0.00  0.00    +0.000 S 
ATOM     27  C   UNL     1      -1.741  11.766  19.157  0.00  0.00    +0.000 A 
ATOM     28  C   UNL     1      -0.612  12.546  19.293  0.00  0.00    +0.000 A 
ATOM     29  C   UNL     1       0.590  11.873  18.866  0.00  0.00    +0.000 A 
BRANCH  29  30
ATOM     30  C   UNL     1       1.928  12.449  18.759  0.00  0.00    +0.000 C 
ATOM     31  N   UNL     1       2.547  12.290  17.550  0.00  0.00    +0.000 N 
ATOM     32  O   UNL     1       2.510  13.013  19.680  0.00  0.00    +0.000 OA
ATOM     33  H   UNL     1       2.016  12.078  16.720  0.00  0.00    +0.000 HD
ATOM     34  H   UNL     1       3.423  12.783  17.441  0.00  0.00    +0.000 HD
ENDBRANCH  29  30
ENDBRANCH  23  25
ENDBRANCH  20  21
ENDBRANCH  19  20
ENDBRANCH   1  19
TORSDOF 10
ENDMDL
MODEL 9
REMARK VINA RESULT:      -6.9      1.470      2.040
REMARK  Name = 
REMARK  13 active torsions:
REMARK  status: ('A' for Active; 'I' for Inactive)
REMARK    1  A    between atoms: C_1  and  O_2
REMARK    2  A    between atoms: O_2  and  C_3
REMARK    3  A    between atoms: C_6  and  C_7
REMARK    4  A    between atoms: N_9  and  C_10
REMARK    5  A    between atoms: C_10  and  C_11
REMARK    6  A    between atoms: C_10  and  C_26
REMARK    7  A    between atoms: C_11  and  O_13
REMARK    8  A    between atoms: O_13  and  C_14
REMARK    9  A    between atoms: C_14  and  C_15
REMARK   10  A    between atoms: N_17  and  C_18
REMARK   11  A    between atoms: C_22  and  C_23
REMARK   12  A    between atoms: C_26  and  C_27
REMARK   13  A    between atoms: C_26  and  C_28
REMARK                            x       y       z     vdW  Elec       q    Type
REMARK                         _______ _______ _______ _____ _____    ______ ____
ROOT
ATOM      1  C   UNL     1       2.308   6.641  20.014  0.00  0.00    +0.000 C 
ATOM      2  O   UNL     1       1.344   6.909  20.722  0.00  0.00    +0.000 OA
ENDROOT
BRANCH   1   3
ATOM      3  C   UNL     1       3.055   5.289  20.012  0.00  0.00    +0.000 C 
BRANCH   3   6
ATOM      4  C   UNL     1       5.002   4.836  18.513  0.00  0.00    +0.000 C 
ATOM      5  O   UNL     1       5.771   4.657  19.452  0.00  0.00    +0.000 OA
ATOM      6  N   UNL     1       3.665   5.131  18.684  0.00  0.00    +0.000 N 
ATOM      7  H   UNL     1       3.053   5.225  17.884  0.00  0.00    +0.000 HD
BRANCH   4  11
ATOM      8  C   UNL     1       6.533   4.367  14.514  0.00  0.00    +0.000 A 
ATOM      9  C   UNL     1       7.329   4.889  15.534  0.00  0.00    +0.000 A 
ATOM     10  C   UNL     1       6.812   5.038  16.826  0.00  0.00    +0.000 A 
ATOM     11  C   UNL     1       5.487   4.680  17.107  0.00  0.00    +0.000 A 
ATOM     12  C   UNL     1       4.677   4.200  16.069  0.00  0.00    +0.000 A 
ATOM     13  C   UNL     1       5.203   4.041  14.777  0.00  0.00    +0.000 A 
BRANCH   8  15
ATOM     14  C   UNL     1       6.430   3.551  12.292  0.00  0.00    +0.000 C 
ATOM     15  O   UNL     1       7.151   4.257  13.297  0.00  0.00    +0.000 OA
ENDBRANCH   8  15
ENDBRANCH   4  11
ENDBRANCH   3   6
BRANCH   3  16
ATOM     16  C   UNL     1       2.155   4.077  20.378  0.00  0.00    +0.000 C 
ATOM     17  C   UNL     1       1.240   3.667  19.223  0.00  0.00    +0.000 C 
ATOM     18  C   UNL     1       2.988   2.854  20.789  0.00  0.00    +0.000 C 
ENDBRANCH   3  16
ENDBRANCH   1   3
BRANCH   1  19
ATOM     19  O   UNL     1       2.921   7.542  19.195  0.00  0.00    +0.000 OA
BRANCH  19  20
ATOM     20  C   UNL     1       2.211   7.835  17.992  0.00  0.00    +0.000 C 
BRANCH  20  21
ATOM     21  C   UNL     1       1.518   9.194  18.047  0.00  0.00    +0.000 C 
ATOM     22  O   UNL     1       2.044  10.206  17.581  0.00  0.00    +0.000 OA
ATOM     23  N   UNL     1       0.302   9.151  18.717  0.00  0.00    +0.000 N 
ATOM     24  H   UNL     1       0.240   8.508  19.497  0.00  0.00    +0.000 HD
BRANCH  23  25
ATOM     25  C   UNL     1      -0.414  10.322  18.847  0.00  0.00    +0.000 A 
ATOM     26  S   UNL     1      -1.719  10.439  17.769  0.00  0.00    +0.000 S 
ATOM     27  C   UNL     1      -2.322  11.812  18.587  0.00  0.00    +0.000 A 
ATOM     28  C   UNL     1      -1.455  12.243  19.569  0.00  0.00    +0.000 A 
ATOM     29  C   UNL     1      -0.292  11.401  19.701  0.00  0.00    +0.000 A 
BRANCH  29  30
ATOM     30  C   UNL     1       0.873  11.640  20.548  0.00  0.00    +0.000 C 
ATOM     31  N   UNL     1       1.844  12.439  20.010  0.00  0.00    +0.000 N 
ATOM     32  O   UNL     1       1.029  11.146  21.661  0.00  0.00    +0.000 OA
ATOM     33  H   UNL     1       1.639  13.056  19.241  0.00  0.00    +0.000 HD
ATOM     34  H   UNL     1       2.596  12.693  20.637  0.00  0.00    +0.000 HD
ENDBRANCH  29  30
ENDBRANCH  23  25
ENDBRANCH  20  21
ENDBRANCH  19  20
ENDBRANCH   1  19
TORSDOF 10
ENDMDL
